MODEL 1
REMARK VINA RESULT:      -7.5      0.000      0.000
REMARK  Name = 
REMARK  10 active torsions:
REMARK  status: ('A' for Active; 'I' for Inactive)
REMARK    1  A    between atoms: C_1  and  O_2
REMARK    2  A    between atoms: O_2  and  C_3
REMARK    3  A    between atoms: C_6  and  N_7
REMARK    4  A    between atoms: N_7  and  C_8
REMARK    5  A    between atoms: N_7  and  S_21
REMARK    6  A    between atoms: C_8  and  C_9
REMARK    7  A    between atoms: C_19  and  C_20
REMARK    8  A    between atoms: S_21  and  C_24
REMARK    9  A    between atoms: C_25  and  C_26
REMARK   10  A    between atoms: C_29  and  C_30
REMARK                            x       y       z     vdW  Elec       q    Type
REMARK                         _______ _______ _______ _____ _____    ______ ____
ROOT
ATOM      1  N   UNL     1       2.964   6.348  19.966  0.00  0.00    +0.000 N 
ENDROOT
BRANCH   1   5
ATOM      2  C   UNL     1       6.030   5.985  16.988  0.00  0.00    +0.000 A 
ATOM      3  C   UNL     1       6.210   5.437  18.259  0.00  0.00    +0.000 A 
ATOM      4  C   UNL     1       5.207   5.520  19.240  0.00  0.00    +0.000 A 
ATOM      5  C   UNL     1       3.997   6.158  18.942  0.00  0.00    +0.000 A 
ATOM      6  C   UNL     1       3.816   6.719  17.669  0.00  0.00    +0.000 A 
ATOM      7  C   UNL     1       4.830   6.633  16.696  0.00  0.00    +0.000 A 
BRANCH   2   9
ATOM      8  C   UNL     1       7.108   4.796  15.222  0.00  0.00    +0.000 C 
ATOM      9  O   UNL     1       7.115   5.861  16.166  0.00  0.00    +0.000 OA
ENDBRANCH   2   9
ENDBRANCH   1   5
BRANCH   1  10
ATOM     10  S   UNL     1       2.220   4.840  20.386  0.00  0.00    +0.000 S 
ATOM     11  O   UNL     1       2.798   4.379  21.631  0.00  0.00    +0.000 OA
ATOM     12  O   UNL     1       0.782   4.956  20.240  0.00  0.00    +0.000 OA
BRANCH  10  13
ATOM     13  C   UNL     1       2.606   3.643  19.237  0.00  0.00    +0.000 A 
ATOM     14  C   UNL     1       2.012   3.481  17.963  0.00  0.00    +0.000 A 
ATOM     15  C   UNL     1       1.017   4.319  17.258  0.00  0.00    +0.000 C 
ATOM     16  N   UNL     1       2.446   2.358  17.373  0.00  0.00    +0.000 NA
ATOM     17  O   UNL     1       3.333   1.782  18.258  0.00  0.00    +0.000 OA
ATOM     18  C   UNL     1       3.432   2.553  19.376  0.00  0.00    +0.000 A 
ATOM     19  C   UNL     1       4.333   2.037  20.425  0.00  0.00    +0.000 C 
ENDBRANCH  10  13
ENDBRANCH   1  10
BRANCH   1  20
ATOM     20  C   UNL     1       1.984   7.442  19.630  0.00  0.00    +0.000 C 
BRANCH  20  21
ATOM     21  C   UNL     1       1.410   8.360  20.692  0.00  0.00    +0.000 C 
ATOM     22  O   UNL     1       1.840   8.335  21.847  0.00  0.00    +0.000 OA
ATOM     23  N   UNL     1       0.400   9.282  20.231  0.00  0.00    +0.000 N 
ATOM     24  C   UNL     1       0.264  10.464  21.033  0.00  0.00    +0.000 A 
ATOM     25  C   UNL     1      -0.865  10.820  21.748  0.00  0.00    +0.000 A 
ATOM     26  C   UNL     1      -1.023  12.169  22.103  0.00  0.00    +0.000 A 
ATOM     27  C   UNL     1      -0.035  13.120  21.782  0.00  0.00    +0.000 A 
ATOM     28  C   UNL     1       1.038  12.778  20.963  0.00  0.00    +0.000 A 
ATOM     29  C   UNL     1       1.085  11.474  20.497  0.00  0.00    +0.000 A 
ATOM     30  C   UNL     1       1.630  11.007  19.156  0.00  0.00    +0.000 C 
ATOM     31  C   UNL     1       0.530   9.947  18.893  0.00  0.00    +0.000 C 
ATOM     32  C   UNL     1       0.512   9.109  17.627  0.00  0.00    +0.000 C 
ENDBRANCH  20  21
ENDBRANCH   1  20
TORSDOF 6
ENDMDL
MODEL 2
REMARK VINA RESULT:      -7.3      0.964      1.387
REMARK  Name = 
REMARK  10 active torsions:
REMARK  status: ('A' for Active; 'I' for Inactive)
REMARK    1  A    between atoms: C_1  and  O_2
REMARK    2  A    between atoms: O_2  and  C_3
REMARK    3  A    between atoms: C_6  and  N_7
REMARK    4  A    between atoms: N_7  and  C_8
REMARK    5  A    between atoms: N_7  and  S_21
REMARK    6  A    between atoms: C_8  and  C_9
REMARK    7  A    between atoms: C_19  and  C_20
REMARK    8  A    between atoms: S_21  and  C_24
REMARK    9  A    between atoms: C_25  and  C_26
REMARK   10  A    between atoms: C_29  and  C_30
REMARK                            x       y       z     vdW  Elec       q    Type
REMARK                         _______ _______ _______ _____ _____    ______ ____
ROOT
ATOM      1  N   UNL     1       2.800   6.381  19.472  0.00  0.00    +0.000 N 
ENDROOT
BRANCH   1   5
ATOM      2  C   UNL     1       6.323   5.931  17.066  0.00  0.00    +0.000 A 
ATOM      3  C   UNL     1       5.216   6.624  16.575  0.00  0.00    +0.000 A 
ATOM      4  C   UNL     1       4.062   6.807  17.358  0.00  0.00    +0.000 A 
ATOM      5  C   UNL     1       4.018   6.293  18.659  0.00  0.00    +0.000 A 
ATOM      6  C   UNL     1       5.126   5.587  19.152  0.00  0.00    +0.000 A 
ATOM      7  C   UNL     1       6.274   5.406  18.358  0.00  0.00    +0.000 A 
BRANCH   2   9
ATOM      8  C   UNL     1       7.146   4.918  15.068  0.00  0.00    +0.000 C 
ATOM      9  O   UNL     1       7.344   5.800  16.167  0.00  0.00    +0.000 OA
ENDBRANCH   2   9
ENDBRANCH   1   5
BRANCH   1  10
ATOM     10  S   UNL     1       1.771   5.013  19.200  0.00  0.00    +0.000 S 
ATOM     11  O   UNL     1       0.839   4.919  20.305  0.00  0.00    +0.000 OA
ATOM     12  O   UNL     1       1.292   5.036  17.833  0.00  0.00    +0.000 OA
BRANCH  10  13
ATOM     13  C   UNL     1       2.673   3.568  19.245  0.00  0.00    +0.000 A 
ATOM     14  C   UNL     1       3.250   2.906  18.136  0.00  0.00    +0.000 A 
ATOM     15  C   UNL     1       3.324   3.308  16.713  0.00  0.00    +0.000 C 
ATOM     16  N   UNL     1       3.768   1.724  18.501  0.00  0.00    +0.000 NA
ATOM     17  O   UNL     1       3.536   1.611  19.857  0.00  0.00    +0.000 OA
ATOM     18  C   UNL     1       2.882   2.718  20.305  0.00  0.00    +0.000 A 
ATOM     19  C   UNL     1       2.544   2.717  21.741  0.00  0.00    +0.000 C 
ENDBRANCH  10  13
ENDBRANCH   1  10
BRANCH   1  20
ATOM     20  C   UNL     1       2.097   7.709  19.353  0.00  0.00    +0.000 C 
BRANCH  20  21
ATOM     21  C   UNL     1       1.491   8.407  20.555  0.00  0.00    +0.000 C 
ATOM     22  O   UNL     1       2.006   8.304  21.671  0.00  0.00    +0.000 OA
ATOM     23  N   UNL     1       0.339   9.229  20.275  0.00  0.00    +0.000 N 
ATOM     24  C   UNL     1       0.112  10.278  21.228  0.00  0.00    +0.000 A 
ATOM     25  C   UNL     1      -0.997  10.388  22.047  0.00  0.00    +0.000 A 
ATOM     26  C   UNL     1      -1.300  11.651  22.581  0.00  0.00    +0.000 A 
ATOM     27  C   UNL     1      -0.471  12.760  22.326  0.00  0.00    +0.000 A 
ATOM     28  C   UNL     1       0.573  12.668  21.409  0.00  0.00    +0.000 A 
ATOM     29  C   UNL     1       0.753  11.448  20.779  0.00  0.00    +0.000 A 
ATOM     30  C   UNL     1       1.251  11.222  19.359  0.00  0.00    +0.000 C 
ATOM     31  C   UNL     1       0.281  10.060  19.028  0.00  0.00    +0.000 C 
ATOM     32  C   UNL     1       0.276   9.383  17.669  0.00  0.00    +0.000 C 
ENDBRANCH  20  21
ENDBRANCH   1  20
TORSDOF 6
ENDMDL
MODEL 3
REMARK VINA RESULT:      -7.3      1.110      1.779
REMARK  Name = 
REMARK  10 active torsions:
REMARK  status: ('A' for Active; 'I' for Inactive)
REMARK    1  A    between atoms: C_1  and  O_2
REMARK    2  A    between atoms: O_2  and  C_3
REMARK    3  A    between atoms: C_6  and  N_7
REMARK    4  A    between atoms: N_7  and  C_8
REMARK    5  A    between atoms: N_7  and  S_21
REMARK    6  A    between atoms: C_8  and  C_9
REMARK    7  A    between atoms: C_19  and  C_20
REMARK    8  A    between atoms: S_21  and  C_24
REMARK    9  A    between atoms: C_25  and  C_26
REMARK   10  A    between atoms: C_29  and  C_30
REMARK                            x       y       z     vdW  Elec       q    Type
REMARK                         _______ _______ _______ _____ _____    ______ ____
ROOT
ATOM      1  N   UNL     1       2.763   6.403  19.479  0.00  0.00    +0.000 N 
ENDROOT
BRANCH   1   5
ATOM      2  C   UNL     1       6.320   6.034  17.110  0.00  0.00    +0.000 A 
ATOM      3  C   UNL     1       5.178   6.636  16.581  0.00  0.00    +0.000 A 
ATOM      4  C   UNL     1       4.011   6.792  17.349  0.00  0.00    +0.000 A 
ATOM      5  C   UNL     1       3.989   6.344  18.675  0.00  0.00    +0.000 A 
ATOM      6  C   UNL     1       5.133   5.729  19.207  0.00  0.00    +0.000 A 
ATOM      7  C   UNL     1       6.294   5.575  18.427  0.00  0.00    +0.000 A 
BRANCH   2   9
ATOM      8  C   UNL     1       7.248   4.913  15.219  0.00  0.00    +0.000 C 
ATOM      9  O   UNL     1       7.353   5.917  16.222  0.00  0.00    +0.000 OA
ENDBRANCH   2   9
ENDBRANCH   1   5
BRANCH   1  10
ATOM     10  S   UNL     1       1.773   5.007  19.207  0.00  0.00    +0.000 S 
ATOM     11  O   UNL     1       0.749   4.969  20.230  0.00  0.00    +0.000 OA
ATOM     12  O   UNL     1       1.416   4.937  17.804  0.00  0.00    +0.000 OA
BRANCH  10  13
ATOM     13  C   UNL     1       2.680   3.580  19.422  0.00  0.00    +0.000 A 
ATOM     14  C   UNL     1       2.889   2.896  20.643  0.00  0.00    +0.000 A 
ATOM     15  C   UNL     1       2.326   3.147  21.989  0.00  0.00    +0.000 C 
ATOM     16  N   UNL     1       3.764   1.893  20.485  0.00  0.00    +0.000 NA
ATOM     17  O   UNL     1       4.128   1.913  19.155  0.00  0.00    +0.000 OA
ATOM     18  C   UNL     1       3.476   2.922  18.515  0.00  0.00    +0.000 A 
ATOM     19  C   UNL     1       3.796   3.077  17.082  0.00  0.00    +0.000 C 
ENDBRANCH  10  13
ENDBRANCH   1  10
BRANCH   1  20
ATOM     20  C   UNL     1       2.026   7.710  19.347  0.00  0.00    +0.000 C 
BRANCH  20  21
ATOM     21  C   UNL     1       1.447   8.430  20.550  0.00  0.00    +0.000 C 
ATOM     22  O   UNL     1       1.977   8.334  21.659  0.00  0.00    +0.000 OA
ATOM     23  N   UNL     1       0.301   9.265  20.278  0.00  0.00    +0.000 N 
ATOM     24  C   UNL     1       0.103  10.327  21.223  0.00  0.00    +0.000 A 
ATOM     25  C   UNL     1      -0.991  10.461  22.057  0.00  0.00    +0.000 A 
ATOM     26  C   UNL     1      -1.270  11.734  22.581  0.00  0.00    +0.000 A 
ATOM     27  C   UNL     1      -0.431  12.829  22.300  0.00  0.00    +0.000 A 
ATOM     28  C   UNL     1       0.598  12.713  21.369  0.00  0.00    +0.000 A 
ATOM     29  C   UNL     1       0.752  11.483  20.750  0.00  0.00    +0.000 A 
ATOM     30  C   UNL     1       1.226  11.234  19.326  0.00  0.00    +0.000 C 
ATOM     31  C   UNL     1       0.236  10.082  19.023  0.00  0.00    +0.000 C 
ATOM     32  C   UNL     1       0.201   9.390  17.672  0.00  0.00    +0.000 C 
ENDBRANCH  20  21
ENDBRANCH   1  20
TORSDOF 6
ENDMDL
MODEL 4
REMARK VINA RESULT:      -7.2      0.370      1.442
REMARK  Name = 
REMARK  10 active torsions:
REMARK  status: ('A' for Active; 'I' for Inactive)
REMARK    1  A    between atoms: C_1  and  O_2
REMARK    2  A    between atoms: O_2  and  C_3
REMARK    3  A    between atoms: C_6  and  N_7
REMARK    4  A    between atoms: N_7  and  C_8
REMARK    5  A    between atoms: N_7  and  S_21
REMARK    6  A    between atoms: C_8  and  C_9
REMARK    7  A    between atoms: C_19  and  C_20
REMARK    8  A    between atoms: S_21  and  C_24
REMARK    9  A    between atoms: C_25  and  C_26
REMARK   10  A    between atoms: C_29  and  C_30
REMARK                            x       y       z     vdW  Elec       q    Type
REMARK                         _______ _______ _______ _____ _____    ______ ____
ROOT
ATOM      1  N   UNL     1       2.983   6.310  19.952  0.00  0.00    +0.000 N 
ENDROOT
BRANCH   1   5
ATOM      2  C   UNL     1       6.053   5.907  16.983  0.00  0.00    +0.000 A 
ATOM      3  C   UNL     1       6.245   5.406  18.272  0.00  0.00    +0.000 A 
ATOM      4  C   UNL     1       5.241   5.503  19.251  0.00  0.00    +0.000 A 
ATOM      5  C   UNL     1       4.019   6.106  18.933  0.00  0.00    +0.000 A 
ATOM      6  C   UNL     1       3.826   6.619  17.642  0.00  0.00    +0.000 A 
ATOM      7  C   UNL     1       4.840   6.520  16.671  0.00  0.00    +0.000 A 
BRANCH   2   9
ATOM      8  C   UNL     1       7.036   4.871  15.072  0.00  0.00    +0.000 C 
ATOM      9  O   UNL     1       7.140   5.776  16.165  0.00  0.00    +0.000 OA
ENDBRANCH   2   9
ENDBRANCH   1   5
BRANCH   1  10
ATOM     10  S   UNL     1       2.227   4.811  20.380  0.00  0.00    +0.000 S 
ATOM     11  O   UNL     1       2.908   4.274  21.540  0.00  0.00    +0.000 OA
ATOM     12  O   UNL     1       0.788   4.981  20.385  0.00  0.00    +0.000 OA
BRANCH  10  13
ATOM     13  C   UNL     1       2.452   3.655  19.148  0.00  0.00    +0.000 A 
ATOM     14  C   UNL     1       3.376   2.584  19.163  0.00  0.00    +0.000 A 
ATOM     15  C   UNL     1       4.288   2.121  20.234  0.00  0.00    +0.000 C 
ATOM     16  N   UNL     1       3.394   1.951  17.981  0.00  0.00    +0.000 NA
ATOM     17  O   UNL     1       2.473   2.605  17.188  0.00  0.00    +0.000 OA
ATOM     18  C   UNL     1       1.905   3.625  17.888  0.00  0.00    +0.000 A 
ATOM     19  C   UNL     1       0.916   4.430  17.146  0.00  0.00    +0.000 C 
ENDBRANCH  10  13
ENDBRANCH   1  10
BRANCH   1  20
ATOM     20  C   UNL     1       2.011   7.408  19.604  0.00  0.00    +0.000 C 
BRANCH  20  21
ATOM     21  C   UNL     1       1.434   8.334  20.657  0.00  0.00    +0.000 C 
ATOM     22  O   UNL     1       1.857   8.314  21.815  0.00  0.00    +0.000 OA
ATOM     23  N   UNL     1       0.430   9.257  20.185  0.00  0.00    +0.000 N 
ATOM     24  C   UNL     1       0.293  10.444  20.980  0.00  0.00    +0.000 A 
ATOM     25  C   UNL     1      -0.838  10.808  21.686  0.00  0.00    +0.000 A 
ATOM     26  C   UNL     1      -0.993  12.159  22.033  0.00  0.00    +0.000 A 
ATOM     27  C   UNL     1      -0.001  13.105  21.712  0.00  0.00    +0.000 A 
ATOM     28  C   UNL     1       1.076  12.755  20.901  0.00  0.00    +0.000 A 
ATOM     29  C   UNL     1       1.121  11.448  20.443  0.00  0.00    +0.000 A 
ATOM     30  C   UNL     1       1.672  10.971  19.107  0.00  0.00    +0.000 C 
ATOM     31  C   UNL     1       0.570   9.914  18.844  0.00  0.00    +0.000 C 
ATOM     32  C   UNL     1       0.556   9.069  17.583  0.00  0.00    +0.000 C 
ENDBRANCH  20  21
ENDBRANCH   1  20
TORSDOF 6
ENDMDL
MODEL 5
REMARK VINA RESULT:      -7.1      1.405      2.115
REMARK  Name = 
REMARK  10 active torsions:
REMARK  status: ('A' for Active; 'I' for Inactive)
REMARK    1  A    between atoms: C_1  and  O_2
REMARK    2  A    between atoms: O_2  and  C_3
REMARK    3  A    between atoms: C_6  and  N_7
REMARK    4  A    between atoms: N_7  and  C_8
REMARK    5  A    between atoms: N_7  and  S_21
REMARK    6  A    between atoms: C_8  and  C_9
REMARK    7  A    between atoms: C_19  and  C_20
REMARK    8  A    between atoms: S_21  and  C_24
REMARK    9  A    between atoms: C_25  and  C_26
REMARK   10  A    between atoms: C_29  and  C_30
REMARK                            x       y       z     vdW  Elec       q    Type
REMARK                         _______ _______ _______ _____ _____    ______ ____
ROOT
ATOM      1  N   UNL     1       2.803   6.400  19.573  0.00  0.00    +0.000 N 
ENDROOT
BRANCH   1   5
ATOM      2  C   UNL     1       6.249   5.592  17.148  0.00  0.00    +0.000 A 
ATOM      3  C   UNL     1       5.060   6.029  16.563  0.00  0.00    +0.000 A 
ATOM      4  C   UNL     1       3.928   6.326  17.342  0.00  0.00    +0.000 A 
ATOM      5  C   UNL     1       3.989   6.191  18.734  0.00  0.00    +0.000 A 
ATOM      6  C   UNL     1       5.180   5.742  19.325  0.00  0.00    +0.000 A 
ATOM      7  C   UNL     1       6.306   5.443  18.534  0.00  0.00    +0.000 A 
BRANCH   2   9
ATOM      8  C   UNL     1       6.891   4.523  15.114  0.00  0.00    +0.000 C 
ATOM      9  O   UNL     1       7.240   5.302  16.253  0.00  0.00    +0.000 OA
ENDBRANCH   2   9
ENDBRANCH   1   5
BRANCH   1  10
ATOM     10  S   UNL     1       2.259   4.907  20.264  0.00  0.00    +0.000 S 
ATOM     11  O   UNL     1       2.991   4.682  21.493  0.00  0.00    +0.000 OA
ATOM     12  O   UNL     1       0.810   4.871  20.253  0.00  0.00    +0.000 OA
BRANCH  10  13
ATOM     13  C   UNL     1       2.662   3.597  19.251  0.00  0.00    +0.000 A 
ATOM     14  C   UNL     1       2.075   3.293  18.000  0.00  0.00    +0.000 A 
ATOM     15  C   UNL     1       1.074   4.041  17.206  0.00  0.00    +0.000 C 
ATOM     16  N   UNL     1       2.523   2.118  17.535  0.00  0.00    +0.000 NA
ATOM     17  O   UNL     1       3.412   1.650  18.479  0.00  0.00    +0.000 OA
ATOM     18  C   UNL     1       3.499   2.538  19.508  0.00  0.00    +0.000 A 
ATOM     19  C   UNL     1       4.401   2.146  20.609  0.00  0.00    +0.000 C 
ENDBRANCH  10  13
ENDBRANCH   1  10
BRANCH   1  20
ATOM     20  C   UNL     1       1.718   7.187  18.885  0.00  0.00    +0.000 C 
BRANCH  20  21
ATOM     21  C   UNL     1       1.923   8.626  18.450  0.00  0.00    +0.000 C 
ATOM     22  O   UNL     1       2.286   8.893  17.303  0.00  0.00    +0.000 OA
ATOM     23  N   UNL     1       1.599   9.623  19.443  0.00  0.00    +0.000 N 
ATOM     24  C   UNL     1       1.261  10.909  18.903  0.00  0.00    +0.000 A 
ATOM     25  C   UNL     1       1.974  12.076  19.111  0.00  0.00    +0.000 A 
ATOM     26  C   UNL     1       1.310  13.298  18.916  0.00  0.00    +0.000 A 
ATOM     27  C   UNL     1      -0.027  13.331  18.475  0.00  0.00    +0.000 A 
ATOM     28  C   UNL     1      -0.771  12.157  18.381  0.00  0.00    +0.000 A 
ATOM     29  C   UNL     1      -0.135  10.978  18.731  0.00  0.00    +0.000 A 
ATOM     30  C   UNL     1      -0.772   9.759  19.383  0.00  0.00    +0.000 C 
ATOM     31  C   UNL     1       0.409   9.448  20.337  0.00  0.00    +0.000 C 
ATOM     32  C   UNL     1       0.363   8.289  21.316  0.00  0.00    +0.000 C 
ENDBRANCH  20  21
ENDBRANCH   1  20
TORSDOF 6
ENDMDL
MODEL 6
REMARK VINA RESULT:      -7.0      5.053     10.223
REMARK  Name = 
REMARK  10 active torsions:
REMARK  status: ('A' for Active; 'I' for Inactive)
REMARK    1  A    between atoms: C_1  and  O_2
REMARK    2  A    between atoms: O_2  and  C_3
REMARK    3  A    between atoms: C_6  and  N_7
REMARK    4  A    between atoms: N_7  and  C_8
REMARK    5  A    between atoms: N_7  and  S_21
REMARK    6  A    between atoms: C_8  and  C_9
REMARK    7  A    between atoms: C_19  and  C_20
REMARK    8  A    between atoms: S_21  and  C_24
REMARK    9  A    between atoms: C_25  and  C_26
REMARK   10  A    between atoms: C_29  and  C_30
REMARK                            x       y       z     vdW  Elec       q    Type
REMARK                         _______ _______ _______ _____ _____    ______ ____
ROOT
ATOM      1  N   UNL     1      -0.090  14.090  20.380  0.00  0.00    +0.000 N 
ENDROOT
BRANCH   1   5
ATOM      2  C   UNL     1      -3.579  13.001  22.627  0.00  0.00    +0.000 A 
ATOM      3  C   UNL     1      -2.315  12.571  23.032  0.00  0.00    +0.000 A 
ATOM      4  C   UNL     1      -1.156  12.940  22.326  0.00  0.00    +0.000 A 
ATOM      5  C   UNL     1      -1.264  13.760  21.197  0.00  0.00    +0.000 A 
ATOM      6  C   UNL     1      -2.535  14.186  20.781  0.00  0.00    +0.000 A 
ATOM      7  C   UNL     1      -3.688  13.807  21.494  0.00  0.00    +0.000 A 
BRANCH   2   9
ATOM      8  C   UNL     1      -5.932  12.838  22.988  0.00  0.00    +0.000 C 
ATOM      9  O   UNL     1      -4.605  12.518  23.390  0.00  0.00    +0.000 OA
ENDBRANCH   2   9
ENDBRANCH   1   5
BRANCH   1  10
ATOM     10  S   UNL     1       0.057  15.803  20.166  0.00  0.00    +0.000 S 
ATOM     11  O   UNL     1      -0.679  16.177  18.977  0.00  0.00    +0.000 OA
ATOM     12  O   UNL     1      -0.194  16.469  21.429  0.00  0.00    +0.000 OA
BRANCH  10  13
ATOM     13  C   UNL     1       1.676  16.228  19.848  0.00  0.00    +0.000 A 
ATOM     14  C   UNL     1       2.137  17.030  18.777  0.00  0.00    +0.000 A 
ATOM     15  C   UNL     1       1.380  17.775  17.745  0.00  0.00    +0.000 C 
ATOM     16  N   UNL     1       3.477  17.050  18.736  0.00  0.00    +0.000 NA
ATOM     17  O   UNL     1       3.900  16.264  19.788  0.00  0.00    +0.000 OA
ATOM     18  C   UNL     1       2.821  15.773  20.458  0.00  0.00    +0.000 A 
ATOM     19  C   UNL     1       3.130  14.887  21.597  0.00  0.00    +0.000 C 
ENDBRANCH  10  13
ENDBRANCH   1  10
BRANCH   1  20
ATOM     20  C   UNL     1      -0.018  13.304  19.097  0.00  0.00    +0.000 C 
BRANCH  20  21
ATOM     21  C   UNL     1       1.034  12.236  18.868  0.00  0.00    +0.000 C 
ATOM     22  O   UNL     1       2.224  12.460  19.103  0.00  0.00    +0.000 OA
ATOM     23  N   UNL     1       0.529  10.955  18.433  0.00  0.00    +0.000 N 
ATOM     24  C   UNL     1       1.384   9.844  18.741  0.00  0.00    +0.000 A 
ATOM     25  C   UNL     1       2.001   9.028  17.811  0.00  0.00    +0.000 A 
ATOM     26  C   UNL     1       2.419   7.754  18.227  0.00  0.00    +0.000 A 
ATOM     27  C   UNL     1       2.258   7.341  19.563  0.00  0.00    +0.000 A 
ATOM     28  C   UNL     1       1.534   8.120  20.462  0.00  0.00    +0.000 A 
ATOM     29  C   UNL     1       0.997   9.303  19.982  0.00  0.00    +0.000 A 
ATOM     30  C   UNL     1      -0.309   9.953  20.417  0.00  0.00    +0.000 C 
ATOM     31  C   UNL     1      -0.745  10.407  19.001  0.00  0.00    +0.000 C 
ATOM     32  C   UNL     1      -2.055  11.137  18.763  0.00  0.00    +0.000 C 
ENDBRANCH  20  21
ENDBRANCH   1  20
TORSDOF 6
ENDMDL
MODEL 7
REMARK VINA RESULT:      -6.9      1.498      2.586
REMARK  Name = 
REMARK  10 active torsions:
REMARK  status: ('A' for Active; 'I' for Inactive)
REMARK    1  A    between atoms: C_1  and  O_2
REMARK    2  A    between atoms: O_2  and  C_3
REMARK    3  A    between atoms: C_6  and  N_7
REMARK    4  A    between atoms: N_7  and  C_8
REMARK    5  A    between atoms: N_7  and  S_21
REMARK    6  A    between atoms: C_8  and  C_9
REMARK    7  A    between atoms: C_19  and  C_20
REMARK    8  A    between atoms: S_21  and  C_24
REMARK    9  A    between atoms: C_25  and  C_26
REMARK   10  A    between atoms: C_29  and  C_30
REMARK                            x       y       z     vdW  Elec       q    Type
REMARK                         _______ _______ _______ _____ _____    ______ ____
ROOT
ATOM      1  N   UNL     1       2.945   6.360  19.489  0.00  0.00    +0.000 N 
ENDROOT
BRANCH   1   5
ATOM      2  C   UNL     1       6.341   5.404  17.048  0.00  0.00    +0.000 A 
ATOM      3  C   UNL     1       5.123   5.749  16.461  0.00  0.00    +0.000 A 
ATOM      4  C   UNL     1       4.006   6.092  17.242  0.00  0.00    +0.000 A 
ATOM      5  C   UNL     1       4.112   6.099  18.638  0.00  0.00    +0.000 A 
ATOM      6  C   UNL     1       5.332   5.744  19.232  0.00  0.00    +0.000 A 
ATOM      7  C   UNL     1       6.443   5.397  18.439  0.00  0.00    +0.000 A 
BRANCH   2   9
ATOM      8  C   UNL     1       6.917   4.819  14.808  0.00  0.00    +0.000 C 
ATOM      9  O   UNL     1       7.313   5.052  16.154  0.00  0.00    +0.000 OA
ENDBRANCH   2   9
ENDBRANCH   1   5
BRANCH   1  10
ATOM     10  S   UNL     1       2.407   4.909  20.268  0.00  0.00    +0.000 S 
ATOM     11  O   UNL     1       3.294   4.634  21.379  0.00  0.00    +0.000 OA
ATOM     12  O   UNL     1       0.973   4.975  20.469  0.00  0.00    +0.000 OA
BRANCH  10  13
ATOM     13  C   UNL     1       2.566   3.574  19.221  0.00  0.00    +0.000 A 
ATOM     14  C   UNL     1       3.479   2.502  19.363  0.00  0.00    +0.000 A 
ATOM     15  C   UNL     1       4.430   2.193  20.454  0.00  0.00    +0.000 C 
ATOM     16  N   UNL     1       3.439   1.696  18.293  0.00  0.00    +0.000 NA
ATOM     17  O   UNL     1       2.492   2.235  17.446  0.00  0.00    +0.000 OA
ATOM     18  C   UNL     1       1.965   3.360  18.004  0.00  0.00    +0.000 A 
ATOM     19  C   UNL     1       0.954   4.059  17.187  0.00  0.00    +0.000 C 
ENDBRANCH  10  13
ENDBRANCH   1  10
BRANCH   1  20
ATOM     20  C   UNL     1       1.851   7.119  18.785  0.00  0.00    +0.000 C 
BRANCH  20  21
ATOM     21  C   UNL     1       2.029   8.559  18.342  0.00  0.00    +0.000 C 
ATOM     22  O   UNL     1       2.344   8.828  17.181  0.00  0.00    +0.000 OA
ATOM     23  N   UNL     1       1.740   9.554  19.346  0.00  0.00    +0.000 N 
ATOM     24  C   UNL     1       1.373  10.839  18.821  0.00  0.00    +0.000 A 
ATOM     25  C   UNL     1       2.086  12.009  19.000  0.00  0.00    +0.000 A 
ATOM     26  C   UNL     1       1.408  13.227  18.831  0.00  0.00    +0.000 A 
ATOM     27  C   UNL     1       0.054  13.252  18.445  0.00  0.00    +0.000 A 
ATOM     28  C   UNL     1      -0.686  12.074  18.381  0.00  0.00    +0.000 A 
ATOM     29  C   UNL     1      -0.029  10.898  18.706  0.00  0.00    +0.000 A 
ATOM     30  C   UNL     1      -0.632   9.676  19.383  0.00  0.00    +0.000 C 
ATOM     31  C   UNL     1       0.588   9.372  20.288  0.00  0.00    +0.000 C 
ATOM     32  C   UNL     1       0.588   8.213  21.269  0.00  0.00    +0.000 C 
ENDBRANCH  20  21
ENDBRANCH   1  20
TORSDOF 6
ENDMDL
MODEL 8
REMARK VINA RESULT:      -6.9      4.992     10.413
REMARK  Name = 
REMARK  10 active torsions:
REMARK  status: ('A' for Active; 'I' for Inactive)
REMARK    1  A    between atoms: C_1  and  O_2
REMARK    2  A    between atoms: O_2  and  C_3
REMARK    3  A    between atoms: C_6  and  N_7
REMARK    4  A    between atoms: N_7  and  C_8
REMARK    5  A    between atoms: N_7  and  S_21
REMARK    6  A    between atoms: C_8  and  C_9
REMARK    7  A    between atoms: C_19  and  C_20
REMARK    8  A    between atoms: S_21  and  C_24
REMARK    9  A    between atoms: C_25  and  C_26
REMARK   10  A    between atoms: C_29  and  C_30
REMARK                            x       y       z     vdW  Elec       q    Type
REMARK                         _______ _______ _______ _____ _____    ______ ____
ROOT
ATOM      1  N   UNL     1      -0.048  14.033  20.194  0.00  0.00    +0.000 N 
ENDROOT
BRANCH   1   5
ATOM      2  C   UNL     1      -3.367  13.204  22.783  0.00  0.00    +0.000 A 
ATOM      3  C   UNL     1      -3.583  13.649  21.478  0.00  0.00    +0.000 A 
ATOM      4  C   UNL     1      -2.510  13.900  20.605  0.00  0.00    +0.000 A 
ATOM      5  C   UNL     1      -1.196  13.694  21.043  0.00  0.00    +0.000 A 
ATOM      6  C   UNL     1      -0.976  13.255  22.357  0.00  0.00    +0.000 A 
ATOM      7  C   UNL     1      -2.058  13.012  23.224  0.00  0.00    +0.000 A 
BRANCH   2   9
ATOM      8  C   UNL     1      -5.153  14.231  23.986  0.00  0.00    +0.000 C 
ATOM      9  O   UNL     1      -4.509  13.052  23.518  0.00  0.00    +0.000 OA
ENDBRANCH   2   9
ENDBRANCH   1   5
BRANCH   1  10
ATOM     10  S   UNL     1       0.029  15.740  19.906  0.00  0.00    +0.000 S 
ATOM     11  O   UNL     1      -0.753  16.037  18.723  0.00  0.00    +0.000 OA
ATOM     12  O   UNL     1      -0.214  16.449  21.146  0.00  0.00    +0.000 OA
BRANCH  10  13
ATOM     13  C   UNL     1       1.621  16.211  19.524  0.00  0.00    +0.000 A 
ATOM     14  C   UNL     1       2.789  15.889  20.256  0.00  0.00    +0.000 A 
ATOM     15  C   UNL     1       2.967  15.013  21.436  0.00  0.00    +0.000 C 
ATOM     16  N   UNL     1       3.855  16.534  19.763  0.00  0.00    +0.000 NA
ATOM     17  O   UNL     1       3.390  17.278  18.698  0.00  0.00    +0.000 OA
ATOM     18  C   UNL     1       2.050  17.083  18.552  0.00  0.00    +0.000 A 
ATOM     19  C   UNL     1       1.413  17.846  17.461  0.00  0.00    +0.000 C 
ENDBRANCH  10  13
ENDBRANCH   1  10
BRANCH   1  20
ATOM     20  C   UNL     1       0.037  13.197  18.944  0.00  0.00    +0.000 C 
BRANCH  20  21
ATOM     21  C   UNL     1       1.089  12.118  18.770  0.00  0.00    +0.000 C 
ATOM     22  O   UNL     1       2.274  12.346  19.021  0.00  0.00    +0.000 OA
ATOM     23  N   UNL     1       0.588  10.827  18.364  0.00  0.00    +0.000 N 
ATOM     24  C   UNL     1       1.432   9.723  18.724  0.00  0.00    +0.000 A 
ATOM     25  C   UNL     1       2.064   8.876  17.833  0.00  0.00    +0.000 A 
ATOM     26  C   UNL     1       2.470   7.614  18.296  0.00  0.00    +0.000 A 
ATOM     27  C   UNL     1       2.280   7.244  19.641  0.00  0.00    +0.000 A 
ATOM     28  C   UNL     1       1.540   8.052  20.501  0.00  0.00    +0.000 A 
ATOM     29  C   UNL     1       1.018   9.222  19.973  0.00  0.00    +0.000 A 
ATOM     30  C   UNL     1      -0.293   9.889  20.361  0.00  0.00    +0.000 C 
ATOM     31  C   UNL     1      -0.699  10.300  18.923  0.00  0.00    +0.000 C 
ATOM     32  C   UNL     1      -2.001  11.027  18.636  0.00  0.00    +0.000 C 
ENDBRANCH  20  21
ENDBRANCH   1  20
TORSDOF 6
ENDMDL
MODEL 9
REMARK VINA RESULT:      -6.8      3.329      8.544
REMARK  Name = 
REMARK  10 active torsions:
REMARK  status: ('A' for Active; 'I' for Inactive)
REMARK    1  A    between atoms: C_1  and  O_2
REMARK    2  A    between atoms: O_2  and  C_3
REMARK    3  A    between atoms: C_6  and  N_7
REMARK    4  A    between atoms: N_7  and  C_8
REMARK    5  A    between atoms: N_7  and  S_21
REMARK    6  A    between atoms: C_8  and  C_9
REMARK    7  A    between atoms: C_19  and  C_20
REMARK    8  A    between atoms: S_21  and  C_24
REMARK    9  A    between atoms: C_25  and  C_26
REMARK   10  A    between atoms: C_29  and  C_30
REMARK                            x       y       z     vdW  Elec       q    Type
REMARK                         _______ _______ _______ _____ _____    ______ ____
ROOT
ATOM      1  N   UNL     1       0.119  10.172  20.057  0.00  0.00    +0.000 N 
ENDROOT
BRANCH   1   5
ATOM      2  C   UNL     1      -2.726  10.658  16.883  0.00  0.00    +0.000 A 
ATOM      3  C   UNL     1      -2.854  11.389  18.065  0.00  0.00    +0.000 A 
ATOM      4  C   UNL     1      -1.917  11.265  19.106  0.00  0.00    +0.000 A 
ATOM      5  C   UNL     1      -0.827  10.399  18.958  0.00  0.00    +0.000 A 
ATOM      6  C   UNL     1      -0.701   9.656  17.775  0.00  0.00    +0.000 A 
ATOM      7  C   UNL     1      -1.647   9.785  16.742  0.00  0.00    +0.000 A 
BRANCH   2   9
ATOM      8  C   UNL     1      -3.607  10.272  14.699  0.00  0.00    +0.000 C 
ATOM      9  O   UNL     1      -3.742  10.856  15.990  0.00  0.00    +0.000 OA
ENDBRANCH   2   9
ENDBRANCH   1   5
BRANCH   1  10
ATOM     10  S   UNL     1       0.833  11.662  20.581  0.00  0.00    +0.000 S 
ATOM     11  O   UNL     1       2.007  11.350  21.370  0.00  0.00    +0.000 OA
ATOM     12  O   UNL     1       0.920  12.574  19.459  0.00  0.00    +0.000 OA
BRANCH  10  13
ATOM     13  C   UNL     1      -0.216  12.488  21.640  0.00  0.00    +0.000 A 
ATOM     14  C   UNL     1      -0.984  11.910  22.679  0.00  0.00    +0.000 A 
ATOM     15  C   UNL     1      -1.016  10.520  23.186  0.00  0.00    +0.000 C 
ATOM     16  N   UNL     1      -1.807  12.817  23.225  0.00  0.00    +0.000 NA
ATOM     17  O   UNL     1      -1.575  13.996  22.548  0.00  0.00    +0.000 OA
ATOM     18  C   UNL     1      -0.619  13.801  21.599  0.00  0.00    +0.000 A 
ATOM     19  C   UNL     1      -0.292  14.982  20.776  0.00  0.00    +0.000 C 
ENDBRANCH  10  13
ENDBRANCH   1  10
BRANCH   1  20
ATOM     20  C   UNL     1       1.119   9.083  19.768  0.00  0.00    +0.000 C 
BRANCH  20  21
ATOM     21  C   UNL     1       1.122   7.773  20.533  0.00  0.00    +0.000 C 
ATOM     22  O   UNL     1       0.237   7.518  21.352  0.00  0.00    +0.000 OA
ATOM     23  N   UNL     1       2.178   6.854  20.179  0.00  0.00    +0.000 N 
ATOM     24  C   UNL     1       1.885   5.477  20.458  0.00  0.00    +0.000 A 
ATOM     25  C   UNL     1       2.570   4.680  21.355  0.00  0.00    +0.000 A 
ATOM     26  C   UNL     1       2.481   3.287  21.202  0.00  0.00    +0.000 A 
ATOM     27  C   UNL     1       1.677   2.722  20.193  0.00  0.00    +0.000 A 
ATOM     28  C   UNL     1       1.085   3.528  19.224  0.00  0.00    +0.000 A 
ATOM     29  C   UNL     1       1.320   4.891  19.309  0.00  0.00    +0.000 A 
ATOM     30  C   UNL     1       1.438   5.868  18.148  0.00  0.00    +0.000 C 
ATOM     31  C   UNL     1       2.601   6.696  18.749  0.00  0.00    +0.000 C 
ATOM     32  C   UNL     1       3.214   7.871  18.008  0.00  0.00    +0.000 C 
ENDBRANCH  20  21
ENDBRANCH   1  20
TORSDOF 6
ENDMDL
