MODEL 1
REMARK VINA RESULT:      -7.1      0.000      0.000
REMARK  Name = 
REMARK  10 active torsions:
REMARK  status: ('A' for Active; 'I' for Inactive)
REMARK    1  A    between atoms: C_2  and  C_3
REMARK    2  A    between atoms: C_2  and  C_11
REMARK    3  A    between atoms: C_3  and  O_4
REMARK    4  A    between atoms: O_4  and  C_5
REMARK    5  A    between atoms: C_5  and  C_7
REMARK    6  A    between atoms: C_7  and  C_8
REMARK    7  A    between atoms: C_7  and  C_9
REMARK    8  A    between atoms: C_9  and  C_10
REMARK    9  A    between atoms: C_15  and  C_16
REMARK   10  A    between atoms: C_16  and  C_17
REMARK                            x       y       z     vdW  Elec       q    Type
REMARK                         _______ _______ _______ _____ _____    ______ ____
ROOT
ATOM      1  C   UNL     1       6.741   5.526  16.805  0.00  0.00    +0.000 C 
ATOM      2  C   UNL     1       6.006   6.600  17.638  0.00  0.00    +0.000 C 
ATOM      3  C   UNL     1       5.115   5.714  18.429  0.00  0.00    +0.000 A 
ATOM      4  C   UNL     1       3.938   6.013  19.099  0.00  0.00    +0.000 A 
ATOM      5  C   UNL     1       3.220   4.959  19.680  0.00  0.00    +0.000 A 
ATOM      6  C   UNL     1       3.723   3.637  19.588  0.00  0.00    +0.000 A 
ATOM      7  C   UNL     1       4.924   3.358  18.929  0.00  0.00    +0.000 A 
ATOM      8  C   UNL     1       5.589   4.413  18.351  0.00  0.00    +0.000 A 
ATOM      9  O   UNL     1       6.693   4.275  17.548  0.00  0.00    +0.000 OA
ENDROOT
BRANCH   5  10
ATOM     10  C   UNL     1       1.914   5.145  20.387  0.00  0.00    +0.000 C 
ATOM     11  C   UNL     1       0.993   3.983  20.654  0.00  0.00    +0.000 C 
ATOM     12  O   UNL     1       1.588   6.275  20.757  0.00  0.00    +0.000 OA
ENDBRANCH   5  10
BRANCH   1  14
ATOM     13  C   UNL     1       5.199   6.057  14.901  0.00  0.00    +0.000 C 
ATOM     14  C   UNL     1       6.179   5.285  15.406  0.00  0.00    +0.000 C 
BRANCH  14  15
ATOM     15  C   UNL     1       6.788   4.141  14.608  0.00  0.00    +0.000 C 
BRANCH  15  16
ATOM     16  O   UNL     1       5.907   3.693  13.573  0.00  0.00    +0.000 OA
BRANCH  16  17
ATOM     17  C   UNL     1       6.442   3.773  12.323  0.00  0.00    +0.000 C 
ATOM     18  O   UNL     1       7.476   4.363  12.028  0.00  0.00    +0.000 OA
BRANCH  17  19
ATOM     19  C   UNL     1       5.582   3.020  11.333  0.00  0.00    +0.000 C 
ATOM     20  C   UNL     1       5.914   1.534  11.458  0.00  0.00    +0.000 C 
BRANCH  19  21
ATOM     21  C   UNL     1       4.097   3.288  11.593  0.00  0.00    +0.000 C 
ATOM     22  C   UNL     1       3.326   3.645  10.326  0.00  0.00    +0.000 C 
ENDBRANCH  19  21
ENDBRANCH  17  19
ENDBRANCH  16  17
ENDBRANCH  15  16
ENDBRANCH  14  15
ENDBRANCH   1  14
TORSDOF 7
ENDMDL
MODEL 2
REMARK VINA RESULT:      -7.0      2.598      7.531
REMARK  Name = 
REMARK  10 active torsions:
REMARK  status: ('A' for Active; 'I' for Inactive)
REMARK    1  A    between atoms: C_2  and  C_3
REMARK    2  A    between atoms: C_2  and  C_11
REMARK    3  A    between atoms: C_3  and  O_4
REMARK    4  A    between atoms: O_4  and  C_5
REMARK    5  A    between atoms: C_5  and  C_7
REMARK    6  A    between atoms: C_7  and  C_8
REMARK    7  A    between atoms: C_7  and  C_9
REMARK    8  A    between atoms: C_9  and  C_10
REMARK    9  A    between atoms: C_15  and  C_16
REMARK   10  A    between atoms: C_16  and  C_17
REMARK                            x       y       z     vdW  Elec       q    Type
REMARK                         _______ _______ _______ _____ _____    ______ ____
ROOT
ATOM      1  C   UNL     1       2.876   2.538  19.750  0.00  0.00    +0.000 C 
ATOM      2  C   UNL     1       2.953   2.293  18.226  0.00  0.00    +0.000 C 
ATOM      3  C   UNL     1       4.050   3.237  17.893  0.00  0.00    +0.000 A 
ATOM      4  C   UNL     1       4.387   3.806  16.674  0.00  0.00    +0.000 A 
ATOM      5  C   UNL     1       5.409   4.766  16.651  0.00  0.00    +0.000 A 
ATOM      6  C   UNL     1       6.076   5.105  17.855  0.00  0.00    +0.000 A 
ATOM      7  C   UNL     1       5.738   4.502  19.069  0.00  0.00    +0.000 A 
ATOM      8  C   UNL     1       4.716   3.583  19.059  0.00  0.00    +0.000 A 
ATOM      9  O   UNL     1       4.176   3.024  20.189  0.00  0.00    +0.000 OA
ENDROOT
BRANCH   5  10
ATOM     10  C   UNL     1       5.832   5.487  15.409  0.00  0.00    +0.000 C 
ATOM     11  C   UNL     1       6.742   4.839  14.397  0.00  0.00    +0.000 C 
ATOM     12  O   UNL     1       5.426   6.634  15.214  0.00  0.00    +0.000 OA
ENDBRANCH   5  10
BRANCH   1  14
ATOM     13  C   UNL     1       0.500   3.313  19.950  0.00  0.00    +0.000 C 
ATOM     14  C   UNL     1       1.805   3.527  20.201  0.00  0.00    +0.000 C 
BRANCH  14  15
ATOM     15  C   UNL     1       2.282   4.758  20.959  0.00  0.00    +0.000 C 
BRANCH  15  16
ATOM     16  O   UNL     1       1.497   5.911  20.639  0.00  0.00    +0.000 OA
BRANCH  16  17
ATOM     17  C   UNL     1       2.150   6.825  19.869  0.00  0.00    +0.000 C 
ATOM     18  O   UNL     1       2.912   6.560  18.944  0.00  0.00    +0.000 OA
BRANCH  17  19
ATOM     19  C   UNL     1       1.801   8.229  20.308  0.00  0.00    +0.000 C 
ATOM     20  C   UNL     1       1.389   9.020  19.067  0.00  0.00    +0.000 C 
BRANCH  19  21
ATOM     21  C   UNL     1       0.686   8.207  21.356  0.00  0.00    +0.000 C 
ATOM     22  C   UNL     1       0.943   9.160  22.519  0.00  0.00    +0.000 C 
ENDBRANCH  19  21
ENDBRANCH  17  19
ENDBRANCH  16  17
ENDBRANCH  15  16
ENDBRANCH  14  15
ENDBRANCH   1  14
TORSDOF 7
ENDMDL
MODEL 3
REMARK VINA RESULT:      -7.0      3.393      8.242
REMARK  Name = 
REMARK  10 active torsions:
REMARK  status: ('A' for Active; 'I' for Inactive)
REMARK    1  A    between atoms: C_2  and  C_3
REMARK    2  A    between atoms: C_2  and  C_11
REMARK    3  A    between atoms: C_3  and  O_4
REMARK    4  A    between atoms: O_4  and  C_5
REMARK    5  A    between atoms: C_5  and  C_7
REMARK    6  A    between atoms: C_7  and  C_8
REMARK    7  A    between atoms: C_7  and  C_9
REMARK    8  A    between atoms: C_9  and  C_10
REMARK    9  A    between atoms: C_15  and  C_16
REMARK   10  A    between atoms: C_16  and  C_17
REMARK                            x       y       z     vdW  Elec       q    Type
REMARK                         _______ _______ _______ _____ _____    ______ ____
ROOT
ATOM      1  C   UNL     1       2.489   5.643  19.292  0.00  0.00    +0.000 C 
ATOM      2  C   UNL     1       2.436   4.910  17.932  0.00  0.00    +0.000 C 
ATOM      3  C   UNL     1       3.887   4.895  17.617  0.00  0.00    +0.000 A 
ATOM      4  C   UNL     1       4.526   4.732  16.398  0.00  0.00    +0.000 A 
ATOM      5  C   UNL     1       5.920   4.873  16.355  0.00  0.00    +0.000 A 
ATOM      6  C   UNL     1       6.630   5.152  17.550  0.00  0.00    +0.000 A 
ATOM      7  C   UNL     1       5.971   5.288  18.774  0.00  0.00    +0.000 A 
ATOM      8  C   UNL     1       4.602   5.167  18.774  0.00  0.00    +0.000 A 
ATOM      9  O   UNL     1       3.810   5.423  19.865  0.00  0.00    +0.000 OA
ENDROOT
BRANCH   5  10
ATOM     10  C   UNL     1       6.719   4.769  15.094  0.00  0.00    +0.000 C 
ATOM     11  C   UNL     1       6.270   3.895  13.950  0.00  0.00    +0.000 C 
ATOM     12  O   UNL     1       7.766   5.411  14.992  0.00  0.00    +0.000 OA
ENDBRANCH   5  10
BRANCH   1  14
ATOM     13  C   UNL     1       2.377   7.844  18.097  0.00  0.00    +0.000 C 
ATOM     14  C   UNL     1       2.224   7.145  19.237  0.00  0.00    +0.000 C 
BRANCH  14  15
ATOM     15  C   UNL     1       1.766   7.810  20.527  0.00  0.00    +0.000 C 
BRANCH  15  16
ATOM     16  O   UNL     1       1.235   9.117  20.287  0.00  0.00    +0.000 OA
BRANCH  16  17
ATOM     17  C   UNL     1       0.019   9.330  20.862  0.00  0.00    +0.000 C 
ATOM     18  O   UNL     1      -0.420   8.733  21.840  0.00  0.00    +0.000 OA
BRANCH  17  19
ATOM     19  C   UNL     1      -0.727  10.420  20.127  0.00  0.00    +0.000 C 
ATOM     20  C   UNL     1      -0.506  11.731  20.880  0.00  0.00    +0.000 C 
BRANCH  19  21
ATOM     21  C   UNL     1      -0.249  10.519  18.676  0.00  0.00    +0.000 C 
ATOM     22  C   UNL     1      -1.296  10.050  17.670  0.00  0.00    +0.000 C 
ENDBRANCH  19  21
ENDBRANCH  17  19
ENDBRANCH  16  17
ENDBRANCH  15  16
ENDBRANCH  14  15
ENDBRANCH   1  14
TORSDOF 7
ENDMDL
MODEL 4
REMARK VINA RESULT:      -7.0      3.965      7.015
REMARK  Name = 
REMARK  10 active torsions:
REMARK  status: ('A' for Active; 'I' for Inactive)
REMARK    1  A    between atoms: C_2  and  C_3
REMARK    2  A    between atoms: C_2  and  C_11
REMARK    3  A    between atoms: C_3  and  O_4
REMARK    4  A    between atoms: O_4  and  C_5
REMARK    5  A    between atoms: C_5  and  C_7
REMARK    6  A    between atoms: C_7  and  C_8
REMARK    7  A    between atoms: C_7  and  C_9
REMARK    8  A    between atoms: C_9  and  C_10
REMARK    9  A    between atoms: C_15  and  C_16
REMARK   10  A    between atoms: C_16  and  C_17
REMARK                            x       y       z     vdW  Elec       q    Type
REMARK                         _______ _______ _______ _____ _____    ______ ____
ROOT
ATOM      1  C   UNL     1       6.995   6.271  16.833  0.00  0.00    +0.000 C 
ATOM      2  C   UNL     1       6.752   4.785  17.183  0.00  0.00    +0.000 C 
ATOM      3  C   UNL     1       5.352   4.885  17.669  0.00  0.00    +0.000 A 
ATOM      4  C   UNL     1       4.634   4.019  18.479  0.00  0.00    +0.000 A 
ATOM      5  C   UNL     1       3.350   4.407  18.889  0.00  0.00    +0.000 A 
ATOM      6  C   UNL     1       2.822   5.646  18.450  0.00  0.00    +0.000 A 
ATOM      7  C   UNL     1       3.551   6.494  17.613  0.00  0.00    +0.000 A 
ATOM      8  C   UNL     1       4.815   6.093  17.250  0.00  0.00    +0.000 A 
ATOM      9  O   UNL     1       5.701   6.882  16.562  0.00  0.00    +0.000 OA
ENDROOT
BRANCH   5  10
ATOM     10  C   UNL     1       2.496   3.583  19.802  0.00  0.00    +0.000 C 
ATOM     11  C   UNL     1       1.077   3.983  20.122  0.00  0.00    +0.000 C 
ATOM     12  O   UNL     1       2.965   2.559  20.301  0.00  0.00    +0.000 OA
ENDBRANCH   5  10
BRANCH   1  14
ATOM     13  C   UNL     1       8.159   6.518  19.040  0.00  0.00    +0.000 C 
ATOM     14  C   UNL     1       7.706   7.088  17.908  0.00  0.00    +0.000 C 
BRANCH  14  15
ATOM     15  C   UNL     1       7.890   8.574  17.633  0.00  0.00    +0.000 C 
BRANCH  15  16
ATOM     16  O   UNL     1       8.718   9.195  18.621  0.00  0.00    +0.000 OA
BRANCH  16  17
ATOM     17  C   UNL     1       8.961  10.514  18.385  0.00  0.00    +0.000 C 
ATOM     18  O   UNL     1       8.309  11.234  17.636  0.00  0.00    +0.000 OA
BRANCH  17  19
ATOM     19  C   UNL     1      10.155  10.981  19.186  0.00  0.00    +0.000 C 
ATOM     20  C   UNL     1      11.183  11.550  18.209  0.00  0.00    +0.000 C 
BRANCH  19  21
ATOM     21  C   UNL     1       9.735  12.022  20.228  0.00  0.00    +0.000 C 
ATOM     22  C   UNL     1       9.057  11.405  21.447  0.00  0.00    +0.000 C 
ENDBRANCH  19  21
ENDBRANCH  17  19
ENDBRANCH  16  17
ENDBRANCH  15  16
ENDBRANCH  14  15
ENDBRANCH   1  14
TORSDOF 7
ENDMDL
MODEL 5
REMARK VINA RESULT:      -7.0      1.681      7.053
REMARK  Name = 
REMARK  10 active torsions:
REMARK  status: ('A' for Active; 'I' for Inactive)
REMARK    1  A    between atoms: C_2  and  C_3
REMARK    2  A    between atoms: C_2  and  C_11
REMARK    3  A    between atoms: C_3  and  O_4
REMARK    4  A    between atoms: O_4  and  C_5
REMARK    5  A    between atoms: C_5  and  C_7
REMARK    6  A    between atoms: C_7  and  C_8
REMARK    7  A    between atoms: C_7  and  C_9
REMARK    8  A    between atoms: C_9  and  C_10
REMARK    9  A    between atoms: C_15  and  C_16
REMARK   10  A    between atoms: C_16  and  C_17
REMARK                            x       y       z     vdW  Elec       q    Type
REMARK                         _______ _______ _______ _____ _____    ______ ____
ROOT
ATOM      1  C   UNL     1       4.901   5.046  17.987  0.00  0.00    +0.000 C 
ATOM      2  C   UNL     1       4.505   3.807  17.153  0.00  0.00    +0.000 C 
ATOM      3  C   UNL     1       5.397   4.016  15.985  0.00  0.00    +0.000 A 
ATOM      4  C   UNL     1       5.308   3.502  14.701  0.00  0.00    +0.000 A 
ATOM      5  C   UNL     1       6.227   3.950  13.741  0.00  0.00    +0.000 A 
ATOM      6  C   UNL     1       7.223   4.887  14.114  0.00  0.00    +0.000 A 
ATOM      7  C   UNL     1       7.313   5.375  15.420  0.00  0.00    +0.000 A 
ATOM      8  C   UNL     1       6.381   4.931  16.328  0.00  0.00    +0.000 A 
ATOM      9  O   UNL     1       6.250   5.432  17.599  0.00  0.00    +0.000 OA
ENDROOT
BRANCH   5  10
ATOM     10  C   UNL     1       6.205   3.508  12.311  0.00  0.00    +0.000 C 
ATOM     11  C   UNL     1       4.922   3.093  11.638  0.00  0.00    +0.000 C 
ATOM     12  O   UNL     1       7.260   3.485  11.674  0.00  0.00    +0.000 OA
ENDBRANCH   5  10
BRANCH   1  14
ATOM     13  C   UNL     1       4.341   7.321  17.094  0.00  0.00    +0.000 C 
ATOM     14  C   UNL     1       3.984   6.257  17.837  0.00  0.00    +0.000 C 
BRANCH  14  15
ATOM     15  C   UNL     1       2.643   6.197  18.555  0.00  0.00    +0.000 C 
BRANCH  15  16
ATOM     16  O   UNL     1       2.432   4.924  19.173  0.00  0.00    +0.000 OA
BRANCH  16  17
ATOM     17  C   UNL     1       1.502   4.154  18.541  0.00  0.00    +0.000 C 
ATOM     18  O   UNL     1       1.067   4.348  17.411  0.00  0.00    +0.000 OA
BRANCH  17  19
ATOM     19  C   UNL     1       1.074   3.010  19.432  0.00  0.00    +0.000 C 
ATOM     20  C   UNL     1       1.948   1.802  19.096  0.00  0.00    +0.000 C 
BRANCH  19  21
ATOM     21  C   UNL     1       1.196   3.397  20.908  0.00  0.00    +0.000 C 
ATOM     22  C   UNL     1       2.347   2.690  21.616  0.00  0.00    +0.000 C 
ENDBRANCH  19  21
ENDBRANCH  17  19
ENDBRANCH  16  17
ENDBRANCH  15  16
ENDBRANCH  14  15
ENDBRANCH   1  14
TORSDOF 7
ENDMDL
MODEL 6
REMARK VINA RESULT:      -6.9      2.682      7.726
REMARK  Name = 
REMARK  10 active torsions:
REMARK  status: ('A' for Active; 'I' for Inactive)
REMARK    1  A    between atoms: C_2  and  C_3
REMARK    2  A    between atoms: C_2  and  C_11
REMARK    3  A    between atoms: C_3  and  O_4
REMARK    4  A    between atoms: O_4  and  C_5
REMARK    5  A    between atoms: C_5  and  C_7
REMARK    6  A    between atoms: C_7  and  C_8
REMARK    7  A    between atoms: C_7  and  C_9
REMARK    8  A    between atoms: C_9  and  C_10
REMARK    9  A    between atoms: C_15  and  C_16
REMARK   10  A    between atoms: C_16  and  C_17
REMARK                            x       y       z     vdW  Elec       q    Type
REMARK                         _______ _______ _______ _____ _____    ______ ____
ROOT
ATOM      1  C   UNL     1       3.551   3.851  18.764  0.00  0.00    +0.000 C 
ATOM      2  C   UNL     1       3.677   3.081  17.430  0.00  0.00    +0.000 C 
ATOM      3  C   UNL     1       4.905   3.727  16.902  0.00  0.00    +0.000 A 
ATOM      4  C   UNL     1       5.380   3.793  15.601  0.00  0.00    +0.000 A 
ATOM      5  C   UNL     1       6.521   4.570  15.351  0.00  0.00    +0.000 A 
ATOM      6  C   UNL     1       7.161   5.236  16.425  0.00  0.00    +0.000 A 
ATOM      7  C   UNL     1       6.681   5.137  17.734  0.00  0.00    +0.000 A 
ATOM      8  C   UNL     1       5.548   4.386  17.938  0.00  0.00    +0.000 A 
ATOM      9  O   UNL     1       4.879   4.320  19.134  0.00  0.00    +0.000 OA
ENDROOT
BRANCH   5  10
ATOM     10  C   UNL     1       7.102   4.760  13.984  0.00  0.00    +0.000 C 
ATOM     11  C   UNL     1       6.640   3.932  12.812  0.00  0.00    +0.000 C 
ATOM     12  O   UNL     1       7.976   5.613  13.818  0.00  0.00    +0.000 OA
ENDBRANCH   5  10
BRANCH   1  14
ATOM     13  C   UNL     1       1.542   5.085  17.911  0.00  0.00    +0.000 C 
ATOM     14  C   UNL     1       2.598   5.043  18.744  0.00  0.00    +0.000 C 
BRANCH  14  15
ATOM     15  C   UNL     1       2.892   6.174  19.720  0.00  0.00    +0.000 C 
BRANCH  15  16
ATOM     16  O   UNL     1       2.458   7.438  19.208  0.00  0.00    +0.000 OA
BRANCH  16  17
ATOM     17  C   UNL     1       1.626   8.114  20.049  0.00  0.00    +0.000 C 
ATOM     18  O   UNL     1       1.260   7.725  21.153  0.00  0.00    +0.000 OA
BRANCH  17  19
ATOM     19  C   UNL     1       1.212   9.431  19.432  0.00  0.00    +0.000 C 
ATOM     20  C   UNL     1       1.229   9.264  17.913  0.00  0.00    +0.000 C 
BRANCH  19  21
ATOM     21  C   UNL     1      -0.172   9.853  19.934  0.00  0.00    +0.000 C 
ATOM     22  C   UNL     1      -0.297  11.360  20.137  0.00  0.00    +0.000 C 
ENDBRANCH  19  21
ENDBRANCH  17  19
ENDBRANCH  16  17
ENDBRANCH  15  16
ENDBRANCH  14  15
ENDBRANCH   1  14
TORSDOF 7
ENDMDL
MODEL 7
REMARK VINA RESULT:      -6.9      2.433      4.724
REMARK  Name = 
REMARK  10 active torsions:
REMARK  status: ('A' for Active; 'I' for Inactive)
REMARK    1  A    between atoms: C_2  and  C_3
REMARK    2  A    between atoms: C_2  and  C_11
REMARK    3  A    between atoms: C_3  and  O_4
REMARK    4  A    between atoms: O_4  and  C_5
REMARK    5  A    between atoms: C_5  and  C_7
REMARK    6  A    between atoms: C_7  and  C_8
REMARK    7  A    between atoms: C_7  and  C_9
REMARK    8  A    between atoms: C_9  and  C_10
REMARK    9  A    between atoms: C_15  and  C_16
REMARK   10  A    between atoms: C_16  and  C_17
REMARK                            x       y       z     vdW  Elec       q    Type
REMARK                         _______ _______ _______ _____ _____    ______ ____
ROOT
ATOM      1  C   UNL     1       2.868   3.730  18.853  0.00  0.00    +0.000 C 
ATOM      2  C   UNL     1       1.771   3.938  19.922  0.00  0.00    +0.000 C 
ATOM      3  C   UNL     1       1.739   5.422  19.940  0.00  0.00    +0.000 A 
ATOM      4  C   UNL     1       1.262   6.285  20.915  0.00  0.00    +0.000 A 
ATOM      5  C   UNL     1       1.455   7.662  20.733  0.00  0.00    +0.000 A 
ATOM      6  C   UNL     1       2.104   8.127  19.562  0.00  0.00    +0.000 A 
ATOM      7  C   UNL     1       2.556   7.243  18.579  0.00  0.00    +0.000 A 
ATOM      8  C   UNL     1       2.370   5.899  18.801  0.00  0.00    +0.000 A 
ATOM      9  O   UNL     1       2.891   4.912  18.004  0.00  0.00    +0.000 OA
ENDROOT
BRANCH   5  10
ATOM     10  C   UNL     1       1.031   8.690  21.734  0.00  0.00    +0.000 C 
ATOM     11  C   UNL     1      -0.417   8.862  22.118  0.00  0.00    +0.000 C 
ATOM     12  O   UNL     1       1.885   9.411  22.254  0.00  0.00    +0.000 OA
ENDBRANCH   5  10
BRANCH   1  14
ATOM     13  C   UNL     1       4.587   2.365  20.065  0.00  0.00    +0.000 C 
ATOM     14  C   UNL     1       4.274   3.491  19.397  0.00  0.00    +0.000 C 
BRANCH  14  15
ATOM     15  C   UNL     1       5.306   4.579  19.135  0.00  0.00    +0.000 C 
BRANCH  15  16
ATOM     16  O   UNL     1       6.360   4.112  18.286  0.00  0.00    +0.000 OA
BRANCH  16  17
ATOM     17  C   UNL     1       6.761   5.024  17.357  0.00  0.00    +0.000 C 
ATOM     18  O   UNL     1       7.665   5.840  17.506  0.00  0.00    +0.000 OA
BRANCH  17  19
ATOM     19  C   UNL     1       5.935   4.891  16.098  0.00  0.00    +0.000 C 
ATOM     20  C   UNL     1       5.187   6.206  15.886  0.00  0.00    +0.000 C 
BRANCH  19  21
ATOM     21  C   UNL     1       6.826   4.552  14.900  0.00  0.00    +0.000 C 
ATOM     22  C   UNL     1       6.057   3.914  13.748  0.00  0.00    +0.000 C 
ENDBRANCH  19  21
ENDBRANCH  17  19
ENDBRANCH  16  17
ENDBRANCH  15  16
ENDBRANCH  14  15
ENDBRANCH   1  14
TORSDOF 7
ENDMDL
MODEL 8
REMARK VINA RESULT:      -6.8      3.498      8.668
REMARK  Name = 
REMARK  10 active torsions:
REMARK  status: ('A' for Active; 'I' for Inactive)
REMARK    1  A    between atoms: C_2  and  C_3
REMARK    2  A    between atoms: C_2  and  C_11
REMARK    3  A    between atoms: C_3  and  O_4
REMARK    4  A    between atoms: O_4  and  C_5
REMARK    5  A    between atoms: C_5  and  C_7
REMARK    6  A    between atoms: C_7  and  C_8
REMARK    7  A    between atoms: C_7  and  C_9
REMARK    8  A    between atoms: C_9  and  C_10
REMARK    9  A    between atoms: C_15  and  C_16
REMARK   10  A    between atoms: C_16  and  C_17
REMARK                            x       y       z     vdW  Elec       q    Type
REMARK                         _______ _______ _______ _____ _____    ______ ____
ROOT
ATOM      1  C   UNL     1       2.736   5.493  19.274  0.00  0.00    +0.000 C 
ATOM      2  C   UNL     1       2.638   4.776  17.908  0.00  0.00    +0.000 C 
ATOM      3  C   UNL     1       4.071   4.808  17.524  0.00  0.00    +0.000 A 
ATOM      4  C   UNL     1       4.654   4.679  16.273  0.00  0.00    +0.000 A 
ATOM      5  C   UNL     1       6.041   4.862  16.165  0.00  0.00    +0.000 A 
ATOM      6  C   UNL     1       6.799   5.146  17.328  0.00  0.00    +0.000 A 
ATOM      7  C   UNL     1       6.197   5.248  18.584  0.00  0.00    +0.000 A 
ATOM      8  C   UNL     1       4.833   5.086  18.649  0.00  0.00    +0.000 A 
ATOM      9  O   UNL     1       4.088   5.305  19.779  0.00  0.00    +0.000 OA
ENDROOT
BRANCH   5  10
ATOM     10  C   UNL     1       6.780   4.796  14.865  0.00  0.00    +0.000 C 
ATOM     11  C   UNL     1       6.292   3.937  13.727  0.00  0.00    +0.000 C 
ATOM     12  O   UNL     1       7.809   5.460  14.727  0.00  0.00    +0.000 OA
ENDBRANCH   5  10
BRANCH   1  14
ATOM     13  C   UNL     1       2.578   7.721  18.135  0.00  0.00    +0.000 C 
ATOM     14  C   UNL     1       2.425   6.987  19.253  0.00  0.00    +0.000 C 
BRANCH  14  15
ATOM     15  C   UNL     1       1.921   7.603  20.550  0.00  0.00    +0.000 C 
BRANCH  15  16
ATOM     16  O   UNL     1       1.147   8.783  20.308  0.00  0.00    +0.000 OA
BRANCH  16  17
ATOM     17  C   UNL     1       1.033   9.598  21.394  0.00  0.00    +0.000 C 
ATOM     18  O   UNL     1       1.572   9.415  22.481  0.00  0.00    +0.000 OA
BRANCH  17  19
ATOM     19  C   UNL     1       0.144  10.778  21.074  0.00  0.00    +0.000 C 
ATOM     20  C   UNL     1      -0.644  10.444  19.809  0.00  0.00    +0.000 C 
BRANCH  19  21
ATOM     21  C   UNL     1      -0.787  11.088  22.250  0.00  0.00    +0.000 C 
ATOM     22  C   UNL     1      -1.812  12.172  21.928  0.00  0.00    +0.000 C 
ENDBRANCH  19  21
ENDBRANCH  17  19
ENDBRANCH  16  17
ENDBRANCH  15  16
ENDBRANCH  14  15
ENDBRANCH   1  14
TORSDOF 7
ENDMDL
MODEL 9
REMARK VINA RESULT:      -6.8      2.414      6.967
REMARK  Name = 
REMARK  10 active torsions:
REMARK  status: ('A' for Active; 'I' for Inactive)
REMARK    1  A    between atoms: C_2  and  C_3
REMARK    2  A    between atoms: C_2  and  C_11
REMARK    3  A    between atoms: C_3  and  O_4
REMARK    4  A    between atoms: O_4  and  C_5
REMARK    5  A    between atoms: C_5  and  C_7
REMARK    6  A    between atoms: C_7  and  C_8
REMARK    7  A    between atoms: C_7  and  C_9
REMARK    8  A    between atoms: C_9  and  C_10
REMARK    9  A    between atoms: C_15  and  C_16
REMARK   10  A    between atoms: C_16  and  C_17
REMARK                            x       y       z     vdW  Elec       q    Type
REMARK                         _______ _______ _______ _____ _____    ______ ____
ROOT
ATOM      1  C   UNL     1       3.343   2.591  20.011  0.00  0.00    +0.000 C 
ATOM      2  C   UNL     1       3.370   2.208  18.514  0.00  0.00    +0.000 C 
ATOM      3  C   UNL     1       4.322   3.237  18.026  0.00  0.00    +0.000 A 
ATOM      4  C   UNL     1       4.522   3.718  16.741  0.00  0.00    +0.000 A 
ATOM      5  C   UNL     1       5.415   4.785  16.564  0.00  0.00    +0.000 A 
ATOM      6  C   UNL     1       6.096   5.318  17.687  0.00  0.00    +0.000 A 
ATOM      7  C   UNL     1       5.900   4.803  18.971  0.00  0.00    +0.000 A 
ATOM      8  C   UNL     1       5.000   3.773  19.110  0.00  0.00    +0.000 A 
ATOM      9  O   UNL     1       4.594   3.269  20.320  0.00  0.00    +0.000 OA
ENDROOT
BRANCH   5  10
ATOM     10  C   UNL     1       5.680   5.424  15.237  0.00  0.00    +0.000 C 
ATOM     11  C   UNL     1       6.259   4.637  14.089  0.00  0.00    +0.000 C 
ATOM     12  O   UNL     1       5.418   6.619  15.083  0.00  0.00    +0.000 OA
ENDBRANCH   5  10
BRANCH   1  14
ATOM     13  C   UNL     1       0.935   3.001  20.577  0.00  0.00    +0.000 C 
ATOM     14  C   UNL     1       2.183   3.487  20.437  0.00  0.00    +0.000 C 
BRANCH  14  15
ATOM     15  C   UNL     1       2.506   4.949  20.707  0.00  0.00    +0.000 C 
BRANCH  15  16
ATOM     16  O   UNL     1       2.177   5.778  19.588  0.00  0.00    +0.000 OA
BRANCH  16  17
ATOM     17  C   UNL     1       1.971   7.084  19.913  0.00  0.00    +0.000 C 
ATOM     18  O   UNL     1       1.453   7.486  20.950  0.00  0.00    +0.000 OA
BRANCH  17  19
ATOM     19  C   UNL     1       2.477   7.987  18.811  0.00  0.00    +0.000 C 
ATOM     20  C   UNL     1       2.899   7.104  17.637  0.00  0.00    +0.000 C 
BRANCH  19  21
ATOM     21  C   UNL     1       1.400   8.993  18.397  0.00  0.00    +0.000 C 
ATOM     22  C   UNL     1       1.974  10.346  17.986  0.00  0.00    +0.000 C 
ENDBRANCH  19  21
ENDBRANCH  17  19
ENDBRANCH  16  17
ENDBRANCH  15  16
ENDBRANCH  14  15
ENDBRANCH   1  14
TORSDOF 7
ENDMDL
