MODEL 1
REMARK VINA RESULT:      -9.6      0.000      0.000
REMARK  Name = 
REMARK  8 active torsions:
REMARK  status: ('A' for Active; 'I' for Inactive)
REMARK    1  A    between atoms: C_1  and  O_2
REMARK    2  A    between atoms: O_2  and  C_3
REMARK    3  A    between atoms: C_3  and  C_5
REMARK    4  A    between atoms: C_10  and  N_11
REMARK    5  A    between atoms: C_12  and  C_14
REMARK    6  A    between atoms: C_14  and  S_15
REMARK    7  A    between atoms: S_15  and  C_18
REMARK    8  A    between atoms: N_22  and  C_23
REMARK                            x       y       z     vdW  Elec       q    Type
REMARK                         _______ _______ _______ _____ _____    ______ ____
ROOT
ATOM      1  S   UNL     1       1.593   3.068  18.314  0.00  0.00    +0.000 S 
ATOM      2  O   UNL     1       1.699   4.210  17.422  0.00  0.00    +0.000 OA
ATOM      3  O   UNL     1       0.395   2.261  18.363  0.00  0.00    +0.000 OA
ENDROOT
BRANCH   1   4
ATOM      4  C   UNL     1       1.835   3.724  19.911  0.00  0.00    +0.000 A 
ATOM      5  N   UNL     1       1.687   2.973  20.993  0.00  0.00    +0.000 NA
ATOM      6  N   UNL     1       2.128   3.714  22.041  0.00  0.00    +0.000 NA
ATOM      7  N   UNL     1       2.506   4.912  21.640  0.00  0.00    +0.000 NA
ATOM      8  N   UNL     1       2.291   4.972  20.296  0.00  0.00    +0.000 N 
BRANCH   8   9
ATOM      9  C   UNL     1       2.373   6.234  19.635  0.00  0.00    +0.000 A 
ATOM     10  C   UNL     1       3.076   6.321  18.422  0.00  0.00    +0.000 A 
ATOM     11  C   UNL     1       3.076   7.497  17.681  0.00  0.00    +0.000 A 
ATOM     12  C   UNL     1       2.314   8.580  18.102  0.00  0.00    +0.000 A 
ATOM     13  C   UNL     1       1.555   8.512  19.277  0.00  0.00    +0.000 A 
ATOM     14  C   UNL     1       0.721   9.592  19.614  0.00  0.00    +0.000 A 
ATOM     15  C   UNL     1      -0.037   9.579  20.782  0.00  0.00    +0.000 A 
ATOM     16  C   UNL     1       0.090   8.520  21.664  0.00  0.00    +0.000 A 
ATOM     17  C   UNL     1       0.919   7.443  21.342  0.00  0.00    +0.000 A 
ATOM     18  C   UNL     1       1.615   7.360  20.104  0.00  0.00    +0.000 A 
ENDBRANCH   8   9
ENDBRANCH   1   4
BRANCH   1  19
ATOM     19  C   UNL     1       3.027   2.059  18.084  0.00  0.00    +0.000 C 
BRANCH  19  21
ATOM     20  N   UNL     1       4.673   3.802  17.674  0.00  0.00    +0.000 N 
ATOM     21  C   UNL     1       4.242   2.804  18.535  0.00  0.00    +0.000 C 
ATOM     22  O   UNL     1       4.699   2.562  19.650  0.00  0.00    +0.000 OA
ATOM     23  H   UNL     1       4.167   3.928  16.795  0.00  0.00    +0.000 HD
BRANCH  20  29
ATOM     24  C   UNL     1       6.141   5.606  16.839  0.00  0.00    +0.000 A 
ATOM     25  C   UNL     1       7.192   6.518  17.079  0.00  0.00    +0.000 A 
ATOM     26  C   UNL     1       7.861   6.548  18.301  0.00  0.00    +0.000 A 
ATOM     27  C   UNL     1       7.496   5.657  19.297  0.00  0.00    +0.000 A 
ATOM     28  C   UNL     1       6.454   4.750  19.079  0.00  0.00    +0.000 A 
ATOM     29  C   UNL     1       5.748   4.713  17.865  0.00  0.00    +0.000 A 
BRANCH  24  30
ATOM     30  C   UNL     1       5.527   5.721  15.480  0.00  0.00    +0.000 C 
ATOM     31  O   UNL     1       5.221   6.794  14.980  0.00  0.00    +0.000 OA
BRANCH  30  33
ATOM     32  C   UNL     1       6.464   4.060  14.147  0.00  0.00    +0.000 C 
ATOM     33  O   UNL     1       5.326   4.514  14.890  0.00  0.00    +0.000 OA
ENDBRANCH  30  33
ENDBRANCH  24  30
ENDBRANCH  20  29
ENDBRANCH  19  21
ENDBRANCH   1  19
TORSDOF 7
ENDMDL
MODEL 2
REMARK VINA RESULT:      -9.1      2.746      6.956
REMARK  Name = 
REMARK  8 active torsions:
REMARK  status: ('A' for Active; 'I' for Inactive)
REMARK    1  A    between atoms: C_1  and  O_2
REMARK    2  A    between atoms: O_2  and  C_3
REMARK    3  A    between atoms: C_3  and  C_5
REMARK    4  A    between atoms: C_10  and  N_11
REMARK    5  A    between atoms: C_12  and  C_14
REMARK    6  A    between atoms: C_14  and  S_15
REMARK    7  A    between atoms: S_15  and  C_18
REMARK    8  A    between atoms: N_22  and  C_23
REMARK                            x       y       z     vdW  Elec       q    Type
REMARK                         _______ _______ _______ _____ _____    ______ ____
ROOT
ATOM      1  S   UNL     1       2.084   5.197  19.338  0.00  0.00    +0.000 S 
ATOM      2  O   UNL     1       1.208   5.189  20.496  0.00  0.00    +0.000 OA
ATOM      3  O   UNL     1       1.571   4.963  18.006  0.00  0.00    +0.000 OA
ENDROOT
BRANCH   1   4
ATOM      4  C   UNL     1       3.262   3.952  19.659  0.00  0.00    +0.000 A 
ATOM      5  N   UNL     1       3.178   3.186  20.736  0.00  0.00    +0.000 NA
ATOM      6  N   UNL     1       4.112   2.212  20.592  0.00  0.00    +0.000 NA
ATOM      7  N   UNL     1       4.793   2.379  19.476  0.00  0.00    +0.000 NA
ATOM      8  N   UNL     1       4.312   3.504  18.876  0.00  0.00    +0.000 N 
BRANCH   8   9
ATOM      9  C   UNL     1       5.030   4.068  17.780  0.00  0.00    +0.000 A 
ATOM     10  C   UNL     1       4.571   3.831  16.474  0.00  0.00    +0.000 A 
ATOM     11  C   UNL     1       5.163   4.463  15.385  0.00  0.00    +0.000 A 
ATOM     12  C   UNL     1       6.172   5.395  15.591  0.00  0.00    +0.000 A 
ATOM     13  C   UNL     1       6.617   5.700  16.883  0.00  0.00    +0.000 A 
ATOM     14  C   UNL     1       7.567   6.721  17.054  0.00  0.00    +0.000 A 
ATOM     15  C   UNL     1       8.056   7.047  18.317  0.00  0.00    +0.000 A 
ATOM     16  C   UNL     1       7.656   6.302  19.413  0.00  0.00    +0.000 A 
ATOM     17  C   UNL     1       6.714   5.283  19.255  0.00  0.00    +0.000 A 
ATOM     18  C   UNL     1       6.100   4.999  18.004  0.00  0.00    +0.000 A 
ENDBRANCH   8   9
ENDBRANCH   1   4
BRANCH   1  19
ATOM     19  C   UNL     1       3.052   6.675  19.393  0.00  0.00    +0.000 C 
BRANCH  19  21
ATOM     20  N   UNL     1       1.307   8.359  19.580  0.00  0.00    +0.000 N 
ATOM     21  C   UNL     1       2.287   7.800  18.773  0.00  0.00    +0.000 C 
ATOM     22  O   UNL     1       2.637   8.210  17.669  0.00  0.00    +0.000 OA
ATOM     23  H   UNL     1       1.152   7.947  20.502  0.00  0.00    +0.000 HD
BRANCH  20  29
ATOM     24  C   UNL     1       0.178  10.442  20.282  0.00  0.00    +0.000 A 
ATOM     25  C   UNL     1      -0.627  11.553  19.948  0.00  0.00    +0.000 A 
ATOM     26  C   UNL     1      -1.148  11.711  18.666  0.00  0.00    +0.000 A 
ATOM     27  C   UNL     1      -0.883  10.752  17.702  0.00  0.00    +0.000 A 
ATOM     28  C   UNL     1      -0.083   9.647  18.014  0.00  0.00    +0.000 A 
ATOM     29  C   UNL     1       0.474   9.474  19.291  0.00  0.00    +0.000 A 
BRANCH  24  30
ATOM     30  C   UNL     1       0.663  10.439  21.697  0.00  0.00    +0.000 C 
ATOM     31  O   UNL     1       1.641   9.803  22.060  0.00  0.00    +0.000 OA
BRANCH  30  33
ATOM     32  C   UNL     1      -1.029  10.405  23.295  0.00  0.00    +0.000 C 
ATOM     33  O   UNL     1      -0.114  11.191  22.520  0.00  0.00    +0.000 OA
ENDBRANCH  30  33
ENDBRANCH  24  30
ENDBRANCH  20  29
ENDBRANCH  19  21
ENDBRANCH   1  19
TORSDOF 7
ENDMDL
MODEL 3
REMARK VINA RESULT:      -8.9      4.584      8.610
REMARK  Name = 
REMARK  8 active torsions:
REMARK  status: ('A' for Active; 'I' for Inactive)
REMARK    1  A    between atoms: C_1  and  O_2
REMARK    2  A    between atoms: O_2  and  C_3
REMARK    3  A    between atoms: C_3  and  C_5
REMARK    4  A    between atoms: C_10  and  N_11
REMARK    5  A    between atoms: C_12  and  C_14
REMARK    6  A    between atoms: C_14  and  S_15
REMARK    7  A    between atoms: S_15  and  C_18
REMARK    8  A    between atoms: N_22  and  C_23
REMARK                            x       y       z     vdW  Elec       q    Type
REMARK                         _______ _______ _______ _____ _____    ______ ____
ROOT
ATOM      1  S   UNL     1       1.183   9.956  18.282  0.00  0.00    +0.000 S 
ATOM      2  O   UNL     1      -0.081   9.562  17.685  0.00  0.00    +0.000 OA
ATOM      3  O   UNL     1       2.391  10.048  17.493  0.00  0.00    +0.000 OA
ENDROOT
BRANCH   1   4
ATOM      4  C   UNL     1       1.475   8.774  19.530  0.00  0.00    +0.000 A 
ATOM      5  N   UNL     1       1.092   8.984  20.781  0.00  0.00    +0.000 NA
ATOM      6  N   UNL     1       1.287   7.817  21.446  0.00  0.00    +0.000 NA
ATOM      7  N   UNL     1       1.815   6.908  20.651  0.00  0.00    +0.000 NA
ATOM      8  N   UNL     1       1.993   7.494  19.433  0.00  0.00    +0.000 N 
BRANCH   8   9
ATOM      9  C   UNL     1       2.778   6.824  18.448  0.00  0.00    +0.000 A 
ATOM     10  C   UNL     1       3.877   7.494  17.887  0.00  0.00    +0.000 A 
ATOM     11  C   UNL     1       4.744   6.838  17.018  0.00  0.00    +0.000 A 
ATOM     12  C   UNL     1       4.569   5.486  16.757  0.00  0.00    +0.000 A 
ATOM     13  C   UNL     1       3.518   4.770  17.344  0.00  0.00    +0.000 A 
ATOM     14  C   UNL     1       3.436   3.382  17.134  0.00  0.00    +0.000 A 
ATOM     15  C   UNL     1       2.398   2.631  17.680  0.00  0.00    +0.000 A 
ATOM     16  C   UNL     1       1.388   3.272  18.376  0.00  0.00    +0.000 A 
ATOM     17  C   UNL     1       1.457   4.651  18.589  0.00  0.00    +0.000 A 
ATOM     18  C   UNL     1       2.561   5.435  18.155  0.00  0.00    +0.000 A 
ENDBRANCH   8   9
ENDBRANCH   1   4
BRANCH   1  19
ATOM     19  C   UNL     1       0.914  11.440  19.204  0.00  0.00    +0.000 C 
BRANCH  19  21
ATOM     20  N   UNL     1      -1.497  11.543  19.501  0.00  0.00    +0.000 N 
ATOM     21  C   UNL     1      -0.399  12.041  18.816  0.00  0.00    +0.000 C 
ATOM     22  O   UNL     1      -0.404  12.978  18.022  0.00  0.00    +0.000 OA
ATOM     23  H   UNL     1      -1.342  10.791  20.175  0.00  0.00    +0.000 HD
BRANCH  20  29
ATOM     24  C   UNL     1      -3.683  11.505  18.348  0.00  0.00    +0.000 A 
ATOM     25  C   UNL     1      -5.032  11.921  18.298  0.00  0.00    +0.000 A 
ATOM     26  C   UNL     1      -5.558  12.786  19.254  0.00  0.00    +0.000 A 
ATOM     27  C   UNL     1      -4.740  13.259  20.267  0.00  0.00    +0.000 A 
ATOM     28  C   UNL     1      -3.403  12.854  20.334  0.00  0.00    +0.000 A 
ATOM     29  C   UNL     1      -2.851  11.965  19.398  0.00  0.00    +0.000 A 
BRANCH  24  30
ATOM     30  C   UNL     1      -3.290  10.565  17.252  0.00  0.00    +0.000 C 
ATOM     31  O   UNL     1      -3.244   9.353  17.404  0.00  0.00    +0.000 OA
BRANCH  30  33
ATOM     32  C   UNL     1      -3.032  10.356  14.949  0.00  0.00    +0.000 C 
ATOM     33  O   UNL     1      -2.968  11.207  16.099  0.00  0.00    +0.000 OA
ENDBRANCH  30  33
ENDBRANCH  24  30
ENDBRANCH  20  29
ENDBRANCH  19  21
ENDBRANCH   1  19
TORSDOF 7
ENDMDL
MODEL 4
REMARK VINA RESULT:      -8.9      2.481      6.732
REMARK  Name = 
REMARK  8 active torsions:
REMARK  status: ('A' for Active; 'I' for Inactive)
REMARK    1  A    between atoms: C_1  and  O_2
REMARK    2  A    between atoms: O_2  and  C_3
REMARK    3  A    between atoms: C_3  and  C_5
REMARK    4  A    between atoms: C_10  and  N_11
REMARK    5  A    between atoms: C_12  and  C_14
REMARK    6  A    between atoms: C_14  and  S_15
REMARK    7  A    between atoms: S_15  and  C_18
REMARK    8  A    between atoms: N_22  and  C_23
REMARK                            x       y       z     vdW  Elec       q    Type
REMARK                         _______ _______ _______ _____ _____    ______ ____
ROOT
ATOM      1  S   UNL     1       2.066   4.749  18.799  0.00  0.00    +0.000 S 
ATOM      2  O   UNL     1       0.927   4.582  19.685  0.00  0.00    +0.000 OA
ATOM      3  O   UNL     1       1.976   4.431  17.392  0.00  0.00    +0.000 OA
ENDROOT
BRANCH   1   4
ATOM      4  C   UNL     1       3.311   3.732  19.475  0.00  0.00    +0.000 A 
ATOM      5  N   UNL     1       3.021   2.770  20.339  0.00  0.00    +0.000 NA
ATOM      6  N   UNL     1       4.160   2.053  20.516  0.00  0.00    +0.000 NA
ATOM      7  N   UNL     1       5.151   2.569  19.817  0.00  0.00    +0.000 NA
ATOM      8  N   UNL     1       4.661   3.667  19.175  0.00  0.00    +0.000 N 
BRANCH   8   9
ATOM      9  C   UNL     1       5.571   4.568  18.546  0.00  0.00    +0.000 A 
ATOM     10  C   UNL     1       6.401   5.366  19.351  0.00  0.00    +0.000 A 
ATOM     11  C   UNL     1       7.389   6.164  18.784  0.00  0.00    +0.000 A 
ATOM     12  C   UNL     1       7.611   6.121  17.414  0.00  0.00    +0.000 A 
ATOM     13  C   UNL     1       6.841   5.295  16.586  0.00  0.00    +0.000 A 
ATOM     14  C   UNL     1       7.164   5.205  15.221  0.00  0.00    +0.000 A 
ATOM     15  C   UNL     1       6.416   4.413  14.354  0.00  0.00    +0.000 A 
ATOM     16  C   UNL     1       5.289   3.763  14.828  0.00  0.00    +0.000 A 
ATOM     17  C   UNL     1       4.956   3.848  16.182  0.00  0.00    +0.000 A 
ATOM     18  C   UNL     1       5.762   4.546  17.123  0.00  0.00    +0.000 A 
ENDBRANCH   8   9
ENDBRANCH   1   4
BRANCH   1  19
ATOM     19  C   UNL     1       2.715   6.375  19.042  0.00  0.00    +0.000 C 
BRANCH  19  21
ATOM     20  N   UNL     1       1.575   8.327  19.939  0.00  0.00    +0.000 N 
ATOM     21  C   UNL     1       2.008   7.032  20.184  0.00  0.00    +0.000 C 
ATOM     22  O   UNL     1       1.771   6.368  21.190  0.00  0.00    +0.000 OA
ATOM     23  H   UNL     1       1.800   8.745  19.034  0.00  0.00    +0.000 HD
BRANCH  20  29
ATOM     24  C   UNL     1       0.232  10.366  20.323  0.00  0.00    +0.000 A 
ATOM     25  C   UNL     1      -0.536  11.161  21.202  0.00  0.00    +0.000 A 
ATOM     26  C   UNL     1      -0.713  10.800  22.536  0.00  0.00    +0.000 A 
ATOM     27  C   UNL     1      -0.115   9.646  23.013  0.00  0.00    +0.000 A 
ATOM     28  C   UNL     1       0.645   8.844  22.156  0.00  0.00    +0.000 A 
ATOM     29  C   UNL     1       0.823   9.171  20.801  0.00  0.00    +0.000 A 
BRANCH  24  30
ATOM     30  C   UNL     1       0.306  10.894  18.925  0.00  0.00    +0.000 C 
ATOM     31  O   UNL     1       0.623  12.046  18.669  0.00  0.00    +0.000 OA
BRANCH  30  33
ATOM     32  C   UNL     1      -1.433  10.011  17.657  0.00  0.00    +0.000 C 
ATOM     33  O   UNL     1      -0.042   9.967  17.995  0.00  0.00    +0.000 OA
ENDBRANCH  30  33
ENDBRANCH  24  30
ENDBRANCH  20  29
ENDBRANCH  19  21
ENDBRANCH   1  19
TORSDOF 7
ENDMDL
MODEL 5
REMARK VINA RESULT:      -8.8      2.550      7.047
REMARK  Name = 
REMARK  8 active torsions:
REMARK  status: ('A' for Active; 'I' for Inactive)
REMARK    1  A    between atoms: C_1  and  O_2
REMARK    2  A    between atoms: O_2  and  C_3
REMARK    3  A    between atoms: C_3  and  C_5
REMARK    4  A    between atoms: C_10  and  N_11
REMARK    5  A    between atoms: C_12  and  C_14
REMARK    6  A    between atoms: C_14  and  S_15
REMARK    7  A    between atoms: S_15  and  C_18
REMARK    8  A    between atoms: N_22  and  C_23
REMARK                            x       y       z     vdW  Elec       q    Type
REMARK                         _______ _______ _______ _____ _____    ______ ____
ROOT
ATOM      1  S   UNL     1       2.175   5.224  19.151  0.00  0.00    +0.000 S 
ATOM      2  O   UNL     1       1.310   5.425  20.300  0.00  0.00    +0.000 OA
ATOM      3  O   UNL     1       1.646   4.772  17.883  0.00  0.00    +0.000 OA
ENDROOT
BRANCH   1   4
ATOM      4  C   UNL     1       3.342   4.038  19.671  0.00  0.00    +0.000 A 
ATOM      5  N   UNL     1       3.010   3.064  20.505  0.00  0.00    +0.000 NA
ATOM      6  N   UNL     1       4.070   2.218  20.553  0.00  0.00    +0.000 NA
ATOM      7  N   UNL     1       5.059   2.663  19.804  0.00  0.00    +0.000 NA
ATOM      8  N   UNL     1       4.650   3.845  19.261  0.00  0.00    +0.000 N 
BRANCH   8   9
ATOM      9  C   UNL     1       5.608   4.677  18.607  0.00  0.00    +0.000 A 
ATOM     10  C   UNL     1       6.523   5.401  19.389  0.00  0.00    +0.000 A 
ATOM     11  C   UNL     1       7.551   6.125  18.795  0.00  0.00    +0.000 A 
ATOM     12  C   UNL     1       7.726   6.075  17.418  0.00  0.00    +0.000 A 
ATOM     13  C   UNL     1       6.869   5.317  16.611  0.00  0.00    +0.000 A 
ATOM     14  C   UNL     1       7.141   5.212  15.236  0.00  0.00    +0.000 A 
ATOM     15  C   UNL     1       6.306   4.488  14.390  0.00  0.00    +0.000 A 
ATOM     16  C   UNL     1       5.147   3.924  14.896  0.00  0.00    +0.000 A 
ATOM     17  C   UNL     1       4.865   4.024  16.260  0.00  0.00    +0.000 A 
ATOM     18  C   UNL     1       5.752   4.650  17.179  0.00  0.00    +0.000 A 
ENDBRANCH   8   9
ENDBRANCH   1   4
BRANCH   1  19
ATOM     19  C   UNL     1       3.159   6.678  18.945  0.00  0.00    +0.000 C 
BRANCH  19  21
ATOM     20  N   UNL     1       1.723   8.493  19.692  0.00  0.00    +0.000 N 
ATOM     21  C   UNL     1       2.278   7.836  18.604  0.00  0.00    +0.000 C 
ATOM     22  O   UNL     1       2.192   8.184  17.428  0.00  0.00    +0.000 OA
ATOM     23  H   UNL     1       1.917   8.123  20.626  0.00  0.00    +0.000 HD
BRANCH  20  29
ATOM     24  C   UNL     1       0.009   9.930  20.744  0.00  0.00    +0.000 A 
ATOM     25  C   UNL     1      -0.759  11.114  20.715  0.00  0.00    +0.000 A 
ATOM     26  C   UNL     1      -0.663  12.015  19.657  0.00  0.00    +0.000 A 
ATOM     27  C   UNL     1       0.195  11.737  18.605  0.00  0.00    +0.000 A 
ATOM     28  C   UNL     1       0.968  10.572  18.619  0.00  0.00    +0.000 A 
ATOM     29  C   UNL     1       0.908   9.658  19.684  0.00  0.00    +0.000 A 
BRANCH  24  30
ATOM     30  C   UNL     1      -0.209   9.087  21.961  0.00  0.00    +0.000 C 
ATOM     31  O   UNL     1      -0.830   8.035  21.934  0.00  0.00    +0.000 OA
BRANCH  30  33
ATOM     32  C   UNL     1       1.720   9.324  23.240  0.00  0.00    +0.000 C 
ATOM     33  O   UNL     1       0.330   9.633  23.082  0.00  0.00    +0.000 OA
ENDBRANCH  30  33
ENDBRANCH  24  30
ENDBRANCH  20  29
ENDBRANCH  19  21
ENDBRANCH   1  19
TORSDOF 7
ENDMDL
MODEL 6
REMARK VINA RESULT:      -8.7      5.104      9.313
REMARK  Name = 
REMARK  8 active torsions:
REMARK  status: ('A' for Active; 'I' for Inactive)
REMARK    1  A    between atoms: C_1  and  O_2
REMARK    2  A    between atoms: O_2  and  C_3
REMARK    3  A    between atoms: C_3  and  C_5
REMARK    4  A    between atoms: C_10  and  N_11
REMARK    5  A    between atoms: C_12  and  C_14
REMARK    6  A    between atoms: C_14  and  S_15
REMARK    7  A    between atoms: S_15  and  C_18
REMARK    8  A    between atoms: N_22  and  C_23
REMARK                            x       y       z     vdW  Elec       q    Type
REMARK                         _______ _______ _______ _____ _____    ______ ____
ROOT
ATOM      1  S   UNL     1       0.983   9.941  18.246  0.00  0.00    +0.000 S 
ATOM      2  O   UNL     1      -0.214   9.412  17.615  0.00  0.00    +0.000 OA
ATOM      3  O   UNL     1       2.202  10.142  17.496  0.00  0.00    +0.000 OA
ENDROOT
BRANCH   1   4
ATOM      4  C   UNL     1       1.349   8.814  19.525  0.00  0.00    +0.000 A 
ATOM      5  N   UNL     1       0.983   9.050  20.776  0.00  0.00    +0.000 NA
ATOM      6  N   UNL     1       1.240   7.915  21.475  0.00  0.00    +0.000 NA
ATOM      7  N   UNL     1       1.788   7.002  20.698  0.00  0.00    +0.000 NA
ATOM      8  N   UNL     1       1.917   7.553  19.459  0.00  0.00    +0.000 N 
BRANCH   8   9
ATOM      9  C   UNL     1       2.709   6.884  18.479  0.00  0.00    +0.000 A 
ATOM     10  C   UNL     1       3.799   7.561  17.909  0.00  0.00    +0.000 A 
ATOM     11  C   UNL     1       4.672   6.908  17.046  0.00  0.00    +0.000 A 
ATOM     12  C   UNL     1       4.513   5.550  16.798  0.00  0.00    +0.000 A 
ATOM     13  C   UNL     1       3.471   4.828  17.393  0.00  0.00    +0.000 A 
ATOM     14  C   UNL     1       3.405   3.438  17.197  0.00  0.00    +0.000 A 
ATOM     15  C   UNL     1       2.377   2.680  17.751  0.00  0.00    +0.000 A 
ATOM     16  C   UNL     1       1.360   3.315  18.443  0.00  0.00    +0.000 A 
ATOM     17  C   UNL     1       1.413   4.697  18.643  0.00  0.00    +0.000 A 
ATOM     18  C   UNL     1       2.508   5.490  18.199  0.00  0.00    +0.000 A 
ENDBRANCH   8   9
ENDBRANCH   1   4
BRANCH   1  19
ATOM     19  C   UNL     1       0.534  11.405  19.130  0.00  0.00    +0.000 C 
BRANCH  19  21
ATOM     20  N   UNL     1      -1.890  11.327  18.957  0.00  0.00    +0.000 N 
ATOM     21  C   UNL     1      -0.727  11.969  18.560  0.00  0.00    +0.000 C 
ATOM     22  O   UNL     1      -0.660  12.994  17.886  0.00  0.00    +0.000 OA
ATOM     23  H   UNL     1      -1.804  10.509  19.563  0.00  0.00    +0.000 HD
BRANCH  20  29
ATOM     24  C   UNL     1      -4.076  12.288  19.593  0.00  0.00    +0.000 A 
ATOM     25  C   UNL     1      -5.391  12.650  19.226  0.00  0.00    +0.000 A 
ATOM     26  C   UNL     1      -5.879  12.406  17.945  0.00  0.00    +0.000 A 
ATOM     27  C   UNL     1      -5.063  11.784  17.015  0.00  0.00    +0.000 A 
ATOM     28  C   UNL     1      -3.756  11.422  17.358  0.00  0.00    +0.000 A 
ATOM     29  C   UNL     1      -3.231  11.677  18.636  0.00  0.00    +0.000 A 
BRANCH  24  30
ATOM     30  C   UNL     1      -3.714  12.637  21.002  0.00  0.00    +0.000 C 
ATOM     31  O   UNL     1      -2.620  13.083  21.314  0.00  0.00    +0.000 OA
BRANCH  30  33
ATOM     32  C   UNL     1      -4.854  13.388  22.887  0.00  0.00    +0.000 C 
ATOM     33  O   UNL     1      -4.717  12.377  21.882  0.00  0.00    +0.000 OA
ENDBRANCH  30  33
ENDBRANCH  24  30
ENDBRANCH  20  29
ENDBRANCH  19  21
ENDBRANCH   1  19
TORSDOF 7
ENDMDL
MODEL 7
REMARK VINA RESULT:      -8.6      4.798      6.656
REMARK  Name = 
REMARK  8 active torsions:
REMARK  status: ('A' for Active; 'I' for Inactive)
REMARK    1  A    between atoms: C_1  and  O_2
REMARK    2  A    between atoms: O_2  and  C_3
REMARK    3  A    between atoms: C_3  and  C_5
REMARK    4  A    between atoms: C_10  and  N_11
REMARK    5  A    between atoms: C_12  and  C_14
REMARK    6  A    between atoms: C_14  and  S_15
REMARK    7  A    between atoms: S_15  and  C_18
REMARK    8  A    between atoms: N_22  and  C_23
REMARK                            x       y       z     vdW  Elec       q    Type
REMARK                         _______ _______ _______ _____ _____    ______ ____
ROOT
ATOM      1  S   UNL     1       0.748   9.975  20.007  0.00  0.00    +0.000 S 
ATOM      2  O   UNL     1      -0.558   9.413  19.711  0.00  0.00    +0.000 OA
ATOM      3  O   UNL     1       1.272   9.989  21.354  0.00  0.00    +0.000 OA
ENDROOT
BRANCH   1   4
ATOM      4  C   UNL     1       0.651  11.634  19.479  0.00  0.00    +0.000 A 
ATOM      5  N   UNL     1       1.731  12.396  19.404  0.00  0.00    +0.000 NA
ATOM      6  N   UNL     1       1.353  13.544  18.786  0.00  0.00    +0.000 NA
ATOM      7  N   UNL     1       0.063  13.525  18.514  0.00  0.00    +0.000 NA
ATOM      8  N   UNL     1      -0.428  12.343  18.981  0.00  0.00    +0.000 N 
BRANCH   8   9
ATOM      9  C   UNL     1      -1.841  12.157  19.051  0.00  0.00    +0.000 A 
ATOM     10  C   UNL     1      -2.543  12.691  20.144  0.00  0.00    +0.000 A 
ATOM     11  C   UNL     1      -3.932  12.645  20.191  0.00  0.00    +0.000 A 
ATOM     12  C   UNL     1      -4.643  12.133  19.114  0.00  0.00    +0.000 A 
ATOM     13  C   UNL     1      -3.981  11.643  17.981  0.00  0.00    +0.000 A 
ATOM     14  C   UNL     1      -4.739  11.228  16.873  0.00  0.00    +0.000 A 
ATOM     15  C   UNL     1      -4.127  10.715  15.733  0.00  0.00    +0.000 A 
ATOM     16  C   UNL     1      -2.754  10.540  15.718  0.00  0.00    +0.000 A 
ATOM     17  C   UNL     1      -1.990  10.947  16.814  0.00  0.00    +0.000 A 
ATOM     18  C   UNL     1      -2.563  11.587  17.948  0.00  0.00    +0.000 A 
ENDBRANCH   8   9
ENDBRANCH   1   4
BRANCH   1  19
ATOM     19  C   UNL     1       1.914   9.272  18.879  0.00  0.00    +0.000 C 
BRANCH  19  21
ATOM     20  N   UNL     1       2.371   7.036  18.041  0.00  0.00    +0.000 N 
ATOM     21  C   UNL     1       2.053   7.809  19.148  0.00  0.00    +0.000 C 
ATOM     22  O   UNL     1       1.984   7.415  20.310  0.00  0.00    +0.000 OA
ATOM     23  H   UNL     1       2.446   7.504  17.135  0.00  0.00    +0.000 HD
BRANCH  20  29
ATOM     24  C   UNL     1       3.957   5.142  17.994  0.00  0.00    +0.000 A 
ATOM     25  C   UNL     1       4.174   3.746  17.986  0.00  0.00    +0.000 A 
ATOM     26  C   UNL     1       3.110   2.848  17.969  0.00  0.00    +0.000 A 
ATOM     27  C   UNL     1       1.812   3.331  17.948  0.00  0.00    +0.000 A 
ATOM     28  C   UNL     1       1.578   4.710  17.961  0.00  0.00    +0.000 A 
ATOM     29  C   UNL     1       2.631   5.639  18.000  0.00  0.00    +0.000 A 
BRANCH  24  30
ATOM     30  C   UNL     1       5.210   5.958  18.026  0.00  0.00    +0.000 C 
ATOM     31  O   UNL     1       5.374   6.947  17.328  0.00  0.00    +0.000 OA
BRANCH  30  33
ATOM     32  C   UNL     1       7.440   5.350  18.297  0.00  0.00    +0.000 C 
ATOM     33  O   UNL     1       6.138   5.461  18.885  0.00  0.00    +0.000 OA
ENDBRANCH  30  33
ENDBRANCH  24  30
ENDBRANCH  20  29
ENDBRANCH  19  21
ENDBRANCH   1  19
TORSDOF 7
ENDMDL
MODEL 8
REMARK VINA RESULT:      -8.6      2.614      6.769
REMARK  Name = 
REMARK  8 active torsions:
REMARK  status: ('A' for Active; 'I' for Inactive)
REMARK    1  A    between atoms: C_1  and  O_2
REMARK    2  A    between atoms: O_2  and  C_3
REMARK    3  A    between atoms: C_3  and  C_5
REMARK    4  A    between atoms: C_10  and  N_11
REMARK    5  A    between atoms: C_12  and  C_14
REMARK    6  A    between atoms: C_14  and  S_15
REMARK    7  A    between atoms: S_15  and  C_18
REMARK    8  A    between atoms: N_22  and  C_23
REMARK                            x       y       z     vdW  Elec       q    Type
REMARK                         _______ _______ _______ _____ _____    ______ ____
ROOT
ATOM      1  S   UNL     1       2.046   4.767  18.847  0.00  0.00    +0.000 S 
ATOM      2  O   UNL     1       0.929   4.619  19.763  0.00  0.00    +0.000 OA
ATOM      3  O   UNL     1       1.918   4.434  17.446  0.00  0.00    +0.000 OA
ENDROOT
BRANCH   1   4
ATOM      4  C   UNL     1       3.301   3.749  19.503  0.00  0.00    +0.000 A 
ATOM      5  N   UNL     1       3.023   2.784  20.366  0.00  0.00    +0.000 NA
ATOM      6  N   UNL     1       4.165   2.068  20.527  0.00  0.00    +0.000 NA
ATOM      7  N   UNL     1       5.147   2.589  19.817  0.00  0.00    +0.000 NA
ATOM      8  N   UNL     1       4.647   3.689  19.186  0.00  0.00    +0.000 N 
BRANCH   8   9
ATOM      9  C   UNL     1       5.547   4.594  18.549  0.00  0.00    +0.000 A 
ATOM     10  C   UNL     1       6.379   5.397  19.347  0.00  0.00    +0.000 A 
ATOM     11  C   UNL     1       7.358   6.200  18.772  0.00  0.00    +0.000 A 
ATOM     12  C   UNL     1       7.571   6.156  17.400  0.00  0.00    +0.000 A 
ATOM     13  C   UNL     1       6.800   5.325  16.578  0.00  0.00    +0.000 A 
ATOM     14  C   UNL     1       7.114   5.234  15.212  0.00  0.00    +0.000 A 
ATOM     15  C   UNL     1       6.363   4.437  14.351  0.00  0.00    +0.000 A 
ATOM     16  C   UNL     1       5.243   3.782  14.834  0.00  0.00    +0.000 A 
ATOM     17  C   UNL     1       4.920   3.866  16.190  0.00  0.00    +0.000 A 
ATOM     18  C   UNL     1       5.729   4.570  17.125  0.00  0.00    +0.000 A 
ENDBRANCH   8   9
ENDBRANCH   1   4
BRANCH   1  19
ATOM     19  C   UNL     1       2.712   6.392  19.054  0.00  0.00    +0.000 C 
BRANCH  19  21
ATOM     20  N   UNL     1       1.575   8.345  19.953  0.00  0.00    +0.000 N 
ATOM     21  C   UNL     1       2.044   7.065  20.210  0.00  0.00    +0.000 C 
ATOM     22  O   UNL     1       1.866   6.422  21.241  0.00  0.00    +0.000 OA
ATOM     23  H   UNL     1       1.751   8.744  19.028  0.00  0.00    +0.000 HD
BRANCH  20  29
ATOM     24  C   UNL     1       0.684  10.573  20.541  0.00  0.00    +0.000 A 
ATOM     25  C   UNL     1      -0.076  11.379  21.418  0.00  0.00    +0.000 A 
ATOM     26  C   UNL     1      -0.659  10.850  22.566  0.00  0.00    +0.000 A 
ATOM     27  C   UNL     1      -0.480   9.509  22.863  0.00  0.00    +0.000 A 
ATOM     28  C   UNL     1       0.265   8.694  22.004  0.00  0.00    +0.000 A 
ATOM     29  C   UNL     1       0.845   9.196  20.827  0.00  0.00    +0.000 A 
BRANCH  24  30
ATOM     30  C   UNL     1       1.224  11.301  19.351  0.00  0.00    +0.000 C 
ATOM     31  O   UNL     1       1.276  10.802  18.237  0.00  0.00    +0.000 OA
BRANCH  30  33
ATOM     32  C   UNL     1       2.432  13.143  18.599  0.00  0.00    +0.000 C 
ATOM     33  O   UNL     1       1.669  12.549  19.656  0.00  0.00    +0.000 OA
ENDBRANCH  30  33
ENDBRANCH  24  30
ENDBRANCH  20  29
ENDBRANCH  19  21
ENDBRANCH   1  19
TORSDOF 7
ENDMDL
MODEL 9
REMARK VINA RESULT:      -8.6      4.451      6.291
REMARK  Name = 
REMARK  8 active torsions:
REMARK  status: ('A' for Active; 'I' for Inactive)
REMARK    1  A    between atoms: C_1  and  O_2
REMARK    2  A    between atoms: O_2  and  C_3
REMARK    3  A    between atoms: C_3  and  C_5
REMARK    4  A    between atoms: C_10  and  N_11
REMARK    5  A    between atoms: C_12  and  C_14
REMARK    6  A    between atoms: C_14  and  S_15
REMARK    7  A    between atoms: S_15  and  C_18
REMARK    8  A    between atoms: N_22  and  C_23
REMARK                            x       y       z     vdW  Elec       q    Type
REMARK                         _______ _______ _______ _____ _____    ______ ____
ROOT
ATOM      1  S   UNL     1       0.818   9.346  20.910  0.00  0.00    +0.000 S 
ATOM      2  O   UNL     1      -0.413   8.625  20.639  0.00  0.00    +0.000 OA
ATOM      3  O   UNL     1       1.537   9.165  22.151  0.00  0.00    +0.000 OA
ENDROOT
BRANCH   1   4
ATOM      4  C   UNL     1       0.381  11.031  20.813  0.00  0.00    +0.000 A 
ATOM      5  N   UNL     1       0.860  11.917  21.672  0.00  0.00    +0.000 NA
ATOM      6  N   UNL     1       0.491  13.140  21.214  0.00  0.00    +0.000 NA
ATOM      7  N   UNL     1      -0.234  13.029  20.118  0.00  0.00    +0.000 NA
ATOM      8  N   UNL     1      -0.365  11.698  19.856  0.00  0.00    +0.000 N 
BRANCH   8   9
ATOM      9  C   UNL     1      -1.309  11.273  18.874  0.00  0.00    +0.000 A 
ATOM     10  C   UNL     1      -0.891  10.380  17.874  0.00  0.00    +0.000 A 
ATOM     11  C   UNL     1      -1.804   9.841  16.974  0.00  0.00    +0.000 A 
ATOM     12  C   UNL     1      -3.157  10.128  17.105  0.00  0.00    +0.000 A 
ATOM     13  C   UNL     1      -3.618  10.969  18.125  0.00  0.00    +0.000 A 
ATOM     14  C   UNL     1      -5.002  11.152  18.286  0.00  0.00    +0.000 A 
ATOM     15  C   UNL     1      -5.508  11.994  19.272  0.00  0.00    +0.000 A 
ATOM     16  C   UNL     1      -4.633  12.722  20.060  0.00  0.00    +0.000 A 
ATOM     17  C   UNL     1      -3.255  12.551  19.908  0.00  0.00    +0.000 A 
ATOM     18  C   UNL     1      -2.699  11.610  18.996  0.00  0.00    +0.000 A 
ENDBRANCH   8   9
ENDBRANCH   1   4
BRANCH   1  19
ATOM     19  C   UNL     1       1.890   9.139  19.519  0.00  0.00    +0.000 C 
BRANCH  19  21
ATOM     20  N   UNL     1       2.279   6.833  20.187  0.00  0.00    +0.000 N 
ATOM     21  C   UNL     1       1.957   7.693  19.147  0.00  0.00    +0.000 C 
ATOM     22  O   UNL     1       1.628   7.362  18.011  0.00  0.00    +0.000 OA
ATOM     23  H   UNL     1       2.484   7.242  21.102  0.00  0.00    +0.000 HD
BRANCH  20  29
ATOM     24  C   UNL     1       3.498   4.749  19.658  0.00  0.00    +0.000 A 
ATOM     25  C   UNL     1       3.542   3.337  19.671  0.00  0.00    +0.000 A 
ATOM     26  C   UNL     1       2.473   2.584  20.148  0.00  0.00    +0.000 A 
ATOM     27  C   UNL     1       1.337   3.231  20.608  0.00  0.00    +0.000 A 
ATOM     28  C   UNL     1       1.277   4.628  20.607  0.00  0.00    +0.000 A 
ATOM     29  C   UNL     1       2.349   5.414  20.153  0.00  0.00    +0.000 A 
BRANCH  24  30
ATOM     30  C   UNL     1       4.737   5.397  19.126  0.00  0.00    +0.000 C 
ATOM     31  O   UNL     1       5.799   5.389  19.730  0.00  0.00    +0.000 OA
BRANCH  30  33
ATOM     32  C   UNL     1       5.733   6.586  17.392  0.00  0.00    +0.000 C 
ATOM     33  O   UNL     1       4.538   6.007  17.929  0.00  0.00    +0.000 OA
ENDBRANCH  30  33
ENDBRANCH  24  30
ENDBRANCH  20  29
ENDBRANCH  19  21
ENDBRANCH   1  19
TORSDOF 7
ENDMDL
