MODEL 1
REMARK VINA RESULT:      -8.7      0.000      0.000
REMARK  Name = 
REMARK  8 active torsions:
REMARK  status: ('A' for Active; 'I' for Inactive)
REMARK    1  A    between atoms: C_1  and  C_2
REMARK    2  A    between atoms: C_5  and  C_6
REMARK    3  A    between atoms: C_6  and  C_7
REMARK    4  A    between atoms: C_7  and  C_8
REMARK    5  A    between atoms: C_12  and  C_14
REMARK    6  A    between atoms: C_14  and  C_15
REMARK    7  A    between atoms: C_15  and  C_16
REMARK    8  A    between atoms: C_16  and  N_17
REMARK                            x       y       z     vdW  Elec       q    Type
REMARK                         _______ _______ _______ _____ _____    ______ ____
ROOT
ATOM      1  C   UNL     1       2.453   6.546  20.378  0.00  0.00    +0.000 C 
ATOM      2  C   UNL     1       2.602   6.515  18.839  0.00  0.00    +0.000 C 
ATOM      3  C   UNL     1       1.503   5.681  18.179  0.00  0.00    +0.000 C 
ATOM      4  N   UNL     1       1.513   4.327  18.726  0.00  0.00    +0.000 N 
ATOM      5  C   UNL     1       1.767   3.269  17.866  0.00  0.00    +0.000 C 
ATOM      6  O   UNL     1       1.932   3.433  16.659  0.00  0.00    +0.000 OA
ATOM      7  C   UNL     1       1.351   4.253  20.182  0.00  0.00    +0.000 C 
ATOM      8  C   UNL     1       2.418   5.093  20.890  0.00  0.00    +0.000 C 
ENDROOT
BRANCH   1   9
ATOM      9  C   UNL     1       1.213   7.364  20.826  0.00  0.00    +0.000 C 
BRANCH   9  10
ATOM     10  C   UNL     1       1.239   8.825  20.351  0.00  0.00    +0.000 C 
BRANCH  10  15
ATOM     11  C   UNL     1      -2.342  12.344  23.310  0.00  0.00    +0.000 C 
ATOM     12  C   UNL     1      -1.433  11.422  22.553  0.00  0.00    +0.000 A 
ATOM     13  C   UNL     1      -0.870  10.298  23.164  0.00  0.00    +0.000 A 
ATOM     14  C   UNL     1      -0.022   9.453  22.445  0.00  0.00    +0.000 A 
ATOM     15  C   UNL     1       0.285   9.720  21.103  0.00  0.00    +0.000 A 
ATOM     16  C   UNL     1      -0.283  10.843  20.492  0.00  0.00    +0.000 A 
ATOM     17  C   UNL     1      -1.131  11.688  21.213  0.00  0.00    +0.000 A 
ENDBRANCH  10  15
ENDBRANCH   9  10
ENDBRANCH   1   9
BRANCH   5  18
ATOM     18  C   UNL     1       1.822   1.866  18.451  0.00  0.00    +0.000 C 
BRANCH  18  19
ATOM     19  C   UNL     1       3.258   1.449  18.772  0.00  0.00    +0.000 C 
BRANCH  19  20
ATOM     20  C   UNL     1       4.229   2.134  17.806  0.00  0.00    +0.000 C 
BRANCH  20  21
ATOM     21  N   UNL     1       4.725   3.381  18.360  0.00  0.00    +0.000 N 
ATOM     22  C   UNL     1       5.288   4.339  17.546  0.00  0.00    +0.000 C 
ATOM     23  N   UNL     1       4.987   4.509  16.292  0.00  0.00    +0.000 NA
ATOM     24  S   UNL     1       5.800   5.777  15.651  0.00  0.00    +0.000 S 
ATOM     25  O   UNL     1       6.797   5.312  14.709  0.00  0.00    +0.000 OA
ATOM     26  O   UNL     1       4.887   6.858  15.350  0.00  0.00    +0.000 OA
ATOM     27  C   UNL     1       6.649   6.193  17.110  0.00  0.00    +0.000 A 
ATOM     28  C   UNL     1       7.610   7.168  17.295  0.00  0.00    +0.000 A 
ATOM     29  C   UNL     1       8.256   7.191  18.532  0.00  0.00    +0.000 A 
ATOM     30  C   UNL     1       7.943   6.240  19.522  0.00  0.00    +0.000 A 
ATOM     31  C   UNL     1       6.964   5.265  19.295  0.00  0.00    +0.000 A 
ATOM     32  C   UNL     1       6.308   5.271  18.079  0.00  0.00    +0.000 A 
ATOM     33  H   UNL     1       5.132   3.256  19.280  0.00  0.00    +0.000 HD
ENDBRANCH  20  21
ENDBRANCH  19  20
ENDBRANCH  18  19
ENDBRANCH   5  18
TORSDOF 7
ENDMDL
MODEL 2
REMARK VINA RESULT:      -8.5      2.194      3.740
REMARK  Name = 
REMARK  8 active torsions:
REMARK  status: ('A' for Active; 'I' for Inactive)
REMARK    1  A    between atoms: C_1  and  C_2
REMARK    2  A    between atoms: C_5  and  C_6
REMARK    3  A    between atoms: C_6  and  C_7
REMARK    4  A    between atoms: C_7  and  C_8
REMARK    5  A    between atoms: C_12  and  C_14
REMARK    6  A    between atoms: C_14  and  C_15
REMARK    7  A    between atoms: C_15  and  C_16
REMARK    8  A    between atoms: C_16  and  N_17
REMARK                            x       y       z     vdW  Elec       q    Type
REMARK                         _______ _______ _______ _____ _____    ______ ____
ROOT
ATOM      1  C   UNL     1       1.013  10.986  19.601  0.00  0.00    +0.000 C 
ATOM      2  C   UNL     1       1.932  10.625  18.410  0.00  0.00    +0.000 C 
ATOM      3  C   UNL     1       1.606   9.244  17.841  0.00  0.00    +0.000 C 
ATOM      4  N   UNL     1       1.709   8.237  18.895  0.00  0.00    +0.000 N 
ATOM      5  C   UNL     1       2.648   7.227  18.754  0.00  0.00    +0.000 C 
ATOM      6  O   UNL     1       3.355   7.126  17.754  0.00  0.00    +0.000 OA
ATOM      7  C   UNL     1       0.851   8.480  20.060  0.00  0.00    +0.000 C 
ATOM      8  C   UNL     1       1.124   9.866  20.654  0.00  0.00    +0.000 C 
ENDROOT
BRANCH   1   9
ATOM      9  C   UNL     1      -0.450  11.237  19.152  0.00  0.00    +0.000 C 
BRANCH   9  10
ATOM     10  C   UNL     1      -1.000  12.602  19.593  0.00  0.00    +0.000 C 
BRANCH  10  15
ATOM     11  C   UNL     1      -4.237  12.466  24.438  0.00  0.00    +0.000 C 
ATOM     12  C   UNL     1      -3.397  12.481  23.195  0.00  0.00    +0.000 A 
ATOM     13  C   UNL     1      -2.022  12.236  23.248  0.00  0.00    +0.000 A 
ATOM     14  C   UNL     1      -1.255  12.260  22.081  0.00  0.00    +0.000 A 
ATOM     15  C   UNL     1      -1.848  12.534  20.840  0.00  0.00    +0.000 A 
ATOM     16  C   UNL     1      -3.226  12.774  20.789  0.00  0.00    +0.000 A 
ATOM     17  C   UNL     1      -3.991  12.751  21.957  0.00  0.00    +0.000 A 
ENDBRANCH  10  15
ENDBRANCH   9  10
ENDBRANCH   1   9
BRANCH   5  18
ATOM     18  C   UNL     1       2.780   6.209  19.877  0.00  0.00    +0.000 C 
BRANCH  18  19
ATOM     19  C   UNL     1       2.261   4.834  19.451  0.00  0.00    +0.000 C 
BRANCH  19  20
ATOM     20  C   UNL     1       3.332   3.770  19.702  0.00  0.00    +0.000 C 
BRANCH  20  21
ATOM     21  N   UNL     1       4.029   3.429  18.474  0.00  0.00    +0.000 N 
ATOM     22  C   UNL     1       5.205   4.057  18.134  0.00  0.00    +0.000 C 
ATOM     23  N   UNL     1       6.051   4.551  18.991  0.00  0.00    +0.000 NA
ATOM     24  S   UNL     1       7.369   5.168  18.241  0.00  0.00    +0.000 S 
ATOM     25  O   UNL     1       7.375   6.612  18.338  0.00  0.00    +0.000 OA
ATOM     26  O   UNL     1       8.534   4.361  18.531  0.00  0.00    +0.000 OA
ATOM     27  C   UNL     1       6.846   4.779  16.628  0.00  0.00    +0.000 A 
ATOM     28  C   UNL     1       7.461   5.086  15.430  0.00  0.00    +0.000 A 
ATOM     29  C   UNL     1       6.749   4.799  14.264  0.00  0.00    +0.000 A 
ATOM     30  C   UNL     1       5.457   4.245  14.331  0.00  0.00    +0.000 A 
ATOM     31  C   UNL     1       4.867   3.951  15.565  0.00  0.00    +0.000 A 
ATOM     32  C   UNL     1       5.592   4.209  16.713  0.00  0.00    +0.000 A 
ATOM     33  H   UNL     1       3.388   3.204  17.722  0.00  0.00    +0.000 HD
ENDBRANCH  20  21
ENDBRANCH  19  20
ENDBRANCH  18  19
ENDBRANCH   5  18
TORSDOF 7
ENDMDL
MODEL 3
REMARK VINA RESULT:      -8.4      5.297     10.191
REMARK  Name = 
REMARK  8 active torsions:
REMARK  status: ('A' for Active; 'I' for Inactive)
REMARK    1  A    between atoms: C_1  and  C_2
REMARK    2  A    between atoms: C_5  and  C_6
REMARK    3  A    between atoms: C_6  and  C_7
REMARK    4  A    between atoms: C_7  and  C_8
REMARK    5  A    between atoms: C_12  and  C_14
REMARK    6  A    between atoms: C_14  and  C_15
REMARK    7  A    between atoms: C_15  and  C_16
REMARK    8  A    between atoms: C_16  and  N_17
REMARK                            x       y       z     vdW  Elec       q    Type
REMARK                         _______ _______ _______ _____ _____    ______ ____
ROOT
ATOM      1  C   UNL     1       2.582   5.623  19.167  0.00  0.00    +0.000 C 
ATOM      2  C   UNL     1       2.389   6.673  18.048  0.00  0.00    +0.000 C 
ATOM      3  C   UNL     1       2.592   8.097  18.565  0.00  0.00    +0.000 C 
ATOM      4  N   UNL     1       1.680   8.355  19.677  0.00  0.00    +0.000 N 
ATOM      5  C   UNL     1       0.736   9.362  19.537  0.00  0.00    +0.000 C 
ATOM      6  O   UNL     1       0.679  10.070  18.534  0.00  0.00    +0.000 OA
ATOM      7  C   UNL     1       1.807   7.423  20.802  0.00  0.00    +0.000 C 
ATOM      8  C   UNL     1       1.634   5.976  20.330  0.00  0.00    +0.000 C 
ENDROOT
BRANCH   1   9
ATOM      9  C   UNL     1       4.063   5.519  19.618  0.00  0.00    +0.000 C 
BRANCH   9  10
ATOM     10  C   UNL     1       4.751   4.223  19.163  0.00  0.00    +0.000 C 
BRANCH  10  15
ATOM     11  C   UNL     1       7.135   4.733  13.870  0.00  0.00    +0.000 C 
ATOM     12  C   UNL     1       6.517   4.581  15.228  0.00  0.00    +0.000 A 
ATOM     13  C   UNL     1       5.199   4.139  15.378  0.00  0.00    +0.000 A 
ATOM     14  C   UNL     1       4.639   4.010  16.651  0.00  0.00    +0.000 A 
ATOM     15  C   UNL     1       5.384   4.324  17.797  0.00  0.00    +0.000 A 
ATOM     16  C   UNL     1       6.704   4.762  17.644  0.00  0.00    +0.000 A 
ATOM     17  C   UNL     1       7.262   4.893  16.370  0.00  0.00    +0.000 A 
ENDBRANCH  10  15
ENDBRANCH   9  10
ENDBRANCH   1   9
BRANCH   5  18
ATOM     18  C   UNL     1      -0.239   9.593  20.681  0.00  0.00    +0.000 C 
BRANCH  18  19
ATOM     19  C   UNL     1       0.267  10.674  21.639  0.00  0.00    +0.000 C 
BRANCH  19  20
ATOM     20  C   UNL     1      -0.633  11.910  21.556  0.00  0.00    +0.000 C 
BRANCH  20  21
ATOM     21  N   UNL     1      -1.120  12.111  20.203  0.00  0.00    +0.000 N 
ATOM     22  C   UNL     1      -2.470  12.199  19.946  0.00  0.00    +0.000 C 
ATOM     23  N   UNL     1      -3.354  12.632  20.796  0.00  0.00    +0.000 NA
ATOM     24  S   UNL     1      -4.852  12.660  20.136  0.00  0.00    +0.000 S 
ATOM     25  O   UNL     1      -5.686  11.637  20.733  0.00  0.00    +0.000 OA
ATOM     26  O   UNL     1      -5.298  14.025  19.961  0.00  0.00    +0.000 OA
ATOM     27  C   UNL     1      -4.365  12.059  18.579  0.00  0.00    +0.000 A 
ATOM     28  C   UNL     1      -5.159  11.748  17.492  0.00  0.00    +0.000 A 
ATOM     29  C   UNL     1      -4.534  11.127  16.410  0.00  0.00    +0.000 A 
ATOM     30  C   UNL     1      -3.161  10.819  16.456  0.00  0.00    +0.000 A 
ATOM     31  C   UNL     1      -2.390  11.147  17.577  0.00  0.00    +0.000 A 
ATOM     32  C   UNL     1      -3.012  11.791  18.630  0.00  0.00    +0.000 A 
ATOM     33  H   UNL     1      -0.547  11.636  19.515  0.00  0.00    +0.000 HD
ENDBRANCH  20  21
ENDBRANCH  19  20
ENDBRANCH  18  19
ENDBRANCH   5  18
TORSDOF 7
ENDMDL
MODEL 4
REMARK VINA RESULT:      -8.3      0.596      1.007
REMARK  Name = 
REMARK  8 active torsions:
REMARK  status: ('A' for Active; 'I' for Inactive)
REMARK    1  A    between atoms: C_1  and  C_2
REMARK    2  A    between atoms: C_5  and  C_6
REMARK    3  A    between atoms: C_6  and  C_7
REMARK    4  A    between atoms: C_7  and  C_8
REMARK    5  A    between atoms: C_12  and  C_14
REMARK    6  A    between atoms: C_14  and  C_15
REMARK    7  A    between atoms: C_15  and  C_16
REMARK    8  A    between atoms: C_16  and  N_17
REMARK                            x       y       z     vdW  Elec       q    Type
REMARK                         _______ _______ _______ _____ _____    ______ ____
ROOT
ATOM      1  C   UNL     1       2.395   6.773  20.299  0.00  0.00    +0.000 C 
ATOM      2  C   UNL     1       2.501   6.666  18.760  0.00  0.00    +0.000 C 
ATOM      3  C   UNL     1       1.423   5.749  18.180  0.00  0.00    +0.000 C 
ATOM      4  N   UNL     1       1.512   4.428  18.797  0.00  0.00    +0.000 N 
ATOM      5  C   UNL     1       1.789   3.338  17.986  0.00  0.00    +0.000 C 
ATOM      6  O   UNL     1       1.911   3.443  16.767  0.00  0.00    +0.000 OA
ATOM      7  C   UNL     1       1.395   4.425  20.258  0.00  0.00    +0.000 C 
ATOM      8  C   UNL     1       2.442   5.349  20.888  0.00  0.00    +0.000 C 
ENDROOT
BRANCH   1   9
ATOM      9  C   UNL     1       1.132   7.558  20.742  0.00  0.00    +0.000 C 
BRANCH   9  10
ATOM     10  C   UNL     1       1.408   8.586  21.850  0.00  0.00    +0.000 C 
BRANCH  10  15
ATOM     11  C   UNL     1      -2.665  12.748  22.073  0.00  0.00    +0.000 C 
ATOM     12  C   UNL     1      -1.602  11.691  22.009  0.00  0.00    +0.000 A 
ATOM     13  C   UNL     1      -0.893  11.448  20.829  0.00  0.00    +0.000 A 
ATOM     14  C   UNL     1       0.089  10.456  20.787  0.00  0.00    +0.000 A 
ATOM     15  C   UNL     1       0.376   9.685  21.922  0.00  0.00    +0.000 A 
ATOM     16  C   UNL     1      -0.331   9.933  23.104  0.00  0.00    +0.000 A 
ATOM     17  C   UNL     1      -1.314  10.925  23.144  0.00  0.00    +0.000 A 
ENDBRANCH  10  15
ENDBRANCH   9  10
ENDBRANCH   1   9
BRANCH   5  18
ATOM     18  C   UNL     1       1.925   1.972  18.642  0.00  0.00    +0.000 C 
BRANCH  18  19
ATOM     19  C   UNL     1       3.243   1.848  19.407  0.00  0.00    +0.000 C 
BRANCH  19  20
ATOM     20  C   UNL     1       4.409   2.285  18.515  0.00  0.00    +0.000 C 
BRANCH  20  21
ATOM     21  N   UNL     1       4.964   3.550  18.964  0.00  0.00    +0.000 N 
ATOM     22  C   UNL     1       5.342   4.515  18.056  0.00  0.00    +0.000 C 
ATOM     23  N   UNL     1       4.811   4.665  16.878  0.00  0.00    +0.000 NA
ATOM     24  S   UNL     1       5.459   5.947  16.092  0.00  0.00    +0.000 S 
ATOM     25  O   UNL     1       6.279   5.499  14.985  0.00  0.00    +0.000 OA
ATOM     26  O   UNL     1       4.478   7.001  15.959  0.00  0.00    +0.000 OA
ATOM     27  C   UNL     1       6.549   6.399  17.369  0.00  0.00    +0.000 A 
ATOM     28  C   UNL     1       7.501   7.400  17.371  0.00  0.00    +0.000 A 
ATOM     29  C   UNL     1       8.362   7.451  18.468  0.00  0.00    +0.000 A 
ATOM     30  C   UNL     1       8.261   6.501  19.502  0.00  0.00    +0.000 A 
ATOM     31  C   UNL     1       7.285   5.500  19.464  0.00  0.00    +0.000 A 
ATOM     32  C   UNL     1       6.417   5.478  18.388  0.00  0.00    +0.000 A 
ATOM     33  H   UNL     1       5.535   3.444  19.793  0.00  0.00    +0.000 HD
ENDBRANCH  20  21
ENDBRANCH  19  20
ENDBRANCH  18  19
ENDBRANCH   5  18
TORSDOF 7
ENDMDL
MODEL 5
REMARK VINA RESULT:      -8.3      1.140      1.601
REMARK  Name = 
REMARK  8 active torsions:
REMARK  status: ('A' for Active; 'I' for Inactive)
REMARK    1  A    between atoms: C_1  and  C_2
REMARK    2  A    between atoms: C_5  and  C_6
REMARK    3  A    between atoms: C_6  and  C_7
REMARK    4  A    between atoms: C_7  and  C_8
REMARK    5  A    between atoms: C_12  and  C_14
REMARK    6  A    between atoms: C_14  and  C_15
REMARK    7  A    between atoms: C_15  and  C_16
REMARK    8  A    between atoms: C_16  and  N_17
REMARK                            x       y       z     vdW  Elec       q    Type
REMARK                         _______ _______ _______ _____ _____    ______ ____
ROOT
ATOM      1  C   UNL     1       2.320   6.533  20.408  0.00  0.00    +0.000 C 
ATOM      2  C   UNL     1       2.503   6.504  18.873  0.00  0.00    +0.000 C 
ATOM      3  C   UNL     1       1.447   5.632  18.192  0.00  0.00    +0.000 C 
ATOM      4  N   UNL     1       1.492   4.280  18.743  0.00  0.00    +0.000 N 
ATOM      5  C   UNL     1       1.799   3.230  17.891  0.00  0.00    +0.000 C 
ATOM      6  O   UNL     1       1.984   3.397  16.687  0.00  0.00    +0.000 OA
ATOM      7  C   UNL     1       1.301   4.203  20.195  0.00  0.00    +0.000 C 
ATOM      8  C   UNL     1       2.324   5.080  20.923  0.00  0.00    +0.000 C 
ENDROOT
BRANCH   1   9
ATOM      9  C   UNL     1       1.044   7.309  20.827  0.00  0.00    +0.000 C 
BRANCH   9  10
ATOM     10  C   UNL     1       1.340   8.678  21.459  0.00  0.00    +0.000 C 
BRANCH  10  15
ATOM     11  C   UNL     1      -0.627  13.143  18.272  0.00  0.00    +0.000 C 
ATOM     12  C   UNL     1      -0.107  11.989  19.077  0.00  0.00    +0.000 A 
ATOM     13  C   UNL     1      -0.097  10.691  18.558  0.00  0.00    +0.000 A 
ATOM     14  C   UNL     1       0.386   9.628  19.325  0.00  0.00    +0.000 A 
ATOM     15  C   UNL     1       0.863   9.842  20.625  0.00  0.00    +0.000 A 
ATOM     16  C   UNL     1       0.858  11.143  21.140  0.00  0.00    +0.000 A 
ATOM     17  C   UNL     1       0.372  12.205  20.373  0.00  0.00    +0.000 A 
ENDBRANCH  10  15
ENDBRANCH   9  10
ENDBRANCH   1   9
BRANCH   5  18
ATOM     18  C   UNL     1       1.889   1.830  18.481  0.00  0.00    +0.000 C 
BRANCH  18  19
ATOM     19  C   UNL     1       3.335   1.450  18.803  0.00  0.00    +0.000 C 
BRANCH  19  20
ATOM     20  C   UNL     1       4.288   2.144  17.826  0.00  0.00    +0.000 C 
BRANCH  20  21
ATOM     21  N   UNL     1       4.772   3.401  18.371  0.00  0.00    +0.000 N 
ATOM     22  C   UNL     1       5.327   4.357  17.550  0.00  0.00    +0.000 C 
ATOM     23  N   UNL     1       5.025   4.515  16.294  0.00  0.00    +0.000 NA
ATOM     24  S   UNL     1       5.827   5.785  15.643  0.00  0.00    +0.000 S 
ATOM     25  O   UNL     1       6.829   5.322  14.706  0.00  0.00    +0.000 OA
ATOM     26  O   UNL     1       4.905   6.855  15.334  0.00  0.00    +0.000 OA
ATOM     27  C   UNL     1       6.671   6.220  17.100  0.00  0.00    +0.000 A 
ATOM     28  C   UNL     1       7.623   7.205  17.279  0.00  0.00    +0.000 A 
ATOM     29  C   UNL     1       8.268   7.243  18.516  0.00  0.00    +0.000 A 
ATOM     30  C   UNL     1       7.963   6.297  19.512  0.00  0.00    +0.000 A 
ATOM     31  C   UNL     1       6.994   5.312  19.292  0.00  0.00    +0.000 A 
ATOM     32  C   UNL     1       6.338   5.302  18.076  0.00  0.00    +0.000 A 
ATOM     33  H   UNL     1       5.179   3.286  19.291  0.00  0.00    +0.000 HD
ENDBRANCH  20  21
ENDBRANCH  19  20
ENDBRANCH  18  19
ENDBRANCH   5  18
TORSDOF 7
ENDMDL
MODEL 6
REMARK VINA RESULT:      -8.2      3.809      7.575
REMARK  Name = 
REMARK  8 active torsions:
REMARK  status: ('A' for Active; 'I' for Inactive)
REMARK    1  A    between atoms: C_1  and  C_2
REMARK    2  A    between atoms: C_5  and  C_6
REMARK    3  A    between atoms: C_6  and  C_7
REMARK    4  A    between atoms: C_7  and  C_8
REMARK    5  A    between atoms: C_12  and  C_14
REMARK    6  A    between atoms: C_14  and  C_15
REMARK    7  A    between atoms: C_15  and  C_16
REMARK    8  A    between atoms: C_16  and  N_17
REMARK                            x       y       z     vdW  Elec       q    Type
REMARK                         _______ _______ _______ _____ _____    ______ ____
ROOT
ATOM      1  C   UNL     1       7.810   6.387  17.829  0.00  0.00    +0.000 C 
ATOM      2  C   UNL     1       7.184   5.760  16.562  0.00  0.00    +0.000 C 
ATOM      3  C   UNL     1       5.663   5.919  16.543  0.00  0.00    +0.000 C 
ATOM      4  N   UNL     1       5.088   5.327  17.750  0.00  0.00    +0.000 N 
ATOM      5  C   UNL     1       4.209   4.264  17.609  0.00  0.00    +0.000 C 
ATOM      6  O   UNL     1       3.864   3.841  16.508  0.00  0.00    +0.000 OA
ATOM      7  C   UNL     1       5.604   5.879  19.007  0.00  0.00    +0.000 C 
ATOM      8  C   UNL     1       7.130   5.763  19.064  0.00  0.00    +0.000 C 
ENDROOT
BRANCH   1   9
ATOM      9  C   UNL     1       7.718   7.936  17.818  0.00  0.00    +0.000 C 
BRANCH   9  10
ATOM     10  C   UNL     1       8.611   8.609  18.872  0.00  0.00    +0.000 C 
BRANCH  10  15
ATOM     11  C   UNL     1       9.512  14.284  17.899  0.00  0.00    +0.000 C 
ATOM     12  C   UNL     1       9.282  12.819  18.129  0.00  0.00    +0.000 A 
ATOM     13  C   UNL     1       8.244  12.140  17.484  0.00  0.00    +0.000 A 
ATOM     14  C   UNL     1       8.042  10.778  17.714  0.00  0.00    +0.000 A 
ATOM     15  C   UNL     1       8.869  10.070  18.598  0.00  0.00    +0.000 A 
ATOM     16  C   UNL     1       9.910  10.751  19.238  0.00  0.00    +0.000 A 
ATOM     17  C   UNL     1      10.111  12.114  19.008  0.00  0.00    +0.000 A 
ENDBRANCH  10  15
ENDBRANCH   9  10
ENDBRANCH   1   9
BRANCH   5  18
ATOM     18  C   UNL     1       3.651   3.625  18.872  0.00  0.00    +0.000 C 
BRANCH  18  19
ATOM     19  C   UNL     1       2.196   4.033  19.109  0.00  0.00    +0.000 C 
BRANCH  19  20
ATOM     20  C   UNL     1       2.113   5.013  20.283  0.00  0.00    +0.000 C 
BRANCH  20  21
ATOM     21  N   UNL     1       2.432   6.365  19.859  0.00  0.00    +0.000 N 
ATOM     22  C   UNL     1       1.784   7.447  20.411  0.00  0.00    +0.000 C 
ATOM     23  N   UNL     1       1.288   7.474  21.613  0.00  0.00    +0.000 NA
ATOM     24  S   UNL     1       0.646   8.940  21.960  0.00  0.00    +0.000 S 
ATOM     25  O   UNL     1      -0.797   8.854  22.034  0.00  0.00    +0.000 OA
ATOM     26  O   UNL     1       1.440   9.609  22.968  0.00  0.00    +0.000 OA
ATOM     27  C   UNL     1       1.025   9.662  20.424  0.00  0.00    +0.000 A 
ATOM     28  C   UNL     1       0.697  10.923  19.965  0.00  0.00    +0.000 A 
ATOM     29  C   UNL     1       0.981  11.201  18.627  0.00  0.00    +0.000 A 
ATOM     30  C   UNL     1       1.552  10.218  17.797  0.00  0.00    +0.000 A 
ATOM     31  C   UNL     1       1.868   8.951  18.299  0.00  0.00    +0.000 A 
ATOM     32  C   UNL     1       1.612   8.696  19.633  0.00  0.00    +0.000 A 
ATOM     33  H   UNL     1       2.657   6.412  18.872  0.00  0.00    +0.000 HD
ENDBRANCH  20  21
ENDBRANCH  19  20
ENDBRANCH  18  19
ENDBRANCH   5  18
TORSDOF 7
ENDMDL
MODEL 7
REMARK VINA RESULT:      -8.2      5.552     10.758
REMARK  Name = 
REMARK  8 active torsions:
REMARK  status: ('A' for Active; 'I' for Inactive)
REMARK    1  A    between atoms: C_1  and  C_2
REMARK    2  A    between atoms: C_5  and  C_6
REMARK    3  A    between atoms: C_6  and  C_7
REMARK    4  A    between atoms: C_7  and  C_8
REMARK    5  A    between atoms: C_12  and  C_14
REMARK    6  A    between atoms: C_14  and  C_15
REMARK    7  A    between atoms: C_15  and  C_16
REMARK    8  A    between atoms: C_16  and  N_17
REMARK                            x       y       z     vdW  Elec       q    Type
REMARK                         _______ _______ _______ _____ _____    ______ ____
ROOT
ATOM      1  C   UNL     1       2.201   5.131  19.488  0.00  0.00    +0.000 C 
ATOM      2  C   UNL     1       2.299   5.762  18.080  0.00  0.00    +0.000 C 
ATOM      3  C   UNL     1       2.937   7.151  18.125  0.00  0.00    +0.000 C 
ATOM      4  N   UNL     1       2.180   8.015  19.027  0.00  0.00    +0.000 N 
ATOM      5  C   UNL     1       1.580   9.151  18.504  0.00  0.00    +0.000 C 
ATOM      6  O   UNL     1       1.708   9.475  17.325  0.00  0.00    +0.000 OA
ATOM      7  C   UNL     1       2.054   7.510  20.398  0.00  0.00    +0.000 C 
ATOM      8  C   UNL     1       1.439   6.108  20.405  0.00  0.00    +0.000 C 
ENDROOT
BRANCH   1   9
ATOM      9  C   UNL     1       3.594   4.749  20.052  0.00  0.00    +0.000 C 
BRANCH   9  10
ATOM     10  C   UNL     1       4.240   3.554  19.333  0.00  0.00    +0.000 C 
BRANCH  10  15
ATOM     11  C   UNL     1       7.283   4.941  14.561  0.00  0.00    +0.000 C 
ATOM     12  C   UNL     1       6.500   4.605  15.795  0.00  0.00    +0.000 A 
ATOM     13  C   UNL     1       6.976   4.936  17.067  0.00  0.00    +0.000 A 
ATOM     14  C   UNL     1       6.235   4.609  18.205  0.00  0.00    +0.000 A 
ATOM     15  C   UNL     1       5.008   3.941  18.093  0.00  0.00    +0.000 A 
ATOM     16  C   UNL     1       4.530   3.616  16.819  0.00  0.00    +0.000 A 
ATOM     17  C   UNL     1       5.273   3.942  15.682  0.00  0.00    +0.000 A 
ENDBRANCH  10  15
ENDBRANCH   9  10
ENDBRANCH   1   9
BRANCH   5  18
ATOM     18  C   UNL     1       0.755  10.022  19.440  0.00  0.00    +0.000 C 
BRANCH  18  19
ATOM     19  C   UNL     1      -0.581  10.415  18.806  0.00  0.00    +0.000 C 
BRANCH  19  20
ATOM     20  C   UNL     1      -0.966  11.833  19.237  0.00  0.00    +0.000 C 
BRANCH  20  21
ATOM     21  N   UNL     1      -2.313  12.163  18.804  0.00  0.00    +0.000 N 
ATOM     22  C   UNL     1      -3.299  12.441  19.723  0.00  0.00    +0.000 C 
ATOM     23  N   UNL     1      -3.085  12.947  20.903  0.00  0.00    +0.000 NA
ATOM     24  S   UNL     1      -4.489  13.205  21.704  0.00  0.00    +0.000 S 
ATOM     25  O   UNL     1      -4.620  12.274  22.806  0.00  0.00    +0.000 OA
ATOM     26  O   UNL     1      -4.730  14.624  21.849  0.00  0.00    +0.000 OA
ATOM     27  C   UNL     1      -5.522  12.620  20.434  0.00  0.00    +0.000 A 
ATOM     28  C   UNL     1      -6.896  12.471  20.445  0.00  0.00    +0.000 A 
ATOM     29  C   UNL     1      -7.470  11.825  19.349  0.00  0.00    +0.000 A 
ATOM     30  C   UNL     1      -6.664  11.336  18.304  0.00  0.00    +0.000 A 
ATOM     31  C   UNL     1      -5.276  11.504  18.330  0.00  0.00    +0.000 A 
ATOM     32  C   UNL     1      -4.720  12.173  19.404  0.00  0.00    +0.000 A 
ATOM     33  H   UNL     1      -2.584  11.650  17.973  0.00  0.00    +0.000 HD
ENDBRANCH  20  21
ENDBRANCH  19  20
ENDBRANCH  18  19
ENDBRANCH   5  18
TORSDOF 7
ENDMDL
MODEL 8
REMARK VINA RESULT:      -8.2      5.663     11.170
REMARK  Name = 
REMARK  8 active torsions:
REMARK  status: ('A' for Active; 'I' for Inactive)
REMARK    1  A    between atoms: C_1  and  C_2
REMARK    2  A    between atoms: C_5  and  C_6
REMARK    3  A    between atoms: C_6  and  C_7
REMARK    4  A    between atoms: C_7  and  C_8
REMARK    5  A    between atoms: C_12  and  C_14
REMARK    6  A    between atoms: C_14  and  C_15
REMARK    7  A    between atoms: C_15  and  C_16
REMARK    8  A    between atoms: C_16  and  N_17
REMARK                            x       y       z     vdW  Elec       q    Type
REMARK                         _______ _______ _______ _____ _____    ______ ____
ROOT
ATOM      1  C   UNL     1       2.410   5.335  19.301  0.00  0.00    +0.000 C 
ATOM      2  C   UNL     1       2.226   6.142  17.995  0.00  0.00    +0.000 C 
ATOM      3  C   UNL     1       2.660   7.599  18.163  0.00  0.00    +0.000 C 
ATOM      4  N   UNL     1       1.915   8.214  19.259  0.00  0.00    +0.000 N 
ATOM      5  C   UNL     1       1.094   9.295  18.975  0.00  0.00    +0.000 C 
ATOM      6  O   UNL     1       1.015   9.777  17.846  0.00  0.00    +0.000 OA
ATOM      7  C   UNL     1       2.049   7.532  20.550  0.00  0.00    +0.000 C 
ATOM      8  C   UNL     1       1.647   6.058  20.429  0.00  0.00    +0.000 C 
ENDROOT
BRANCH   1   9
ATOM      9  C   UNL     1       3.907   5.115  19.643  0.00  0.00    +0.000 C 
BRANCH   9  10
ATOM     10  C   UNL     1       4.516   3.880  18.960  0.00  0.00    +0.000 C 
BRANCH  10  15
ATOM     11  C   UNL     1       7.357   4.990  13.995  0.00  0.00    +0.000 C 
ATOM     12  C   UNL     1       6.628   4.725  15.278  0.00  0.00    +0.000 A 
ATOM     13  C   UNL     1       7.216   5.003  16.515  0.00  0.00    +0.000 A 
ATOM     14  C   UNL     1       6.524   4.744  17.701  0.00  0.00    +0.000 A 
ATOM     15  C   UNL     1       5.234   4.197  17.671  0.00  0.00    +0.000 A 
ATOM     16  C   UNL     1       4.645   3.925  16.432  0.00  0.00    +0.000 A 
ATOM     17  C   UNL     1       5.338   4.183  15.247  0.00  0.00    +0.000 A 
ENDBRANCH  10  15
ENDBRANCH   9  10
ENDBRANCH   1   9
BRANCH   5  18
ATOM     18  C   UNL     1       0.287   9.901  20.113  0.00  0.00    +0.000 C 
BRANCH  18  19
ATOM     19  C   UNL     1      -0.838  10.795  19.587  0.00  0.00    +0.000 C 
BRANCH  19  20
ATOM     20  C   UNL     1      -1.171  11.877  20.619  0.00  0.00    +0.000 C 
BRANCH  20  21
ATOM     21  N   UNL     1      -2.486  12.443  20.376  0.00  0.00    +0.000 N 
ATOM     22  C   UNL     1      -3.376  12.625  21.411  0.00  0.00    +0.000 C 
ATOM     23  N   UNL     1      -3.034  12.835  22.648  0.00  0.00    +0.000 NA
ATOM     24  S   UNL     1      -4.346  13.070  23.598  0.00  0.00    +0.000 S 
ATOM     25  O   UNL     1      -4.533  11.943  24.489  0.00  0.00    +0.000 OA
ATOM     26  O   UNL     1      -4.395  14.441  24.055  0.00  0.00    +0.000 OA
ATOM     27  C   UNL     1      -5.515  12.895  22.323  0.00  0.00    +0.000 A 
ATOM     28  C   UNL     1      -6.894  12.903  22.415  0.00  0.00    +0.000 A 
ATOM     29  C   UNL     1      -7.606  12.579  21.259  0.00  0.00    +0.000 A 
ATOM     30  C   UNL     1      -6.929  12.241  20.073  0.00  0.00    +0.000 A 
ATOM     31  C   UNL     1      -5.531  12.242  20.019  0.00  0.00    +0.000 A 
ATOM     32  C   UNL     1      -4.836  12.594  21.160  0.00  0.00    +0.000 A 
ATOM     33  H   UNL     1      -2.867  12.156  19.482  0.00  0.00    +0.000 HD
ENDBRANCH  20  21
ENDBRANCH  19  20
ENDBRANCH  18  19
ENDBRANCH   5  18
TORSDOF 7
ENDMDL
MODEL 9
REMARK VINA RESULT:      -8.1      3.222      4.621
REMARK  Name = 
REMARK  8 active torsions:
REMARK  status: ('A' for Active; 'I' for Inactive)
REMARK    1  A    between atoms: C_1  and  C_2
REMARK    2  A    between atoms: C_5  and  C_6
REMARK    3  A    between atoms: C_6  and  C_7
REMARK    4  A    between atoms: C_7  and  C_8
REMARK    5  A    between atoms: C_12  and  C_14
REMARK    6  A    between atoms: C_14  and  C_15
REMARK    7  A    between atoms: C_15  and  C_16
REMARK    8  A    between atoms: C_16  and  N_17
REMARK                            x       y       z     vdW  Elec       q    Type
REMARK                         _______ _______ _______ _____ _____    ______ ____
ROOT
ATOM      1  C   UNL     1       0.122  10.212  20.077  0.00  0.00    +0.000 C 
ATOM      2  C   UNL     1       0.003   9.079  21.122  0.00  0.00    +0.000 C 
ATOM      3  C   UNL     1       1.333   8.352  21.325  0.00  0.00    +0.000 C 
ATOM      4  N   UNL     1       1.810   7.828  20.047  0.00  0.00    +0.000 N 
ATOM      5  C   UNL     1       1.961   6.456  19.911  0.00  0.00    +0.000 C 
ATOM      6  O   UNL     1       1.755   5.680  20.842  0.00  0.00    +0.000 OA
ATOM      7  C   UNL     1       1.980   8.836  18.996  0.00  0.00    +0.000 C 
ATOM      8  C   UNL     1       0.677   9.610  18.771  0.00  0.00    +0.000 C 
ENDROOT
BRANCH   1   9
ATOM      9  C   UNL     1       0.980  11.396  20.597  0.00  0.00    +0.000 C 
BRANCH   9  10
ATOM     10  C   UNL     1       0.269  12.755  20.503  0.00  0.00    +0.000 C 
BRANCH  10  15
ATOM     11  C   UNL     1       3.168  16.698  17.339  0.00  0.00    +0.000 C 
ATOM     12  C   UNL     1       2.440  15.677  18.162  0.00  0.00    +0.000 A 
ATOM     13  C   UNL     1       2.774  14.321  18.094  0.00  0.00    +0.000 A 
ATOM     14  C   UNL     1       2.081  13.384  18.863  0.00  0.00    +0.000 A 
ATOM     15  C   UNL     1       1.039  13.783  19.711  0.00  0.00    +0.000 A 
ATOM     16  C   UNL     1       0.710  15.141  19.782  0.00  0.00    +0.000 A 
ATOM     17  C   UNL     1       1.402  16.078  19.010  0.00  0.00    +0.000 A 
ENDBRANCH  10  15
ENDBRANCH   9  10
ENDBRANCH   1   9
BRANCH   5  18
ATOM     18  C   UNL     1       2.415   5.915  18.564  0.00  0.00    +0.000 C 
BRANCH  18  19
ATOM     19  C   UNL     1       1.860   4.512  18.309  0.00  0.00    +0.000 C 
BRANCH  19  20
ATOM     20  C   UNL     1       2.899   3.459  18.706  0.00  0.00    +0.000 C 
BRANCH  20  21
ATOM     21  N   UNL     1       3.802   3.175  17.604  0.00  0.00    +0.000 N 
ATOM     22  C   UNL     1       4.974   3.882  17.454  0.00  0.00    +0.000 C 
ATOM     23  N   UNL     1       5.639   4.421  18.434  0.00  0.00    +0.000 NA
ATOM     24  S   UNL     1       7.016   5.129  17.902  0.00  0.00    +0.000 S 
ATOM     25  O   UNL     1       6.912   6.570  17.998  0.00  0.00    +0.000 OA
ATOM     26  O   UNL     1       8.171   4.397  18.375  0.00  0.00    +0.000 OA
ATOM     27  C   UNL     1       6.782   4.723  16.228  0.00  0.00    +0.000 A 
ATOM     28  C   UNL     1       7.558   5.080  15.142  0.00  0.00    +0.000 A 
ATOM     29  C   UNL     1       7.060   4.760  13.878  0.00  0.00    +0.000 A 
ATOM     30  C   UNL     1       5.813   4.123  13.740  0.00  0.00    +0.000 A 
ATOM     31  C   UNL     1       5.055   3.779  14.864  0.00  0.00    +0.000 A 
ATOM     32  C   UNL     1       5.571   4.072  16.112  0.00  0.00    +0.000 A 
ATOM     33  H   UNL     1       3.305   2.917  16.759  0.00  0.00    +0.000 HD
ENDBRANCH  20  21
ENDBRANCH  19  20
ENDBRANCH  18  19
ENDBRANCH   5  18
TORSDOF 7
ENDMDL
