MODEL 1
REMARK VINA RESULT:      -8.2      0.000      0.000
REMARK  Name = 
REMARK  6 active torsions:
REMARK  status: ('A' for Active; 'I' for Inactive)
REMARK    1  A    between atoms: C_1  and  C_2
REMARK    2  A    between atoms: C_2  and  C_9
REMARK    3  A    between atoms: N_3  and  O_4
REMARK    4  A    between atoms: O_4  and  C_5
REMARK    5  A    between atoms: N_15  and  C_16
REMARK    6  A    between atoms: C_16  and  C_17
REMARK                            x       y       z     vdW  Elec       q    Type
REMARK                         _______ _______ _______ _____ _____    ______ ____
ROOT
ATOM      1  C   UNL     1       2.296   5.918  19.957  0.00  0.00    +0.000 A 
ATOM      2  C   UNL     1       1.843   5.234  21.053  0.00  0.00    +0.000 A 
ATOM      3  N   UNL     1       2.028   3.895  21.243  0.00  0.00    +0.000 NA
ATOM      4  C   UNL     1       2.734   3.249  20.256  0.00  0.00    +0.000 A 
ATOM      5  N   UNL     1       3.098   1.932  20.137  0.00  0.00    +0.000 NA
ATOM      6  N   UNL     1       3.784   1.796  18.996  0.00  0.00    +0.000 NA
ATOM      7  N   UNL     1       3.860   3.017  18.391  0.00  0.00    +0.000 N 
ATOM      8  C   UNL     1       3.204   3.954  19.163  0.00  0.00    +0.000 A 
ATOM      9  N   UNL     1       3.011   5.289  18.967  0.00  0.00    +0.000 NA
ENDROOT
BRANCH   1  11
ATOM     10  C   UNL     1       2.268   8.113  18.518  0.00  0.00    +0.000 C 
ATOM     11  C   UNL     1       1.911   7.391  19.803  0.00  0.00    +0.000 C 
ATOM     12  N   UNL     1       1.301   7.978  20.798  0.00  0.00    +0.000 NA
BRANCH  12  13
ATOM     13  O   UNL     1       1.009   9.327  20.568  0.00  0.00    +0.000 OA
BRANCH  13  14
ATOM     14  C   UNL     1       0.887  10.113  21.762  0.00  0.00    +0.000 C 
ATOM     15  C   UNL     1      -0.117  11.272  21.828  0.00  0.00    +0.000 C 
ATOM     16  O   UNL     1      -0.457  10.873  23.224  0.00  0.00    +0.000 OA
ATOM     17  C   UNL     1       0.003   9.501  22.877  0.00  0.00    +0.000 C 
ENDBRANCH  13  14
ENDBRANCH  12  13
ENDBRANCH   1  11
BRANCH   7  18
ATOM     18  C   UNL     1       4.541   3.225  17.114  0.00  0.00    +0.000 C 
BRANCH  18  19
ATOM     19  C   UNL     1       5.258   4.535  17.057  0.00  0.00    +0.000 A 
ATOM     20  C   UNL     1       4.981   5.486  16.110  0.00  0.00    +0.000 A 
ATOM     21  C   UNL     1       5.256   6.806  16.403  0.00  0.00    +0.000 A 
ATOM     22  C   UNL     1       6.324   7.120  17.166  0.00  0.00    +0.000 A 
ATOM     23  N   UNL     1       6.784   8.342  17.032  0.00  0.00    +0.000 NA
ATOM     24  C   UNL     1       7.839   8.515  17.792  0.00  0.00    +0.000 A 
ATOM     25  C   UNL     1       8.847   8.711  18.500  0.00  0.00    +0.000 A 
ATOM     26  C   UNL     1       8.055   6.971  18.618  0.00  0.00    +0.000 A 
ATOM     27  C   UNL     1       6.866   6.185  17.980  0.00  0.00    +0.000 A 
ATOM     28  C   UNL     1       6.188   4.880  18.018  0.00  0.00    +0.000 A 
ENDBRANCH  18  19
ENDBRANCH   7  18
TORSDOF 5
ENDMDL
MODEL 2
REMARK VINA RESULT:      -8.1      0.955      1.520
REMARK  Name = 
REMARK  6 active torsions:
REMARK  status: ('A' for Active; 'I' for Inactive)
REMARK    1  A    between atoms: C_1  and  C_2
REMARK    2  A    between atoms: C_2  and  C_9
REMARK    3  A    between atoms: N_3  and  O_4
REMARK    4  A    between atoms: O_4  and  C_5
REMARK    5  A    between atoms: N_15  and  C_16
REMARK    6  A    between atoms: C_16  and  C_17
REMARK                            x       y       z     vdW  Elec       q    Type
REMARK                         _______ _______ _______ _____ _____    ______ ____
ROOT
ATOM      1  C   UNL     1       2.041   5.877  19.797  0.00  0.00    +0.000 A 
ATOM      2  C   UNL     1       1.275   4.973  20.483  0.00  0.00    +0.000 A 
ATOM      3  N   UNL     1       1.312   3.626  20.267  0.00  0.00    +0.000 NA
ATOM      4  C   UNL     1       2.201   3.205  19.307  0.00  0.00    +0.000 A 
ATOM      5  N   UNL     1       2.491   1.944  18.852  0.00  0.00    +0.000 NA
ATOM      6  N   UNL     1       3.436   2.052  17.912  0.00  0.00    +0.000 NA
ATOM      7  N   UNL     1       3.749   3.372  17.766  0.00  0.00    +0.000 N 
ATOM      8  C   UNL     1       2.984   4.125  18.633  0.00  0.00    +0.000 A 
ATOM      9  N   UNL     1       2.941   5.470  18.842  0.00  0.00    +0.000 NA
ENDROOT
BRANCH   1  11
ATOM     10  C   UNL     1       2.045   8.347  18.911  0.00  0.00    +0.000 C 
ATOM     11  C   UNL     1       1.812   7.369  20.046  0.00  0.00    +0.000 C 
ATOM     12  N   UNL     1       1.438   7.747  21.239  0.00  0.00    +0.000 NA
BRANCH  12  13
ATOM     13  O   UNL     1       1.273   9.130  21.371  0.00  0.00    +0.000 OA
BRANCH  13  14
ATOM     14  C   UNL     1      -0.022   9.526  21.843  0.00  0.00    +0.000 C 
ATOM     15  C   UNL     1      -0.299   9.636  23.348  0.00  0.00    +0.000 C 
ATOM     16  O   UNL     1      -1.091  10.873  23.093  0.00  0.00    +0.000 OA
ATOM     17  C   UNL     1      -0.294  11.050  21.849  0.00  0.00    +0.000 C 
ENDBRANCH  13  14
ENDBRANCH  12  13
ENDBRANCH   1  11
BRANCH   7  18
ATOM     18  C   UNL     1       4.748   3.847  16.809  0.00  0.00    +0.000 C 
BRANCH  18  19
ATOM     19  C   UNL     1       5.676   4.855  17.407  0.00  0.00    +0.000 A 
ATOM     20  C   UNL     1       6.449   4.584  18.506  0.00  0.00    +0.000 A 
ATOM     21  C   UNL     1       7.614   5.301  18.683  0.00  0.00    +0.000 A 
ATOM     22  C   UNL     1       7.675   6.595  18.303  0.00  0.00    +0.000 A 
ATOM     23  N   UNL     1       8.599   7.321  18.889  0.00  0.00    +0.000 NA
ATOM     24  C   UNL     1       8.536   8.561  18.468  0.00  0.00    +0.000 A 
ATOM     25  C   UNL     1       8.500   9.750  18.091  0.00  0.00    +0.000 A 
ATOM     26  C   UNL     1       7.219   8.570  17.293  0.00  0.00    +0.000 A 
ATOM     27  C   UNL     1       6.796   7.070  17.391  0.00  0.00    +0.000 A 
ATOM     28  C   UNL     1       5.854   6.093  16.821  0.00  0.00    +0.000 A 
ENDBRANCH  18  19
ENDBRANCH   7  18
TORSDOF 5
ENDMDL
MODEL 3
REMARK VINA RESULT:      -7.9      4.139      8.461
REMARK  Name = 
REMARK  6 active torsions:
REMARK  status: ('A' for Active; 'I' for Inactive)
REMARK    1  A    between atoms: C_1  and  C_2
REMARK    2  A    between atoms: C_2  and  C_9
REMARK    3  A    between atoms: N_3  and  O_4
REMARK    4  A    between atoms: O_4  and  C_5
REMARK    5  A    between atoms: N_15  and  C_16
REMARK    6  A    between atoms: C_16  and  C_17
REMARK                            x       y       z     vdW  Elec       q    Type
REMARK                         _______ _______ _______ _____ _____    ______ ____
ROOT
ATOM      1  C   UNL     1       4.586   4.885  17.985  0.00  0.00    +0.000 A 
ATOM      2  C   UNL     1       4.253   4.025  18.996  0.00  0.00    +0.000 A 
ATOM      3  N   UNL     1       3.373   4.329  19.994  0.00  0.00    +0.000 NA
ATOM      4  C   UNL     1       2.802   5.577  19.920  0.00  0.00    +0.000 A 
ATOM      5  N   UNL     1       1.890   6.190  20.741  0.00  0.00    +0.000 NA
ATOM      6  N   UNL     1       1.640   7.406  20.242  0.00  0.00    +0.000 NA
ATOM      7  N   UNL     1       2.386   7.570  19.111  0.00  0.00    +0.000 N 
ATOM      8  C   UNL     1       3.132   6.431  18.883  0.00  0.00    +0.000 A 
ATOM      9  N   UNL     1       4.017   6.132  17.892  0.00  0.00    +0.000 NA
ENDROOT
BRANCH   1  11
ATOM     10  C   UNL     1       7.133   4.617  17.413  0.00  0.00    +0.000 C 
ATOM     11  C   UNL     1       5.681   4.470  17.001  0.00  0.00    +0.000 C 
ATOM     12  N   UNL     1       5.322   4.017  15.830  0.00  0.00    +0.000 NA
BRANCH  12  13
ATOM     13  O   UNL     1       6.395   3.683  14.995  0.00  0.00    +0.000 OA
BRANCH  13  14
ATOM     14  C   UNL     1       6.378   4.345  13.723  0.00  0.00    +0.000 C 
ATOM     15  C   UNL     1       7.684   4.850  13.095  0.00  0.00    +0.000 C 
ATOM     16  O   UNL     1       7.200   4.386  11.763  0.00  0.00    +0.000 OA
ATOM     17  C   UNL     1       6.336   3.415  12.486  0.00  0.00    +0.000 C 
ENDBRANCH  13  14
ENDBRANCH  12  13
ENDBRANCH   1  11
BRANCH   7  18
ATOM     18  C   UNL     1       2.357   8.796  18.315  0.00  0.00    +0.000 C 
BRANCH  18  19
ATOM     19  C   UNL     1       1.081   9.556  18.484  0.00  0.00    +0.000 A 
ATOM     20  C   UNL     1       0.931  10.544  19.423  0.00  0.00    +0.000 A 
ATOM     21  C   UNL     1      -0.010  11.527  19.197  0.00  0.00    +0.000 A 
ATOM     22  C   UNL     1      -1.162  11.226  18.562  0.00  0.00    +0.000 A 
ATOM     23  N   UNL     1      -2.166  12.045  18.778  0.00  0.00    +0.000 NA
ATOM     24  C   UNL     1      -3.234  11.630  18.140  0.00  0.00    +0.000 A 
ATOM     25  C   UNL     1      -4.269  11.261  17.550  0.00  0.00    +0.000 A 
ATOM     26  C   UNL     1      -2.716  10.168  17.299  0.00  0.00    +0.000 A 
ATOM     27  C   UNL     1      -1.232  10.121  17.784  0.00  0.00    +0.000 A 
ATOM     28  C   UNL     1       0.010   9.346  17.638  0.00  0.00    +0.000 A 
ENDBRANCH  18  19
ENDBRANCH   7  18
TORSDOF 5
ENDMDL
MODEL 4
REMARK VINA RESULT:      -7.9      3.457      8.305
REMARK  Name = 
REMARK  6 active torsions:
REMARK  status: ('A' for Active; 'I' for Inactive)
REMARK    1  A    between atoms: C_1  and  C_2
REMARK    2  A    between atoms: C_2  and  C_9
REMARK    3  A    between atoms: N_3  and  O_4
REMARK    4  A    between atoms: O_4  and  C_5
REMARK    5  A    between atoms: N_15  and  C_16
REMARK    6  A    between atoms: C_16  and  C_17
REMARK                            x       y       z     vdW  Elec       q    Type
REMARK                         _______ _______ _______ _____ _____    ______ ____
ROOT
ATOM      1  C   UNL     1       5.001   4.918  18.015  0.00  0.00    +0.000 A 
ATOM      2  C   UNL     1       4.822   3.731  18.674  0.00  0.00    +0.000 A 
ATOM      3  N   UNL     1       3.881   3.533  19.641  0.00  0.00    +0.000 NA
ATOM      4  C   UNL     1       3.079   4.614  19.917  0.00  0.00    +0.000 A 
ATOM      5  N   UNL     1       2.049   4.755  20.811  0.00  0.00    +0.000 NA
ATOM      6  N   UNL     1       1.576   6.002  20.702  0.00  0.00    +0.000 NA
ATOM      7  N   UNL     1       2.298   6.654  19.745  0.00  0.00    +0.000 N 
ATOM      8  C   UNL     1       3.256   5.803  19.232  0.00  0.00    +0.000 A 
ATOM      9  N   UNL     1       4.202   6.004  18.273  0.00  0.00    +0.000 NA
ENDROOT
BRANCH   1  11
ATOM     10  C   UNL     1       7.571   4.704  17.527  0.00  0.00    +0.000 C 
ATOM     11  C   UNL     1       6.176   5.046  17.043  0.00  0.00    +0.000 C 
ATOM     12  N   UNL     1       5.932   5.465  15.830  0.00  0.00    +0.000 NA
BRANCH  12  13
ATOM     13  O   UNL     1       7.072   5.568  15.024  0.00  0.00    +0.000 OA
BRANCH  13  14
ATOM     14  C   UNL     1       7.224   4.497  14.082  0.00  0.00    +0.000 C 
ATOM     15  C   UNL     1       5.995   3.890  13.393  0.00  0.00    +0.000 C 
ATOM     16  O   UNL     1       6.769   3.817  12.120  0.00  0.00    +0.000 OA
ATOM     17  C   UNL     1       7.616   4.922  12.646  0.00  0.00    +0.000 C 
ENDBRANCH  13  14
ENDBRANCH  12  13
ENDBRANCH   1  11
BRANCH   7  18
ATOM     18  C   UNL     1       2.045   8.046  19.375  0.00  0.00    +0.000 C 
BRANCH  18  19
ATOM     19  C   UNL     1       1.201   8.759  20.380  0.00  0.00    +0.000 A 
ATOM     20  C   UNL     1       1.229   8.453  21.716  0.00  0.00    +0.000 A 
ATOM     21  C   UNL     1       0.872   9.430  22.622  0.00  0.00    +0.000 A 
ATOM     22  C   UNL     1      -0.090  10.324  22.308  0.00  0.00    +0.000 A 
ATOM     23  N   UNL     1      -0.686  10.905  23.323  0.00  0.00    +0.000 NA
ATOM     24  C   UNL     1      -1.620  11.719  22.895  0.00  0.00    +0.000 A 
ATOM     25  C   UNL     1      -2.520  12.498  22.521  0.00  0.00    +0.000 A 
ATOM     26  C   UNL     1      -1.548  11.600  21.136  0.00  0.00    +0.000 A 
ATOM     27  C   UNL     1      -0.401  10.548  21.010  0.00  0.00    +0.000 A 
ATOM     28  C   UNL     1       0.402   9.824  20.012  0.00  0.00    +0.000 A 
ENDBRANCH  18  19
ENDBRANCH   7  18
TORSDOF 5
ENDMDL
MODEL 5
REMARK VINA RESULT:      -7.7      3.551      7.657
REMARK  Name = 
REMARK  6 active torsions:
REMARK  status: ('A' for Active; 'I' for Inactive)
REMARK    1  A    between atoms: C_1  and  C_2
REMARK    2  A    between atoms: C_2  and  C_9
REMARK    3  A    between atoms: N_3  and  O_4
REMARK    4  A    between atoms: O_4  and  C_5
REMARK    5  A    between atoms: N_15  and  C_16
REMARK    6  A    between atoms: C_16  and  C_17
REMARK                            x       y       z     vdW  Elec       q    Type
REMARK                         _______ _______ _______ _____ _____    ______ ____
ROOT
ATOM      1  C   UNL     1       4.093   4.498  17.276  0.00  0.00    +0.000 A 
ATOM      2  C   UNL     1       3.367   3.428  16.827  0.00  0.00    +0.000 A 
ATOM      3  N   UNL     1       2.236   2.968  17.436  0.00  0.00    +0.000 NA
ATOM      4  C   UNL     1       1.837   3.667  18.550  0.00  0.00    +0.000 A 
ATOM      5  N   UNL     1       0.763   3.481  19.383  0.00  0.00    +0.000 NA
ATOM      6  N   UNL     1       0.804   4.430  20.325  0.00  0.00    +0.000 NA
ATOM      7  N   UNL     1       1.895   5.217  20.098  0.00  0.00    +0.000 N 
ATOM      8  C   UNL     1       2.569   4.759  18.984  0.00  0.00    +0.000 A 
ATOM      9  N   UNL     1       3.702   5.213  18.381  0.00  0.00    +0.000 NA
ENDROOT
BRANCH   1  11
ATOM     10  C   UNL     1       6.712   4.654  17.334  0.00  0.00    +0.000 C 
ATOM     11  C   UNL     1       5.412   4.834  16.576  0.00  0.00    +0.000 C 
ATOM     12  N   UNL     1       5.365   5.281  15.349  0.00  0.00    +0.000 NA
BRANCH  12  13
ATOM     13  O   UNL     1       6.619   5.577  14.803  0.00  0.00    +0.000 OA
BRANCH  13  14
ATOM     14  C   UNL     1       7.121   4.576  13.907  0.00  0.00    +0.000 C 
ATOM     15  C   UNL     1       6.154   3.731  13.068  0.00  0.00    +0.000 C 
ATOM     16  O   UNL     1       7.090   3.841  11.913  0.00  0.00    +0.000 OA
ATOM     17  C   UNL     1       7.604   5.094  12.530  0.00  0.00    +0.000 C 
ENDBRANCH  13  14
ENDBRANCH  12  13
ENDBRANCH   1  11
BRANCH   7  18
ATOM     18  C   UNL     1       2.243   6.352  20.951  0.00  0.00    +0.000 C 
BRANCH  18  19
ATOM     19  C   UNL     1       1.718   7.647  20.420  0.00  0.00    +0.000 A 
ATOM     20  C   UNL     1       2.091   8.147  19.200  0.00  0.00    +0.000 A 
ATOM     21  C   UNL     1       1.228   9.006  18.550  0.00  0.00    +0.000 A 
ATOM     22  C   UNL     1       0.469   9.866  19.262  0.00  0.00    +0.000 A 
ATOM     23  N   UNL     1       0.039  10.923  18.612  0.00  0.00    +0.000 NA
ATOM     24  C   UNL     1      -0.652  11.697  19.413  0.00  0.00    +0.000 A 
ATOM     25  C   UNL     1      -1.311  12.459  20.150  0.00  0.00    +0.000 A 
ATOM     26  C   UNL     1      -0.642  10.860  20.966  0.00  0.00    +0.000 A 
ATOM     27  C   UNL     1       0.221   9.621  20.569  0.00  0.00    +0.000 A 
ATOM     28  C   UNL     1       0.763   8.365  21.112  0.00  0.00    +0.000 A 
ENDBRANCH  18  19
ENDBRANCH   7  18
TORSDOF 5
ENDMDL
MODEL 6
REMARK VINA RESULT:      -7.7      2.018      3.144
REMARK  Name = 
REMARK  6 active torsions:
REMARK  status: ('A' for Active; 'I' for Inactive)
REMARK    1  A    between atoms: C_1  and  C_2
REMARK    2  A    between atoms: C_2  and  C_9
REMARK    3  A    between atoms: N_3  and  O_4
REMARK    4  A    between atoms: O_4  and  C_5
REMARK    5  A    between atoms: N_15  and  C_16
REMARK    6  A    between atoms: C_16  and  C_17
REMARK                            x       y       z     vdW  Elec       q    Type
REMARK                         _______ _______ _______ _____ _____    ______ ____
ROOT
ATOM      1  C   UNL     1       2.243   6.534  19.914  0.00  0.00    +0.000 A 
ATOM      2  C   UNL     1       1.390   5.551  20.339  0.00  0.00    +0.000 A 
ATOM      3  N   UNL     1       1.724   4.229  20.401  0.00  0.00    +0.000 NA
ATOM      4  C   UNL     1       3.011   3.926  20.023  0.00  0.00    +0.000 A 
ATOM      5  N   UNL     1       3.664   2.721  19.972  0.00  0.00    +0.000 NA
ATOM      6  N   UNL     1       4.911   2.947  19.542  0.00  0.00    +0.000 NA
ATOM      7  N   UNL     1       5.055   4.285  19.320  0.00  0.00    +0.000 N 
ATOM      8  C   UNL     1       3.870   4.930  19.613  0.00  0.00    +0.000 A 
ATOM      9  N   UNL     1       3.534   6.248  19.542  0.00  0.00    +0.000 NA
ENDROOT
BRANCH   1  11
ATOM     10  C   UNL     1       1.773   8.637  18.416  0.00  0.00    +0.000 C 
ATOM     11  C   UNL     1       1.704   7.959  19.770  0.00  0.00    +0.000 C 
ATOM     12  N   UNL     1       1.217   8.546  20.830  0.00  0.00    +0.000 NA
BRANCH  12  13
ATOM     13  O   UNL     1       0.769   9.852  20.601  0.00  0.00    +0.000 OA
BRANCH  13  14
ATOM     14  C   UNL     1       0.445  10.580  21.794  0.00  0.00    +0.000 C 
ATOM     15  C   UNL     1      -0.886  11.335  21.904  0.00  0.00    +0.000 C 
ATOM     16  O   UNL     1      -1.004  10.881  23.320  0.00  0.00    +0.000 OA
ATOM     17  C   UNL     1      -0.126   9.735  22.958  0.00  0.00    +0.000 C 
ENDBRANCH  13  14
ENDBRANCH  12  13
ENDBRANCH   1  11
BRANCH   7  18
ATOM     18  C   UNL     1       6.301   4.877  18.836  0.00  0.00    +0.000 C 
BRANCH  18  19
ATOM     19  C   UNL     1       6.393   4.873  17.345  0.00  0.00    +0.000 A 
ATOM     20  C   UNL     1       7.205   5.735  16.655  0.00  0.00    +0.000 A 
ATOM     21  C   UNL     1       7.648   5.360  15.402  0.00  0.00    +0.000 A 
ATOM     22  C   UNL     1       6.850   4.629  14.595  0.00  0.00    +0.000 A 
ATOM     23  N   UNL     1       7.119   4.695  13.312  0.00  0.00    +0.000 NA
ATOM     24  C   UNL     1       6.259   3.976  12.631  0.00  0.00    +0.000 A 
ATOM     25  C   UNL     1       5.454   3.306  11.953  0.00  0.00    +0.000 A 
ATOM     26  C   UNL     1       5.194   3.276  13.851  0.00  0.00    +0.000 A 
ATOM     27  C   UNL     1       5.833   3.911  15.126  0.00  0.00    +0.000 A 
ATOM     28  C   UNL     1       5.713   3.936  16.592  0.00  0.00    +0.000 A 
ENDBRANCH  18  19
ENDBRANCH   7  18
TORSDOF 5
ENDMDL
MODEL 7
REMARK VINA RESULT:      -7.7      4.242      7.026
REMARK  Name = 
REMARK  6 active torsions:
REMARK  status: ('A' for Active; 'I' for Inactive)
REMARK    1  A    between atoms: C_1  and  C_2
REMARK    2  A    between atoms: C_2  and  C_9
REMARK    3  A    between atoms: N_3  and  O_4
REMARK    4  A    between atoms: O_4  and  C_5
REMARK    5  A    between atoms: N_15  and  C_16
REMARK    6  A    between atoms: C_16  and  C_17
REMARK                            x       y       z     vdW  Elec       q    Type
REMARK                         _______ _______ _______ _____ _____    ______ ____
ROOT
ATOM      1  C   UNL     1      -1.624  11.307  18.610  0.00  0.00    +0.000 A 
ATOM      2  C   UNL     1      -1.117  12.569  18.766  0.00  0.00    +0.000 A 
ATOM      3  N   UNL     1      -0.135  12.888  19.658  0.00  0.00    +0.000 NA
ATOM      4  C   UNL     1       0.351  11.841  20.404  0.00  0.00    +0.000 A 
ATOM      5  N   UNL     1       1.325  11.811  21.369  0.00  0.00    +0.000 NA
ATOM      6  N   UNL     1       1.441  10.548  21.797  0.00  0.00    +0.000 NA
ATOM      7  N   UNL     1       0.549   9.777  21.111  0.00  0.00    +0.000 N 
ATOM      8  C   UNL     1      -0.156  10.566  20.225  0.00  0.00    +0.000 A 
ATOM      9  N   UNL     1      -1.142  10.248  19.341  0.00  0.00    +0.000 NA
ENDROOT
BRANCH   1  11
ATOM     10  C   UNL     1      -2.612  10.310  16.392  0.00  0.00    +0.000 C 
ATOM     11  C   UNL     1      -2.812  11.106  17.667  0.00  0.00    +0.000 C 
ATOM     12  N   UNL     1      -3.957  11.646  17.990  0.00  0.00    +0.000 NA
BRANCH  12  13
ATOM     13  O   UNL     1      -4.974  11.424  17.056  0.00  0.00    +0.000 OA
BRANCH  13  14
ATOM     14  C   UNL     1      -6.294  11.697  17.548  0.00  0.00    +0.000 C 
ATOM     15  C   UNL     1      -6.876  10.875  18.705  0.00  0.00    +0.000 C 
ATOM     16  O   UNL     1      -7.464  12.123  19.271  0.00  0.00    +0.000 OA
ATOM     17  C   UNL     1      -6.404  12.875  18.547  0.00  0.00    +0.000 C 
ENDBRANCH  13  14
ENDBRANCH  12  13
ENDBRANCH   1  11
BRANCH   7  18
ATOM     18  C   UNL     1       0.407   8.339  21.338  0.00  0.00    +0.000 C 
BRANCH  18  19
ATOM     19  C   UNL     1       1.373   7.536  20.528  0.00  0.00    +0.000 A 
ATOM     20  C   UNL     1       1.698   6.242  20.841  0.00  0.00    +0.000 A 
ATOM     21  C   UNL     1       2.138   5.412  19.830  0.00  0.00    +0.000 A 
ATOM     22  C   UNL     1       2.881   5.913  18.820  0.00  0.00    +0.000 A 
ATOM     23  N   UNL     1       3.625   5.046  18.172  0.00  0.00    +0.000 NA
ATOM     24  C   UNL     1       4.325   5.654  17.244  0.00  0.00    +0.000 A 
ATOM     25  C   UNL     1       5.008   6.202  16.356  0.00  0.00    +0.000 A 
ATOM     26  C   UNL     1       3.854   7.350  17.365  0.00  0.00    +0.000 A 
ATOM     27  C   UNL     1       2.847   7.239  18.553  0.00  0.00    +0.000 A 
ATOM     28  C   UNL     1       1.925   8.045  19.369  0.00  0.00    +0.000 A 
ENDBRANCH  18  19
ENDBRANCH   7  18
TORSDOF 5
ENDMDL
MODEL 8
REMARK VINA RESULT:      -7.7      3.725      7.866
REMARK  Name = 
REMARK  6 active torsions:
REMARK  status: ('A' for Active; 'I' for Inactive)
REMARK    1  A    between atoms: C_1  and  C_2
REMARK    2  A    between atoms: C_2  and  C_9
REMARK    3  A    between atoms: N_3  and  O_4
REMARK    4  A    between atoms: O_4  and  C_5
REMARK    5  A    between atoms: N_15  and  C_16
REMARK    6  A    between atoms: C_16  and  C_17
REMARK                            x       y       z     vdW  Elec       q    Type
REMARK                         _______ _______ _______ _____ _____    ______ ____
ROOT
ATOM      1  C   UNL     1       3.048   4.833  18.608  0.00  0.00    +0.000 A 
ATOM      2  C   UNL     1       2.717   4.383  19.858  0.00  0.00    +0.000 A 
ATOM      3  N   UNL     1       2.155   5.167  20.823  0.00  0.00    +0.000 NA
ATOM      4  C   UNL     1       1.911   6.470  20.460  0.00  0.00    +0.000 A 
ATOM      5  N   UNL     1       1.361   7.506  21.171  0.00  0.00    +0.000 NA
ATOM      6  N   UNL     1       1.330   8.581  20.375  0.00  0.00    +0.000 NA
ATOM      7  N   UNL     1       1.855   8.236  19.164  0.00  0.00    +0.000 N 
ATOM      8  C   UNL     1       2.233   6.909  19.188  0.00  0.00    +0.000 A 
ATOM      9  N   UNL     1       2.802   6.129  18.227  0.00  0.00    +0.000 NA
ENDROOT
BRANCH   1  11
ATOM     10  C   UNL     1       3.671   2.390  17.878  0.00  0.00    +0.000 C 
ATOM     11  C   UNL     1       3.790   3.886  17.662  0.00  0.00    +0.000 C 
ATOM     12  N   UNL     1       4.515   4.407  16.709  0.00  0.00    +0.000 NA
BRANCH  12  13
ATOM     13  O   UNL     1       5.169   3.462  15.910  0.00  0.00    +0.000 OA
BRANCH  13  14
ATOM     14  C   UNL     1       6.484   3.853  15.493  0.00  0.00    +0.000 C 
ATOM     15  C   UNL     1       6.681   4.649  14.196  0.00  0.00    +0.000 C 
ATOM     16  O   UNL     1       7.713   5.477  14.883  0.00  0.00    +0.000 OA
ATOM     17  C   UNL     1       7.047   5.129  16.167  0.00  0.00    +0.000 C 
ENDBRANCH  13  14
ENDBRANCH  12  13
ENDBRANCH   1  11
BRANCH   7  18
ATOM     18  C   UNL     1       1.977   9.183  18.056  0.00  0.00    +0.000 C 
BRANCH  18  19
ATOM     19  C   UNL     1       1.202  10.438  18.291  0.00  0.00    +0.000 A 
ATOM     20  C   UNL     1      -0.167  10.456  18.365  0.00  0.00    +0.000 A 
ATOM     21  C   UNL     1      -0.774  11.468  19.080  0.00  0.00    +0.000 A 
ATOM     22  C   UNL     1      -0.230  12.704  19.095  0.00  0.00    +0.000 A 
ATOM     23  N   UNL     1      -1.051  13.687  19.386  0.00  0.00    +0.000 NA
ATOM     24  C   UNL     1      -0.419  14.835  19.333  0.00  0.00    +0.000 A 
ATOM     25  C   UNL     1       0.151  15.944  19.286  0.00  0.00    +0.000 A 
ATOM     26  C   UNL     1       1.241  14.415  18.908  0.00  0.00    +0.000 A 
ATOM     27  C   UNL     1       1.079  12.866  18.792  0.00  0.00    +0.000 A 
ATOM     28  C   UNL     1       1.844  11.638  18.525  0.00  0.00    +0.000 A 
ENDBRANCH  18  19
ENDBRANCH   7  18
TORSDOF 5
ENDMDL
MODEL 9
REMARK VINA RESULT:      -7.6      1.629      2.179
REMARK  Name = 
REMARK  6 active torsions:
REMARK  status: ('A' for Active; 'I' for Inactive)
REMARK    1  A    between atoms: C_1  and  C_2
REMARK    2  A    between atoms: C_2  and  C_9
REMARK    3  A    between atoms: N_3  and  O_4
REMARK    4  A    between atoms: O_4  and  C_5
REMARK    5  A    between atoms: N_15  and  C_16
REMARK    6  A    between atoms: C_16  and  C_17
REMARK                            x       y       z     vdW  Elec       q    Type
REMARK                         _______ _______ _______ _____ _____    ______ ____
ROOT
ATOM      1  C   UNL     1       1.951   6.076  19.724  0.00  0.00    +0.000 A 
ATOM      2  C   UNL     1       1.162   5.186  20.403  0.00  0.00    +0.000 A 
ATOM      3  N   UNL     1       1.176   3.839  20.185  0.00  0.00    +0.000 NA
ATOM      4  C   UNL     1       2.065   3.402  19.232  0.00  0.00    +0.000 A 
ATOM      5  N   UNL     1       2.334   2.137  18.778  0.00  0.00    +0.000 NA
ATOM      6  N   UNL     1       3.289   2.229  17.845  0.00  0.00    +0.000 NA
ATOM      7  N   UNL     1       3.628   3.543  17.703  0.00  0.00    +0.000 N 
ATOM      8  C   UNL     1       2.870   4.309  18.565  0.00  0.00    +0.000 A 
ATOM      9  N   UNL     1       2.851   5.654  18.775  0.00  0.00    +0.000 NA
ENDROOT
BRANCH   1  11
ATOM     10  C   UNL     1       1.409   8.045  21.373  0.00  0.00    +0.000 C 
ATOM     11  C   UNL     1       1.748   7.572  19.973  0.00  0.00    +0.000 C 
ATOM     12  N   UNL     1       1.859   8.388  18.958  0.00  0.00    +0.000 NA
BRANCH  12  13
ATOM     13  O   UNL     1       1.636   9.731  19.283  0.00  0.00    +0.000 OA
BRANCH  13  14
ATOM     14  C   UNL     1       0.544  10.334  18.575  0.00  0.00    +0.000 C 
ATOM     15  C   UNL     1      -0.887  10.224  19.119  0.00  0.00    +0.000 C 
ATOM     16  O   UNL     1      -1.126  11.642  18.723  0.00  0.00    +0.000 OA
ATOM     17  C   UNL     1       0.344  11.850  18.820  0.00  0.00    +0.000 C 
ENDBRANCH  13  14
ENDBRANCH  12  13
ENDBRANCH   1  11
BRANCH   7  18
ATOM     18  C   UNL     1       4.643   3.999  16.755  0.00  0.00    +0.000 C 
BRANCH  18  19
ATOM     19  C   UNL     1       5.599   4.971  17.368  0.00  0.00    +0.000 A 
ATOM     20  C   UNL     1       6.381   4.653  18.448  0.00  0.00    +0.000 A 
ATOM     21  C   UNL     1       7.564   5.341  18.629  0.00  0.00    +0.000 A 
ATOM     22  C   UNL     1       7.646   6.644  18.285  0.00  0.00    +0.000 A 
ATOM     23  N   UNL     1       8.592   7.334  18.879  0.00  0.00    +0.000 NA
ATOM     24  C   UNL     1       8.548   8.587  18.494  0.00  0.00    +0.000 A 
ATOM     25  C   UNL     1       8.531   9.787  18.153  0.00  0.00    +0.000 A 
ATOM     26  C   UNL     1       7.216   8.656  17.340  0.00  0.00    +0.000 A 
ATOM     27  C   UNL     1       6.764   7.163  17.400  0.00  0.00    +0.000 A 
ATOM     28  C   UNL     1       5.795   6.221  16.816  0.00  0.00    +0.000 A 
ENDBRANCH  18  19
ENDBRANCH   7  18
TORSDOF 5
ENDMDL
