MODEL 1
REMARK VINA RESULT:      -7.0      0.000      0.000
REMARK  Name = 
REMARK  7 active torsions:
REMARK  status: ('A' for Active; 'I' for Inactive)
REMARK    1  A    between atoms: C_1  and  C_2
REMARK    2  A    between atoms: C_2  and  O_3
REMARK    3  A    between atoms: O_3  and  C_4
REMARK    4  A    between atoms: C_8  and  C_9
REMARK    5  A    between atoms: N_10  and  N_11
REMARK    6  A    between atoms: C_12  and  C_14
REMARK    7  A    between atoms: C_20  and  O_21
REMARK                            x       y       z     vdW  Elec       q    Type
REMARK                         _______ _______ _______ _____ _____    ______ ____
ROOT
ATOM      1  C   UNL     1       7.728   6.446  18.496  0.00  0.00    +0.000 C 
ATOM      2  N   UNL     1       7.919   7.645  18.058  0.00  0.00    +0.000 NA
ENDROOT
BRANCH   1   7
ATOM      3  C   UNL     1       4.995   3.973  17.571  0.00  0.00    +0.000 A 
ATOM      4  C   UNL     1       5.187   3.919  16.186  0.00  0.00    +0.000 A 
ATOM      5  C   UNL     1       6.182   4.677  15.567  0.00  0.00    +0.000 A 
ATOM      6  C   UNL     1       7.006   5.502  16.331  0.00  0.00    +0.000 A 
ATOM      7  C   UNL     1       6.843   5.546  17.719  0.00  0.00    +0.000 A 
ATOM      8  C   UNL     1       5.851   4.762  18.347  0.00  0.00    +0.000 A 
BRANCH   8   9
ATOM      9  O   UNL     1       5.720   4.729  19.713  0.00  0.00    +0.000 OA
ATOM     10  H   UNL     1       5.295   3.882  19.984  0.00  0.00    +0.000 HD
ENDBRANCH   8   9
BRANCH   3  11
ATOM     11  O   UNL     1       3.964   3.188  18.015  0.00  0.00    +0.000 OA
BRANCH  11  13
ATOM     12  C   UNL     1       2.026   4.563  17.842  0.00  0.00    +0.000 C 
ATOM     13  C   UNL     1       2.717   3.312  17.326  0.00  0.00    +0.000 C 
ENDBRANCH  11  13
ENDBRANCH   3  11
ENDBRANCH   1   7
BRANCH   2  14
ATOM     14  N   UNL     1       8.731   8.489  18.735  0.00  0.00    +0.000 N 
ATOM     15  C   UNL     1       8.678   9.826  18.355  0.00  0.00    +0.000 C 
ATOM     16  O   UNL     1       7.931  10.259  17.481  0.00  0.00    +0.000 OA
ATOM     17  H   UNL     1       9.273   8.158  19.522  0.00  0.00    +0.000 HD
BRANCH  15  18
ATOM     18  C   UNL     1       9.559  10.773  19.066  0.00  0.00    +0.000 A 
ATOM     19  C   UNL     1       9.457  11.065  20.427  0.00  0.00    +0.000 A 
ATOM     20  C   UNL     1      10.376  11.942  21.003  0.00  0.00    +0.000 A 
ATOM     21  C   UNL     1      11.362  12.494  20.197  0.00  0.00    +0.000 A 
ATOM     22  N   UNL     1      11.489  12.228  18.881  0.00  0.00    +0.000 NA
ATOM     23  C   UNL     1      10.593  11.364  18.347  0.00  0.00    +0.000 A 
ENDBRANCH  15  18
ENDBRANCH   2  14
TORSDOF 6
ENDMDL
MODEL 2
REMARK VINA RESULT:      -7.0      1.651      2.690
REMARK  Name = 
REMARK  7 active torsions:
REMARK  status: ('A' for Active; 'I' for Inactive)
REMARK    1  A    between atoms: C_1  and  C_2
REMARK    2  A    between atoms: C_2  and  O_3
REMARK    3  A    between atoms: O_3  and  C_4
REMARK    4  A    between atoms: C_8  and  C_9
REMARK    5  A    between atoms: N_10  and  N_11
REMARK    6  A    between atoms: C_12  and  C_14
REMARK    7  A    between atoms: C_20  and  O_21
REMARK                            x       y       z     vdW  Elec       q    Type
REMARK                         _______ _______ _______ _____ _____    ______ ____
ROOT
ATOM      1  C   UNL     1       7.758   6.411  18.606  0.00  0.00    +0.000 C 
ATOM      2  N   UNL     1       7.814   7.655  18.264  0.00  0.00    +0.000 NA
ENDROOT
BRANCH   1   7
ATOM      3  C   UNL     1       5.581   4.574  16.091  0.00  0.00    +0.000 A 
ATOM      4  C   UNL     1       4.712   3.917  16.970  0.00  0.00    +0.000 A 
ATOM      5  C   UNL     1       4.837   4.066  18.351  0.00  0.00    +0.000 A 
ATOM      6  C   UNL     1       5.838   4.881  18.877  0.00  0.00    +0.000 A 
ATOM      7  C   UNL     1       6.697   5.565  18.010  0.00  0.00    +0.000 A 
ATOM      8  C   UNL     1       6.556   5.432  16.612  0.00  0.00    +0.000 A 
BRANCH   8   9
ATOM      9  O   UNL     1       7.336   6.149  15.740  0.00  0.00    +0.000 OA
ATOM     10  H   UNL     1       8.055   6.604  16.238  0.00  0.00    +0.000 HD
ENDBRANCH   8   9
BRANCH   3  11
ATOM     11  O   UNL     1       5.337   4.303  14.770  0.00  0.00    +0.000 OA
BRANCH  11  13
ATOM     12  C   UNL     1       5.925   3.518  12.599  0.00  0.00    +0.000 C 
ATOM     13  C   UNL     1       6.400   3.696  14.031  0.00  0.00    +0.000 C 
ENDBRANCH  11  13
ENDBRANCH   3  11
ENDBRANCH   1   7
BRANCH   2  14
ATOM     14  N   UNL     1       8.778   8.453  18.778  0.00  0.00    +0.000 N 
ATOM     15  C   UNL     1       8.726   9.792  18.406  0.00  0.00    +0.000 C 
ATOM     16  O   UNL     1       7.857  10.267  17.679  0.00  0.00    +0.000 OA
ATOM     17  H   UNL     1       9.436   8.091  19.455  0.00  0.00    +0.000 HD
BRANCH  15  18
ATOM     18  C   UNL     1       9.770  10.689  18.940  0.00  0.00    +0.000 A 
ATOM     19  C   UNL     1      10.804  11.227  18.175  0.00  0.00    +0.000 A 
ATOM     20  C   UNL     1      11.709  12.102  18.778  0.00  0.00    +0.000 A 
ATOM     21  C   UNL     1      11.545  12.405  20.122  0.00  0.00    +0.000 A 
ATOM     22  N   UNL     1      10.553  11.904  20.887  0.00  0.00    +0.000 NA
ATOM     23  C   UNL     1       9.679  11.067  20.276  0.00  0.00    +0.000 A 
ENDBRANCH  15  18
ENDBRANCH   2  14
TORSDOF 6
ENDMDL
MODEL 3
REMARK VINA RESULT:      -6.9      1.582      2.512
REMARK  Name = 
REMARK  7 active torsions:
REMARK  status: ('A' for Active; 'I' for Inactive)
REMARK    1  A    between atoms: C_1  and  C_2
REMARK    2  A    between atoms: C_2  and  O_3
REMARK    3  A    between atoms: O_3  and  C_4
REMARK    4  A    between atoms: C_8  and  C_9
REMARK    5  A    between atoms: N_10  and  N_11
REMARK    6  A    between atoms: C_12  and  C_14
REMARK    7  A    between atoms: C_20  and  O_21
REMARK                            x       y       z     vdW  Elec       q    Type
REMARK                         _______ _______ _______ _____ _____    ______ ____
ROOT
ATOM      1  C   UNL     1       7.651   6.382  18.590  0.00  0.00    +0.000 C 
ATOM      2  N   UNL     1       7.836   7.572  18.126  0.00  0.00    +0.000 NA
ENDROOT
BRANCH   1   7
ATOM      3  C   UNL     1       5.619   4.582  15.930  0.00  0.00    +0.000 A 
ATOM      4  C   UNL     1       4.774   3.827  16.751  0.00  0.00    +0.000 A 
ATOM      5  C   UNL     1       4.869   3.900  18.142  0.00  0.00    +0.000 A 
ATOM      6  C   UNL     1       5.815   4.736  18.734  0.00  0.00    +0.000 A 
ATOM      7  C   UNL     1       6.648   5.516  17.926  0.00  0.00    +0.000 A 
ATOM      8  C   UNL     1       6.537   5.459  16.519  0.00  0.00    +0.000 A 
BRANCH   8   9
ATOM      9  O   UNL     1       7.290   6.269  15.706  0.00  0.00    +0.000 OA
ATOM     10  H   UNL     1       7.434   5.823  14.839  0.00  0.00    +0.000 HD
ENDBRANCH   8   9
BRANCH   3  11
ATOM     11  O   UNL     1       5.413   4.378  14.591  0.00  0.00    +0.000 OA
BRANCH  11  13
ATOM     12  C   UNL     1       5.886   3.353  12.493  0.00  0.00    +0.000 C 
ATOM     13  C   UNL     1       6.409   3.626  13.893  0.00  0.00    +0.000 C 
ENDBRANCH  11  13
ENDBRANCH   3  11
ENDBRANCH   1   7
BRANCH   2  14
ATOM     14  N   UNL     1       8.753   8.385  18.700  0.00  0.00    +0.000 N 
ATOM     15  C   UNL     1       8.646   9.738  18.398  0.00  0.00    +0.000 C 
ATOM     16  O   UNL     1       7.768  10.211  17.680  0.00  0.00    +0.000 OA
ATOM     17  H   UNL     1       9.415   8.017  19.370  0.00  0.00    +0.000 HD
BRANCH  15  18
ATOM     18  C   UNL     1       9.637  10.651  18.999  0.00  0.00    +0.000 A 
ATOM     19  C   UNL     1       9.651  11.013  20.346  0.00  0.00    +0.000 A 
ATOM     20  C   UNL     1      10.666  11.848  20.814  0.00  0.00    +0.000 A 
ATOM     21  C   UNL     1      11.628  12.290  19.917  0.00  0.00    +0.000 A 
ATOM     22  N   UNL     1      11.644  11.955  18.611  0.00  0.00    +0.000 NA
ATOM     23  C   UNL     1      10.656  11.133  18.183  0.00  0.00    +0.000 A 
ENDBRANCH  15  18
ENDBRANCH   2  14
TORSDOF 6
ENDMDL
MODEL 4
REMARK VINA RESULT:      -6.9      0.734      1.136
REMARK  Name = 
REMARK  7 active torsions:
REMARK  status: ('A' for Active; 'I' for Inactive)
REMARK    1  A    between atoms: C_1  and  C_2
REMARK    2  A    between atoms: C_2  and  O_3
REMARK    3  A    between atoms: O_3  and  C_4
REMARK    4  A    between atoms: C_8  and  C_9
REMARK    5  A    between atoms: N_10  and  N_11
REMARK    6  A    between atoms: C_12  and  C_14
REMARK    7  A    between atoms: C_20  and  O_21
REMARK                            x       y       z     vdW  Elec       q    Type
REMARK                         _______ _______ _______ _____ _____    ______ ____
ROOT
ATOM      1  C   UNL     1       7.862   6.390  18.496  0.00  0.00    +0.000 C 
ATOM      2  N   UNL     1       7.921   7.637  18.165  0.00  0.00    +0.000 NA
ENDROOT
BRANCH   1   7
ATOM      3  C   UNL     1       4.885   4.203  17.603  0.00  0.00    +0.000 A 
ATOM      4  C   UNL     1       5.207   3.900  16.275  0.00  0.00    +0.000 A 
ATOM      5  C   UNL     1       6.367   4.403  15.683  0.00  0.00    +0.000 A 
ATOM      6  C   UNL     1       7.227   5.218  16.416  0.00  0.00    +0.000 A 
ATOM      7  C   UNL     1       6.932   5.508  17.753  0.00  0.00    +0.000 A 
ATOM      8  C   UNL     1       5.771   4.981  18.358  0.00  0.00    +0.000 A 
BRANCH   8   9
ATOM      9  O   UNL     1       5.497   5.187  19.687  0.00  0.00    +0.000 OA
ATOM     10  H   UNL     1       5.229   4.336  20.105  0.00  0.00    +0.000 HD
ENDBRANCH   8   9
BRANCH   3  11
ATOM     11  O   UNL     1       3.704   3.651  18.023  0.00  0.00    +0.000 OA
BRANCH  11  13
ATOM     12  C   UNL     1       1.335   3.584  18.265  0.00  0.00    +0.000 C 
ATOM     13  C   UNL     1       2.507   4.353  17.679  0.00  0.00    +0.000 C 
ENDBRANCH  11  13
ENDBRANCH   3  11
ENDBRANCH   1   7
BRANCH   2  14
ATOM     14  N   UNL     1       8.768   8.468  18.814  0.00  0.00    +0.000 N 
ATOM     15  C   UNL     1       8.736   9.802  18.423  0.00  0.00    +0.000 C 
ATOM     16  O   UNL     1       7.977  10.245  17.564  0.00  0.00    +0.000 OA
ATOM     17  H   UNL     1       9.323   8.131  19.590  0.00  0.00    +0.000 HD
BRANCH  15  18
ATOM     18  C   UNL     1       9.656  10.734  19.103  0.00  0.00    +0.000 A 
ATOM     19  C   UNL     1      10.782  11.298  18.504  0.00  0.00    +0.000 A 
ATOM     20  C   UNL     1      11.555  12.204  19.230  0.00  0.00    +0.000 A 
ATOM     21  C   UNL     1      11.173  12.512  20.528  0.00  0.00    +0.000 A 
ATOM     22  N   UNL     1      10.088  11.988  21.134  0.00  0.00    +0.000 NA
ATOM     23  C   UNL     1       9.346  11.120  20.404  0.00  0.00    +0.000 A 
ENDBRANCH  15  18
ENDBRANCH   2  14
TORSDOF 6
ENDMDL
MODEL 5
REMARK VINA RESULT:      -6.8      2.362      9.059
REMARK  Name = 
REMARK  7 active torsions:
REMARK  status: ('A' for Active; 'I' for Inactive)
REMARK    1  A    between atoms: C_1  and  C_2
REMARK    2  A    between atoms: C_2  and  O_3
REMARK    3  A    between atoms: O_3  and  C_4
REMARK    4  A    between atoms: C_8  and  C_9
REMARK    5  A    between atoms: N_10  and  N_11
REMARK    6  A    between atoms: C_12  and  C_14
REMARK    7  A    between atoms: C_20  and  O_21
REMARK                            x       y       z     vdW  Elec       q    Type
REMARK                         _______ _______ _______ _____ _____    ______ ____
ROOT
ATOM      1  C   UNL     1       8.113  10.260  17.947  0.00  0.00    +0.000 C 
ATOM      2  N   UNL     1       8.396   9.000  17.959  0.00  0.00    +0.000 NA
ENDROOT
BRANCH   1   7
ATOM      3  C   UNL     1      10.035  13.405  18.874  0.00  0.00    +0.000 A 
ATOM      4  C   UNL     1      10.787  12.912  19.946  0.00  0.00    +0.000 A 
ATOM      5  C   UNL     1      10.666  11.585  20.361  0.00  0.00    +0.000 A 
ATOM      6  C   UNL     1       9.787  10.727  19.703  0.00  0.00    +0.000 A 
ATOM      7  C   UNL     1       9.048  11.198  18.613  0.00  0.00    +0.000 A 
ATOM      8  C   UNL     1       9.188  12.534  18.179  0.00  0.00    +0.000 A 
BRANCH   8   9
ATOM      9  O   UNL     1       8.532  13.000  17.067  0.00  0.00    +0.000 OA
ATOM     10  H   UNL     1       8.934  13.854  16.781  0.00  0.00    +0.000 HD
ENDBRANCH   8   9
BRANCH   3  11
ATOM     11  O   UNL     1      10.255  14.731  18.611  0.00  0.00    +0.000 OA
BRANCH  11  13
ATOM     12  C   UNL     1      11.150  16.086  16.867  0.00  0.00    +0.000 C 
ATOM     13  C   UNL     1      11.474  15.061  17.940  0.00  0.00    +0.000 C 
ENDBRANCH  11  13
ENDBRANCH   3  11
ENDBRANCH   1   7
BRANCH   2  14
ATOM     14  N   UNL     1       7.572   8.117  17.350  0.00  0.00    +0.000 N 
ATOM     15  C   UNL     1       7.511   6.847  17.914  0.00  0.00    +0.000 C 
ATOM     16  O   UNL     1       8.131   6.516  18.922  0.00  0.00    +0.000 OA
ATOM     17  H   UNL     1       6.984   8.412  16.582  0.00  0.00    +0.000 HD
BRANCH  15  18
ATOM     18  C   UNL     1       6.629   5.856  17.267  0.00  0.00    +0.000 A 
ATOM     19  C   UNL     1       7.071   4.888  16.366  0.00  0.00    +0.000 A 
ATOM     20  C   UNL     1       6.153   3.971  15.851  0.00  0.00    +0.000 A 
ATOM     21  C   UNL     1       4.829   4.058  16.258  0.00  0.00    +0.000 A 
ATOM     22  N   UNL     1       4.372   4.980  17.130  0.00  0.00    +0.000 NA
ATOM     23  C   UNL     1       5.285   5.851  17.626  0.00  0.00    +0.000 A 
ENDBRANCH  15  18
ENDBRANCH   2  14
TORSDOF 6
ENDMDL
MODEL 6
REMARK VINA RESULT:      -6.8      2.372      9.013
REMARK  Name = 
REMARK  7 active torsions:
REMARK  status: ('A' for Active; 'I' for Inactive)
REMARK    1  A    between atoms: C_1  and  C_2
REMARK    2  A    between atoms: C_2  and  O_3
REMARK    3  A    between atoms: O_3  and  C_4
REMARK    4  A    between atoms: C_8  and  C_9
REMARK    5  A    between atoms: N_10  and  N_11
REMARK    6  A    between atoms: C_12  and  C_14
REMARK    7  A    between atoms: C_20  and  O_21
REMARK                            x       y       z     vdW  Elec       q    Type
REMARK                         _______ _______ _______ _____ _____    ______ ____
ROOT
ATOM      1  C   UNL     1       8.276  10.296  17.738  0.00  0.00    +0.000 C 
ATOM      2  N   UNL     1       8.339   9.041  18.036  0.00  0.00    +0.000 NA
ENDROOT
BRANCH   1   7
ATOM      3  C   UNL     1      10.003  13.477  18.896  0.00  0.00    +0.000 A 
ATOM      4  C   UNL     1      10.779  12.956  19.938  0.00  0.00    +0.000 A 
ATOM      5  C   UNL     1      10.735  11.599  20.259  0.00  0.00    +0.000 A 
ATOM      6  C   UNL     1       9.911  10.738  19.536  0.00  0.00    +0.000 A 
ATOM      7  C   UNL     1       9.151  11.239  18.474  0.00  0.00    +0.000 A 
ATOM      8  C   UNL     1       9.212  12.608  18.136  0.00  0.00    +0.000 A 
BRANCH   8   9
ATOM      9  O   UNL     1       8.534  13.111  17.054  0.00  0.00    +0.000 OA
ATOM     10  H   UNL     1       8.791  12.613  16.243  0.00  0.00    +0.000 HD
ENDBRANCH   8   9
BRANCH   3  11
ATOM     11  O   UNL     1      10.144  14.829  18.727  0.00  0.00    +0.000 OA
BRANCH  11  13
ATOM     12  C   UNL     1      11.052  15.915  16.811  0.00  0.00    +0.000 C 
ATOM     13  C   UNL     1      11.374  15.281  18.154  0.00  0.00    +0.000 C 
ENDBRANCH  11  13
ENDBRANCH   3  11
ENDBRANCH   1   7
BRANCH   2  14
ATOM     14  N   UNL     1       7.564   8.151  17.375  0.00  0.00    +0.000 N 
ATOM     15  C   UNL     1       7.509   6.869  17.913  0.00  0.00    +0.000 C 
ATOM     16  O   UNL     1       8.092   6.534  18.941  0.00  0.00    +0.000 OA
ATOM     17  H   UNL     1       7.003   8.446  16.587  0.00  0.00    +0.000 HD
BRANCH  15  18
ATOM     18  C   UNL     1       6.681   5.870  17.209  0.00  0.00    +0.000 A 
ATOM     19  C   UNL     1       5.359   5.578  17.541  0.00  0.00    +0.000 A 
ATOM     20  C   UNL     1       4.657   4.646  16.776  0.00  0.00    +0.000 A 
ATOM     21  C   UNL     1       5.305   4.042  15.708  0.00  0.00    +0.000 A 
ATOM     22  N   UNL     1       6.581   4.306  15.359  0.00  0.00    +0.000 NA
ATOM     23  C   UNL     1       7.238   5.224  16.110  0.00  0.00    +0.000 A 
ENDBRANCH  15  18
ENDBRANCH   2  14
TORSDOF 6
ENDMDL
MODEL 7
REMARK VINA RESULT:      -6.7      5.277      7.311
REMARK  Name = 
REMARK  7 active torsions:
REMARK  status: ('A' for Active; 'I' for Inactive)
REMARK    1  A    between atoms: C_1  and  C_2
REMARK    2  A    between atoms: C_2  and  O_3
REMARK    3  A    between atoms: O_3  and  C_4
REMARK    4  A    between atoms: C_8  and  C_9
REMARK    5  A    between atoms: N_10  and  N_11
REMARK    6  A    between atoms: C_12  and  C_14
REMARK    7  A    between atoms: C_20  and  O_21
REMARK                            x       y       z     vdW  Elec       q    Type
REMARK                         _______ _______ _______ _____ _____    ______ ____
ROOT
ATOM      1  C   UNL     1       1.902   5.778  19.903  0.00  0.00    +0.000 C 
ATOM      2  N   UNL     1       2.253   7.008  20.081  0.00  0.00    +0.000 NA
ENDROOT
BRANCH   1   7
ATOM      3  C   UNL     1       4.854   4.077  18.220  0.00  0.00    +0.000 A 
ATOM      4  C   UNL     1       4.170   3.301  17.277  0.00  0.00    +0.000 A 
ATOM      5  C   UNL     1       2.778   3.328  17.196  0.00  0.00    +0.000 A 
ATOM      6  C   UNL     1       2.045   4.139  18.061  0.00  0.00    +0.000 A 
ATOM      7  C   UNL     1       2.716   4.940  18.991  0.00  0.00    +0.000 A 
ATOM      8  C   UNL     1       4.126   4.929  19.057  0.00  0.00    +0.000 A 
BRANCH   8   9
ATOM      9  O   UNL     1       4.811   5.761  19.908  0.00  0.00    +0.000 OA
ATOM     10  H   UNL     1       4.595   6.699  19.697  0.00  0.00    +0.000 HD
ENDBRANCH   8   9
BRANCH   3  11
ATOM     11  O   UNL     1       6.214   3.917  18.182  0.00  0.00    +0.000 OA
BRANCH  11  13
ATOM     12  C   UNL     1       7.084   4.568  16.063  0.00  0.00    +0.000 C 
ATOM     13  C   UNL     1       6.965   4.944  17.529  0.00  0.00    +0.000 C 
ENDBRANCH  11  13
ENDBRANCH   3  11
ENDBRANCH   1   7
BRANCH   2  14
ATOM     14  N   UNL     1       1.541   7.798  20.917  0.00  0.00    +0.000 N 
ATOM     15  C   UNL     1       1.073   8.994  20.381  0.00  0.00    +0.000 C 
ATOM     16  O   UNL     1       1.251   9.335  19.214  0.00  0.00    +0.000 OA
ATOM     17  H   UNL     1       1.306   7.479  21.848  0.00  0.00    +0.000 HD
BRANCH  15  18
ATOM     18  C   UNL     1       0.303   9.884  21.270  0.00  0.00    +0.000 A 
ATOM     19  C   UNL     1      -0.339   9.462  22.434  0.00  0.00    +0.000 A 
ATOM     20  C   UNL     1      -1.001  10.403  23.223  0.00  0.00    +0.000 A 
ATOM     21  C   UNL     1      -0.997  11.730  22.818  0.00  0.00    +0.000 A 
ATOM     22  N   UNL     1      -0.383  12.170  21.701  0.00  0.00    +0.000 NA
ATOM     23  C   UNL     1       0.264  11.240  20.957  0.00  0.00    +0.000 A 
ENDBRANCH  15  18
ENDBRANCH   2  14
TORSDOF 6
ENDMDL
MODEL 8
REMARK VINA RESULT:      -6.6      1.878      2.457
REMARK  Name = 
REMARK  7 active torsions:
REMARK  status: ('A' for Active; 'I' for Inactive)
REMARK    1  A    between atoms: C_1  and  C_2
REMARK    2  A    between atoms: C_2  and  O_3
REMARK    3  A    between atoms: O_3  and  C_4
REMARK    4  A    between atoms: C_8  and  C_9
REMARK    5  A    between atoms: N_10  and  N_11
REMARK    6  A    between atoms: C_12  and  C_14
REMARK    7  A    between atoms: C_20  and  O_21
REMARK                            x       y       z     vdW  Elec       q    Type
REMARK                         _______ _______ _______ _____ _____    ______ ____
ROOT
ATOM      1  C   UNL     1       7.782   7.960  17.270  0.00  0.00    +0.000 C 
ATOM      2  N   UNL     1       8.102   8.833  18.166  0.00  0.00    +0.000 NA
ENDROOT
BRANCH   1   7
ATOM      3  C   UNL     1       5.299   5.083  17.343  0.00  0.00    +0.000 A 
ATOM      4  C   UNL     1       5.688   4.469  18.538  0.00  0.00    +0.000 A 
ATOM      5  C   UNL     1       6.740   4.978  19.301  0.00  0.00    +0.000 A 
ATOM      6  C   UNL     1       7.420   6.118  18.876  0.00  0.00    +0.000 A 
ATOM      7  C   UNL     1       7.025   6.759  17.697  0.00  0.00    +0.000 A 
ATOM      8  C   UNL     1       5.947   6.256  16.938  0.00  0.00    +0.000 A 
BRANCH   8   9
ATOM      9  O   UNL     1       5.492   6.907  15.819  0.00  0.00    +0.000 OA
ATOM     10  H   UNL     1       5.438   7.875  15.999  0.00  0.00    +0.000 HD
ENDBRANCH   8   9
BRANCH   3  11
ATOM     11  O   UNL     1       4.268   4.446  16.706  0.00  0.00    +0.000 OA
BRANCH  11  13
ATOM     12  C   UNL     1       2.158   3.746  17.563  0.00  0.00    +0.000 C 
ATOM     13  C   UNL     1       3.627   3.385  17.420  0.00  0.00    +0.000 C 
ENDBRANCH  11  13
ENDBRANCH   3  11
ENDBRANCH   1   7
BRANCH   2  14
ATOM     14  N   UNL     1       8.781   9.947  17.810  0.00  0.00    +0.000 N 
ATOM     15  C   UNL     1       9.357  10.671  18.848  0.00  0.00    +0.000 C 
ATOM     16  O   UNL     1       9.300  10.337  20.029  0.00  0.00    +0.000 OA
ATOM     17  H   UNL     1       8.917  10.174  16.833  0.00  0.00    +0.000 HD
BRANCH  15  18
ATOM     18  C   UNL     1      10.096  11.899  18.494  0.00  0.00    +0.000 A 
ATOM     19  C   UNL     1      11.221  11.924  17.670  0.00  0.00    +0.000 A 
ATOM     20  C   UNL     1      11.812  13.151  17.367  0.00  0.00    +0.000 A 
ATOM     21  C   UNL     1      11.255  14.306  17.899  0.00  0.00    +0.000 A 
ATOM     22  N   UNL     1      10.167  14.315  18.694  0.00  0.00    +0.000 NA
ATOM     23  C   UNL     1       9.603  13.112  18.965  0.00  0.00    +0.000 A 
ENDBRANCH  15  18
ENDBRANCH   2  14
TORSDOF 6
ENDMDL
MODEL 9
REMARK VINA RESULT:      -6.6      6.044      7.455
REMARK  Name = 
REMARK  7 active torsions:
REMARK  status: ('A' for Active; 'I' for Inactive)
REMARK    1  A    between atoms: C_1  and  C_2
REMARK    2  A    between atoms: C_2  and  O_3
REMARK    3  A    between atoms: O_3  and  C_4
REMARK    4  A    between atoms: C_8  and  C_9
REMARK    5  A    between atoms: N_10  and  N_11
REMARK    6  A    between atoms: C_12  and  C_14
REMARK    7  A    between atoms: C_20  and  O_21
REMARK                            x       y       z     vdW  Elec       q    Type
REMARK                         _______ _______ _______ _____ _____    ______ ____
ROOT
ATOM      1  C   UNL     1       1.843   5.306  20.352  0.00  0.00    +0.000 C 
ATOM      2  N   UNL     1       2.188   6.550  20.327  0.00  0.00    +0.000 NA
ENDROOT
BRANCH   1   7
ATOM      3  C   UNL     1       3.881   3.793  17.523  0.00  0.00    +0.000 A 
ATOM      4  C   UNL     1       4.077   2.507  18.038  0.00  0.00    +0.000 A 
ATOM      5  C   UNL     1       3.560   2.142  19.282  0.00  0.00    +0.000 A 
ATOM      6  C   UNL     1       2.834   3.066  20.032  0.00  0.00    +0.000 A 
ATOM      7  C   UNL     1       2.607   4.347  19.519  0.00  0.00    +0.000 A 
ATOM      8  C   UNL     1       3.111   4.708  18.251  0.00  0.00    +0.000 A 
BRANCH   8   9
ATOM      9  O   UNL     1       2.840   5.932  17.692  0.00  0.00    +0.000 OA
ATOM     10  H   UNL     1       2.537   5.811  16.762  0.00  0.00    +0.000 HD
ENDBRANCH   8   9
BRANCH   3  11
ATOM     11  O   UNL     1       4.472   3.995  16.304  0.00  0.00    +0.000 OA
BRANCH  11  13
ATOM     12  C   UNL     1       6.401   4.027  14.906  0.00  0.00    +0.000 C 
ATOM     13  C   UNL     1       5.872   4.286  16.307  0.00  0.00    +0.000 C 
ENDBRANCH  11  13
ENDBRANCH   3  11
ENDBRANCH   1   7
BRANCH   2  14
ATOM     14  N   UNL     1       1.522   7.451  21.084  0.00  0.00    +0.000 N 
ATOM     15  C   UNL     1       1.173   8.641  20.455  0.00  0.00    +0.000 C 
ATOM     16  O   UNL     1       1.414   8.887  19.276  0.00  0.00    +0.000 OA
ATOM     17  H   UNL     1       1.232   7.215  22.024  0.00  0.00    +0.000 HD
BRANCH  15  18
ATOM     18  C   UNL     1       0.454   9.651  21.257  0.00  0.00    +0.000 A 
ATOM     19  C   UNL     1      -0.084  10.826  20.733  0.00  0.00    +0.000 A 
ATOM     20  C   UNL     1      -0.785  11.687  21.578  0.00  0.00    +0.000 A 
ATOM     21  C   UNL     1      -0.921  11.339  22.915  0.00  0.00    +0.000 A 
ATOM     22  N   UNL     1      -0.416  10.209  23.450  0.00  0.00    +0.000 NA
ATOM     23  C   UNL     1       0.249   9.383  22.607  0.00  0.00    +0.000 A 
ENDBRANCH  15  18
ENDBRANCH   2  14
TORSDOF 6
ENDMDL
