MODEL 1
REMARK VINA RESULT:      -7.1      0.000      0.000
REMARK  Name = 
REMARK  5 active torsions:
REMARK  status: ('A' for Active; 'I' for Inactive)
REMARK    1  A    between atoms: C_1  and  C_2
REMARK    2  A    between atoms: N_5  and  C_6
REMARK    3  A    between atoms: C_6  and  C_7
REMARK    4  A    between atoms: C_7  and  C_8
REMARK    5  A    between atoms: N_10  and  C_11
REMARK                            x       y       z     vdW  Elec       q    Type
REMARK                         _______ _______ _______ _____ _____    ______ ____
ROOT
ATOM      1  C   UNL     1       2.818   5.222  18.210  0.00  0.00    +0.000 C 
ATOM      2  O   UNL     1       1.666   5.014  17.862  0.00  0.00    +0.000 OA
ATOM      3  N   UNL     1       3.206   6.435  18.704  0.00  0.00    +0.000 N 
ATOM      4  H   UNL     1       4.215   6.565  18.889  0.00  0.00    +0.000 HD
ENDROOT
BRANCH   3   5
ATOM      5  C   UNL     1       2.353   7.571  18.904  0.00  0.00    +0.000 A 
ATOM      6  C   UNL     1       2.031   8.495  17.882  0.00  0.00    +0.000 A 
ATOM      7  C   UNL     1       1.225   9.602  18.152  0.00  0.00    +0.000 A 
ATOM      8  C   UNL     1       0.724   9.809  19.437  0.00  0.00    +0.000 A 
ATOM      9 CL   UNL     1      -0.262  11.219  19.775  0.00  0.00    +0.000 Cl
ATOM     10  C   UNL     1       1.014   8.894  20.452  0.00  0.00    +0.000 A 
ATOM     11  C   UNL     1       1.813   7.779  20.186  0.00  0.00    +0.000 A 
ENDBRANCH   3   5
BRANCH   1  12
ATOM     12  C   UNL     1       3.822   4.119  18.015  0.00  0.00    +0.000 C 
BRANCH  12  13
ATOM     13  C   UNL     1       5.198   4.518  18.566  0.00  0.00    +0.000 C 
BRANCH  13  18
ATOM     14  C   UNL     1       7.766   8.556  17.796  0.00  0.00    +0.000 C 
ATOM     15  C   UNL     1       7.584   7.103  17.353  0.00  0.00    +0.000 C 
ATOM     16  C   UNL     1       6.166   6.870  16.799  0.00  0.00    +0.000 C 
ATOM     17  C   UNL     1       5.981   5.388  16.411  0.00  0.00    +0.000 C 
ATOM     18  N   UNL     1       6.271   4.469  17.539  0.00  0.00    +0.000 NA
ATOM     19  C   UNL     1       7.647   4.700  18.047  0.00  0.00    +0.000 C 
ATOM     20  C   UNL     1       7.850   6.143  18.524  0.00  0.00    +0.000 C 
ENDBRANCH  13  18
ENDBRANCH  12  13
ENDBRANCH   1  12
TORSDOF 4
ENDMDL
MODEL 2
REMARK VINA RESULT:      -7.0      0.313      1.144
REMARK  Name = 
REMARK  5 active torsions:
REMARK  status: ('A' for Active; 'I' for Inactive)
REMARK    1  A    between atoms: C_1  and  C_2
REMARK    2  A    between atoms: N_5  and  C_6
REMARK    3  A    between atoms: C_6  and  C_7
REMARK    4  A    between atoms: C_7  and  C_8
REMARK    5  A    between atoms: N_10  and  C_11
REMARK                            x       y       z     vdW  Elec       q    Type
REMARK                         _______ _______ _______ _____ _____    ______ ____
ROOT
ATOM      1  C   UNL     1       2.822   5.189  18.601  0.00  0.00    +0.000 C 
ATOM      2  O   UNL     1       1.715   4.991  18.127  0.00  0.00    +0.000 OA
ATOM      3  N   UNL     1       3.175   6.407  19.108  0.00  0.00    +0.000 N 
ATOM      4  H   UNL     1       4.158   6.525  19.405  0.00  0.00    +0.000 HD
ENDROOT
BRANCH   3   5
ATOM      5  C   UNL     1       2.327   7.563  19.181  0.00  0.00    +0.000 A 
ATOM      6  C   UNL     1       1.668   7.973  20.363  0.00  0.00    +0.000 A 
ATOM      7  C   UNL     1       0.825   9.086  20.358  0.00  0.00    +0.000 A 
ATOM      8  C   UNL     1       0.623   9.808  19.182  0.00  0.00    +0.000 A 
ATOM      9 CL   UNL     1      -0.462  11.185  19.176  0.00  0.00    +0.000 Cl
ATOM     10  C   UNL     1       1.285   9.429  18.011  0.00  0.00    +0.000 A 
ATOM     11  C   UNL     1       2.137   8.322  18.013  0.00  0.00    +0.000 A 
ENDBRANCH   3   5
BRANCH   1  12
ATOM     12  C   UNL     1       3.820   4.065  18.550  0.00  0.00    +0.000 C 
BRANCH  12  13
ATOM     13  C   UNL     1       5.231   4.558  18.900  0.00  0.00    +0.000 C 
BRANCH  13  18
ATOM     14  C   UNL     1       7.760   8.539  17.782  0.00  0.00    +0.000 C 
ATOM     15  C   UNL     1       7.502   7.084  17.382  0.00  0.00    +0.000 C 
ATOM     16  C   UNL     1       6.026   6.872  17.002  0.00  0.00    +0.000 C 
ATOM     17  C   UNL     1       5.770   5.390  16.657  0.00  0.00    +0.000 C 
ATOM     18  N   UNL     1       6.174   4.478  17.755  0.00  0.00    +0.000 NA
ATOM     19  C   UNL     1       7.605   4.689  18.095  0.00  0.00    +0.000 C 
ATOM     20  C   UNL     1       7.887   6.133  18.526  0.00  0.00    +0.000 C 
ENDBRANCH  13  18
ENDBRANCH  12  13
ENDBRANCH   1  12
TORSDOF 4
ENDMDL
MODEL 3
REMARK VINA RESULT:      -6.6      3.139      5.928
REMARK  Name = 
REMARK  5 active torsions:
REMARK  status: ('A' for Active; 'I' for Inactive)
REMARK    1  A    between atoms: C_1  and  C_2
REMARK    2  A    between atoms: N_5  and  C_6
REMARK    3  A    between atoms: C_6  and  C_7
REMARK    4  A    between atoms: C_7  and  C_8
REMARK    5  A    between atoms: N_10  and  C_11
REMARK                            x       y       z     vdW  Elec       q    Type
REMARK                         _______ _______ _______ _____ _____    ______ ____
ROOT
ATOM      1  C   UNL     1       4.578   3.453  17.372  0.00  0.00    +0.000 C 
ATOM      2  O   UNL     1       4.941   3.598  16.215  0.00  0.00    +0.000 OA
ATOM      3  N   UNL     1       5.013   4.282  18.366  0.00  0.00    +0.000 N 
ATOM      4  H   UNL     1       4.739   4.040  19.333  0.00  0.00    +0.000 HD
ENDROOT
BRANCH   3   5
ATOM      5  C   UNL     1       5.890   5.406  18.197  0.00  0.00    +0.000 A 
ATOM      6  C   UNL     1       7.175   5.487  18.783  0.00  0.00    +0.000 A 
ATOM      7  C   UNL     1       7.964   6.626  18.611  0.00  0.00    +0.000 A 
ATOM      8  C   UNL     1       7.493   7.699  17.856  0.00  0.00    +0.000 A 
ATOM      9 CL   UNL     1       8.477   9.138  17.671  0.00  0.00    +0.000 Cl
ATOM     10  C   UNL     1       6.235   7.625  17.252  0.00  0.00    +0.000 A 
ATOM     11  C   UNL     1       5.445   6.485  17.413  0.00  0.00    +0.000 A 
ENDBRANCH   3   5
BRANCH   1  12
ATOM     12  C   UNL     1       3.685   2.285  17.687  0.00  0.00    +0.000 C 
BRANCH  12  13
ATOM     13  C   UNL     1       3.439   2.166  19.197  0.00  0.00    +0.000 C 
BRANCH  13  18
ATOM     14  C   UNL     1       1.576   6.336  20.819  0.00  0.00    +0.000 C 
ATOM     15  C   UNL     1       1.250   4.874  20.507  0.00  0.00    +0.000 C 
ATOM     16  C   UNL     1       2.102   3.924  21.367  0.00  0.00    +0.000 C 
ATOM     17  C   UNL     1       1.803   2.456  21.000  0.00  0.00    +0.000 C 
ATOM     18  N   UNL     1       1.998   2.185  19.554  0.00  0.00    +0.000 NA
ATOM     19  C   UNL     1       1.154   3.101  18.744  0.00  0.00    +0.000 C 
ATOM     20  C   UNL     1       1.479   4.575  19.017  0.00  0.00    +0.000 C 
ENDBRANCH  13  18
ENDBRANCH  12  13
ENDBRANCH   1  12
TORSDOF 4
ENDMDL
MODEL 4
REMARK VINA RESULT:      -6.5      2.227      3.963
REMARK  Name = 
REMARK  5 active torsions:
REMARK  status: ('A' for Active; 'I' for Inactive)
REMARK    1  A    between atoms: C_1  and  C_2
REMARK    2  A    between atoms: N_5  and  C_6
REMARK    3  A    between atoms: C_6  and  C_7
REMARK    4  A    between atoms: C_7  and  C_8
REMARK    5  A    between atoms: N_10  and  C_11
REMARK                            x       y       z     vdW  Elec       q    Type
REMARK                         _______ _______ _______ _____ _____    ______ ____
ROOT
ATOM      1  C   UNL     1       4.133   6.330  17.434  0.00  0.00    +0.000 C 
ATOM      2  O   UNL     1       4.883   7.290  17.511  0.00  0.00    +0.000 OA
ATOM      3  N   UNL     1       2.854   6.382  17.910  0.00  0.00    +0.000 N 
ATOM      4  H   UNL     1       2.311   5.503  17.895  0.00  0.00    +0.000 HD
ENDROOT
BRANCH   3   5
ATOM      5  C   UNL     1       2.229   7.526  18.510  0.00  0.00    +0.000 A 
ATOM      6  C   UNL     1       1.853   8.681  17.784  0.00  0.00    +0.000 A 
ATOM      7  C   UNL     1       1.284   9.776  18.434  0.00  0.00    +0.000 A 
ATOM      8  C   UNL     1       1.077   9.744  19.813  0.00  0.00    +0.000 A 
ATOM      9 CL   UNL     1       0.390  11.137  20.627  0.00  0.00    +0.000 Cl
ATOM     10  C   UNL     1       1.422   8.603  20.542  0.00  0.00    +0.000 A 
ATOM     11  C   UNL     1       1.984   7.500  19.894  0.00  0.00    +0.000 A 
ENDBRANCH   3   5
BRANCH   1  12
ATOM     12  C   UNL     1       4.682   5.054  16.857  0.00  0.00    +0.000 C 
BRANCH  12  13
ATOM     13  C   UNL     1       3.703   3.888  17.058  0.00  0.00    +0.000 C 
BRANCH  13  18
ATOM     14  C   UNL     1       1.188   2.989  21.102  0.00  0.00    +0.000 C 
ATOM     15  C   UNL     1       2.441   2.603  20.313  0.00  0.00    +0.000 C 
ATOM     16  C   UNL     1       3.375   3.813  20.136  0.00  0.00    +0.000 C 
ATOM     17  C   UNL     1       4.604   3.421  19.290  0.00  0.00    +0.000 C 
ATOM     18  N   UNL     1       4.224   2.844  17.977  0.00  0.00    +0.000 NA
ATOM     19  C   UNL     1       3.337   1.669  18.172  0.00  0.00    +0.000 C 
ATOM     20  C   UNL     1       2.059   2.034  18.937  0.00  0.00    +0.000 C 
ENDBRANCH  13  18
ENDBRANCH  12  13
ENDBRANCH   1  12
TORSDOF 4
ENDMDL
MODEL 5
REMARK VINA RESULT:      -6.5      1.363      2.354
REMARK  Name = 
REMARK  5 active torsions:
REMARK  status: ('A' for Active; 'I' for Inactive)
REMARK    1  A    between atoms: C_1  and  C_2
REMARK    2  A    between atoms: N_5  and  C_6
REMARK    3  A    between atoms: C_6  and  C_7
REMARK    4  A    between atoms: C_7  and  C_8
REMARK    5  A    between atoms: N_10  and  C_11
REMARK                            x       y       z     vdW  Elec       q    Type
REMARK                         _______ _______ _______ _____ _____    ______ ____
ROOT
ATOM      1  C   UNL     1       2.679   5.107  19.470  0.00  0.00    +0.000 C 
ATOM      2  O   UNL     1       1.621   4.879  18.906  0.00  0.00    +0.000 OA
ATOM      3  N   UNL     1       2.985   6.354  19.937  0.00  0.00    +0.000 N 
ATOM      4  H   UNL     1       3.936   6.492  20.318  0.00  0.00    +0.000 HD
ENDROOT
BRANCH   3   5
ATOM      5  C   UNL     1       2.136   7.508  19.865  0.00  0.00    +0.000 A 
ATOM      6  C   UNL     1       1.315   7.941  20.933  0.00  0.00    +0.000 A 
ATOM      7  C   UNL     1       0.482   9.051  20.785  0.00  0.00    +0.000 A 
ATOM      8  C   UNL     1       0.451   9.749  19.578  0.00  0.00    +0.000 A 
ATOM      9 CL   UNL     1      -0.621  11.124  19.390  0.00  0.00    +0.000 Cl
ATOM     10  C   UNL     1       1.272   9.348  18.522  0.00  0.00    +0.000 A 
ATOM     11  C   UNL     1       2.114   8.244  18.667  0.00  0.00    +0.000 A 
ENDBRANCH   3   5
BRANCH   1  12
ATOM     12  C   UNL     1       3.675   3.985  19.576  0.00  0.00    +0.000 C 
BRANCH  12  13
ATOM     13  C   UNL     1       4.646   3.991  18.386  0.00  0.00    +0.000 C 
BRANCH  13  18
ATOM     14  C   UNL     1       7.089   4.751  14.270  0.00  0.00    +0.000 C 
ATOM     15  C   UNL     1       6.752   5.350  15.637  0.00  0.00    +0.000 C 
ATOM     16  C   UNL     1       7.251   4.442  16.775  0.00  0.00    +0.000 C 
ATOM     17  C   UNL     1       6.853   5.031  18.144  0.00  0.00    +0.000 C 
ATOM     18  N   UNL     1       5.392   5.268  18.252  0.00  0.00    +0.000 NA
ATOM     19  C   UNL     1       4.936   6.159  17.155  0.00  0.00    +0.000 C 
ATOM     20  C   UNL     1       5.237   5.570  15.772  0.00  0.00    +0.000 C 
ENDBRANCH  13  18
ENDBRANCH  12  13
ENDBRANCH   1  12
TORSDOF 4
ENDMDL
MODEL 6
REMARK VINA RESULT:      -6.5      1.334      2.081
REMARK  Name = 
REMARK  5 active torsions:
REMARK  status: ('A' for Active; 'I' for Inactive)
REMARK    1  A    between atoms: C_1  and  C_2
REMARK    2  A    between atoms: N_5  and  C_6
REMARK    3  A    between atoms: C_6  and  C_7
REMARK    4  A    between atoms: C_7  and  C_8
REMARK    5  A    between atoms: N_10  and  C_11
REMARK                            x       y       z     vdW  Elec       q    Type
REMARK                         _______ _______ _______ _____ _____    ______ ____
ROOT
ATOM      1  C   UNL     1       2.733   5.110  19.428  0.00  0.00    +0.000 C 
ATOM      2  O   UNL     1       1.748   4.893  18.740  0.00  0.00    +0.000 OA
ATOM      3  N   UNL     1       2.969   6.341  19.970  0.00  0.00    +0.000 N 
ATOM      4  H   UNL     1       3.870   6.474  20.460  0.00  0.00    +0.000 HD
ENDROOT
BRANCH   3   5
ATOM      5  C   UNL     1       2.119   7.490  19.842  0.00  0.00    +0.000 A 
ATOM      6  C   UNL     1       2.031   8.268  18.664  0.00  0.00    +0.000 A 
ATOM      7  C   UNL     1       1.212   9.397  18.617  0.00  0.00    +0.000 A 
ATOM      8  C   UNL     1       0.468   9.772  19.735  0.00  0.00    +0.000 A 
ATOM      9 CL   UNL     1      -0.533  11.210  19.678  0.00  0.00    +0.000 Cl
ATOM     10  C   UNL     1       0.527   9.002  20.899  0.00  0.00    +0.000 A 
ATOM     11  C   UNL     1       1.337   7.865  20.949  0.00  0.00    +0.000 A 
ENDBRANCH   3   5
BRANCH   1  12
ATOM     12  C   UNL     1       3.725   3.993  19.607  0.00  0.00    +0.000 C 
BRANCH  12  13
ATOM     13  C   UNL     1       4.753   3.976  18.466  0.00  0.00    +0.000 C 
BRANCH  13  18
ATOM     14  C   UNL     1       7.123   4.703  14.302  0.00  0.00    +0.000 C 
ATOM     15  C   UNL     1       6.768   5.334  15.649  0.00  0.00    +0.000 C 
ATOM     16  C   UNL     1       7.320   4.493  16.814  0.00  0.00    +0.000 C 
ATOM     17  C   UNL     1       6.904   5.112  18.165  0.00  0.00    +0.000 C 
ATOM     18  N   UNL     1       5.435   5.282  18.279  0.00  0.00    +0.000 NA
ATOM     19  C   UNL     1       4.926   6.109  17.155  0.00  0.00    +0.000 C 
ATOM     20  C   UNL     1       5.245   5.485  15.791  0.00  0.00    +0.000 C 
ENDBRANCH  13  18
ENDBRANCH  12  13
ENDBRANCH   1  12
TORSDOF 4
ENDMDL
MODEL 7
REMARK VINA RESULT:      -6.4      3.222      5.865
REMARK  Name = 
REMARK  5 active torsions:
REMARK  status: ('A' for Active; 'I' for Inactive)
REMARK    1  A    between atoms: C_1  and  C_2
REMARK    2  A    between atoms: N_5  and  C_6
REMARK    3  A    between atoms: C_6  and  C_7
REMARK    4  A    between atoms: C_7  and  C_8
REMARK    5  A    between atoms: N_10  and  C_11
REMARK                            x       y       z     vdW  Elec       q    Type
REMARK                         _______ _______ _______ _____ _____    ______ ____
ROOT
ATOM      1  C   UNL     1       4.444   3.246  17.414  0.00  0.00    +0.000 C 
ATOM      2  O   UNL     1       4.964   3.277  16.311  0.00  0.00    +0.000 OA
ATOM      3  N   UNL     1       4.708   4.200  18.356  0.00  0.00    +0.000 N 
ATOM      4  H   UNL     1       4.305   4.055  19.296  0.00  0.00    +0.000 HD
ENDROOT
BRANCH   3   5
ATOM      5  C   UNL     1       5.567   5.336  18.180  0.00  0.00    +0.000 A 
ATOM      6  C   UNL     1       5.213   6.470  17.412  0.00  0.00    +0.000 A 
ATOM      7  C   UNL     1       6.111   7.526  17.249  0.00  0.00    +0.000 A 
ATOM      8  C   UNL     1       7.371   7.476  17.845  0.00  0.00    +0.000 A 
ATOM      9 CL   UNL     1       8.504   8.793  17.609  0.00  0.00    +0.000 Cl
ATOM     10  C   UNL     1       7.727   6.373  18.625  0.00  0.00    +0.000 A 
ATOM     11  C   UNL     1       6.829   5.317  18.799  0.00  0.00    +0.000 A 
ENDBRANCH   3   5
BRANCH   1  12
ATOM     12  C   UNL     1       3.549   2.081  17.737  0.00  0.00    +0.000 C 
BRANCH  12  13
ATOM     13  C   UNL     1       3.340   1.945  19.252  0.00  0.00    +0.000 C 
BRANCH  13  18
ATOM     14  C   UNL     1       1.647   6.260  20.668  0.00  0.00    +0.000 C 
ATOM     15  C   UNL     1       1.271   4.792  20.458  0.00  0.00    +0.000 C 
ATOM     16  C   UNL     1       2.124   3.871  21.349  0.00  0.00    +0.000 C 
ATOM     17  C   UNL     1       1.772   2.393  21.083  0.00  0.00    +0.000 C 
ATOM     18  N   UNL     1       1.912   2.029  19.651  0.00  0.00    +0.000 NA
ATOM     19  C   UNL     1       1.069   2.918  18.812  0.00  0.00    +0.000 C 
ATOM     20  C   UNL     1       1.443   4.395  18.983  0.00  0.00    +0.000 C 
ENDBRANCH  13  18
ENDBRANCH  12  13
ENDBRANCH   1  12
TORSDOF 4
ENDMDL
MODEL 8
REMARK VINA RESULT:      -6.3      2.733      4.393
REMARK  Name = 
REMARK  5 active torsions:
REMARK  status: ('A' for Active; 'I' for Inactive)
REMARK    1  A    between atoms: C_1  and  C_2
REMARK    2  A    between atoms: N_5  and  C_6
REMARK    3  A    between atoms: C_6  and  C_7
REMARK    4  A    between atoms: C_7  and  C_8
REMARK    5  A    between atoms: N_10  and  C_11
REMARK                            x       y       z     vdW  Elec       q    Type
REMARK                         _______ _______ _______ _____ _____    ______ ____
ROOT
ATOM      1  C   UNL     1       2.494   8.078  18.261  0.00  0.00    +0.000 C 
ATOM      2  O   UNL     1       2.211   9.103  17.662  0.00  0.00    +0.000 OA
ATOM      3  N   UNL     1       2.056   7.850  19.535  0.00  0.00    +0.000 N 
ATOM      4  H   UNL     1       2.414   7.005  20.010  0.00  0.00    +0.000 HD
ENDROOT
BRANCH   3   5
ATOM      5  C   UNL     1       1.215   8.725  20.301  0.00  0.00    +0.000 A 
ATOM      6  C   UNL     1       0.393   9.720  19.723  0.00  0.00    +0.000 A 
ATOM      7  C   UNL     1      -0.373  10.565  20.528  0.00  0.00    +0.000 A 
ATOM      8  C   UNL     1      -0.336  10.436  21.916  0.00  0.00    +0.000 A 
ATOM      9 CL   UNL     1      -1.277  11.522  22.921  0.00  0.00    +0.000 Cl
ATOM     10  C   UNL     1       0.454   9.444  22.501  0.00  0.00    +0.000 A 
ATOM     11  C   UNL     1       1.215   8.589  21.700  0.00  0.00    +0.000 A 
ENDBRANCH   3   5
BRANCH   1  12
ATOM     12  C   UNL     1       3.404   7.093  17.578  0.00  0.00    +0.000 C 
BRANCH  12  13
ATOM     13  C   UNL     1       3.693   5.886  18.482  0.00  0.00    +0.000 C 
BRANCH  13  18
ATOM     14  C   UNL     1       1.627   2.727  21.521  0.00  0.00    +0.000 C 
ATOM     15  C   UNL     1       2.032   2.957  20.064  0.00  0.00    +0.000 C 
ATOM     16  C   UNL     1       3.553   3.159  19.941  0.00  0.00    +0.000 C 
ATOM     17  C   UNL     1       3.938   3.447  18.475  0.00  0.00    +0.000 C 
ATOM     18  N   UNL     1       3.199   4.605  17.915  0.00  0.00    +0.000 NA
ATOM     19  C   UNL     1       1.735   4.382  18.029  0.00  0.00    +0.000 C 
ATOM     20  C   UNL     1       1.296   4.175  19.484  0.00  0.00    +0.000 C 
ENDBRANCH  13  18
ENDBRANCH  12  13
ENDBRANCH   1  12
TORSDOF 4
ENDMDL
MODEL 9
REMARK VINA RESULT:      -6.3      4.734      7.036
REMARK  Name = 
REMARK  5 active torsions:
REMARK  status: ('A' for Active; 'I' for Inactive)
REMARK    1  A    between atoms: C_1  and  C_2
REMARK    2  A    between atoms: N_5  and  C_6
REMARK    3  A    between atoms: C_6  and  C_7
REMARK    4  A    between atoms: C_7  and  C_8
REMARK    5  A    between atoms: N_10  and  C_11
REMARK                            x       y       z     vdW  Elec       q    Type
REMARK                         _______ _______ _______ _____ _____    ______ ____
ROOT
ATOM      1  C   UNL     1       8.504   9.146  18.480  0.00  0.00    +0.000 C 
ATOM      2  O   UNL     1       8.047   9.958  17.691  0.00  0.00    +0.000 OA
ATOM      3  N   UNL     1       9.312   9.529  19.512  0.00  0.00    +0.000 N 
ATOM      4  H   UNL     1       9.736   8.778  20.080  0.00  0.00    +0.000 HD
ENDROOT
BRANCH   3   5
ATOM      5  C   UNL     1       9.696  10.878  19.820  0.00  0.00    +0.000 A 
ATOM      6  C   UNL     1      10.572  11.643  19.016  0.00  0.00    +0.000 A 
ATOM      7  C   UNL     1      10.935  12.937  19.392  0.00  0.00    +0.000 A 
ATOM      8  C   UNL     1      10.436  13.492  20.570  0.00  0.00    +0.000 A 
ATOM      9 CL   UNL     1      10.922  15.106  21.052  0.00  0.00    +0.000 Cl
ATOM     10  C   UNL     1       9.552  12.758  21.364  0.00  0.00    +0.000 A 
ATOM     11  C   UNL     1       9.177  11.466  20.988  0.00  0.00    +0.000 A 
ENDBRANCH   3   5
BRANCH   1  12
ATOM     12  C   UNL     1       8.206   7.691  18.242  0.00  0.00    +0.000 C 
BRANCH  12  13
ATOM     13  C   UNL     1       7.021   7.517  17.281  0.00  0.00    +0.000 C 
BRANCH  13  18
ATOM     14  C   UNL     1       6.276   3.895  14.148  0.00  0.00    +0.000 C 
ATOM     15  C   UNL     1       5.893   4.437  15.527  0.00  0.00    +0.000 C 
ATOM     16  C   UNL     1       5.230   5.821  15.410  0.00  0.00    +0.000 C 
ATOM     17  C   UNL     1       4.902   6.377  16.811  0.00  0.00    +0.000 C 
ATOM     18  N   UNL     1       6.096   6.430  17.690  0.00  0.00    +0.000 NA
ATOM     19  C   UNL     1       6.710   5.082  17.802  0.00  0.00    +0.000 C 
ATOM     20  C   UNL     1       7.129   4.526  16.436  0.00  0.00    +0.000 C 
ENDBRANCH  13  18
ENDBRANCH  12  13
ENDBRANCH   1  12
TORSDOF 4
ENDMDL
