MODEL 1
REMARK VINA RESULT:      -8.3      0.000      0.000
REMARK  Name = 
REMARK  8 active torsions:
REMARK  status: ('A' for Active; 'I' for Inactive)
REMARK    1  A    between atoms: C_1  and  O_2
REMARK    2  A    between atoms: O_2  and  C_3
REMARK    3  A    between atoms: C_5  and  C_6
REMARK    4  A    between atoms: C_7  and  C_8
REMARK    5  A    between atoms: C_8  and  C_10
REMARK    6  A    between atoms: C_17  and  N_18
REMARK    7  A    between atoms: C_19  and  C_20
REMARK    8  A    between atoms: C_25  and  O_26
REMARK                            x       y       z     vdW  Elec       q    Type
REMARK                         _______ _______ _______ _____ _____    ______ ____
ROOT
ATOM      1  C   UNL     1       4.637   5.513  17.742  0.00  0.00    +0.000 A 
ATOM      2  C   UNL     1       4.355   4.175  17.439  0.00  0.00    +0.000 A 
ATOM      3  N   UNL     1       5.486   3.656  16.850  0.00  0.00    +0.000 N 
ATOM      4  C   UNL     1       6.466   4.599  16.747  0.00  0.00    +0.000 A 
ATOM      5  C   UNL     1       5.997   5.777  17.309  0.00  0.00    +0.000 A 
ATOM      6  H   UNL     1       5.569   2.714  16.497  0.00  0.00    +0.000 HD
ENDROOT
BRANCH   1   9
ATOM      7  C   UNL     1       2.300   8.476  18.227  0.00  0.00    +0.000 A 
ATOM      8  C   UNL     1       3.204   7.563  17.654  0.00  0.00    +0.000 A 
ATOM      9  C   UNL     1       3.671   6.439  18.353  0.00  0.00    +0.000 A 
ATOM     10  C   UNL     1       3.192   6.234  19.651  0.00  0.00    +0.000 A 
ATOM     11  C   UNL     1       2.250   7.099  20.215  0.00  0.00    +0.000 A 
ATOM     12  C   UNL     1       1.810   8.220  19.510  0.00  0.00    +0.000 A 
BRANCH   7  14
ATOM     13  C   UNL     1       2.284  10.843  17.877  0.00  0.00    +0.000 C 
ATOM     14  O   UNL     1       2.008   9.532  17.403  0.00  0.00    +0.000 OA
ENDBRANCH   7  14
BRANCH  12  15
ATOM     15  O   UNL     1       0.895   9.040  20.112  0.00  0.00    +0.000 OA
ATOM     16  H   UNL     1       0.721   9.795  19.529  0.00  0.00    +0.000 HD
ENDBRANCH  12  15
ENDBRANCH   1   9
BRANCH   5  17
ATOM     17  C   UNL     1       6.754   7.020  17.439  0.00  0.00    +0.000 C 
ATOM     18  N   UNL     1       7.781   6.995  18.344  0.00  0.00    +0.000 N 
ATOM     19  O   UNL     1       6.543   8.035  16.784  0.00  0.00    +0.000 OA
ATOM     20  H   UNL     1       8.116   6.101  18.681  0.00  0.00    +0.000 HD
ATOM     21  H   UNL     1       8.425   7.773  18.300  0.00  0.00    +0.000 HD
ENDBRANCH   5  17
BRANCH   4  22
ATOM     22  N   UNL     1       7.642   4.266  16.178  0.00  0.00    +0.000 N 
ATOM     23  H   UNL     1       7.694   3.707  15.329  0.00  0.00    +0.000 HD
ATOM     24  H   UNL     1       8.461   4.129  16.773  0.00  0.00    +0.000 HD
ENDBRANCH   4  22
BRANCH   2  25
ATOM     25  C   UNL     1       3.120   3.416  17.572  0.00  0.00    +0.000 C 
ATOM     26  O   UNL     1       2.507   2.967  16.605  0.00  0.00    +0.000 OA
BRANCH  25  27
ATOM     27  C   UNL     1       2.547   3.129  18.924  0.00  0.00    +0.000 A 
ATOM     28  C   UNL     1       1.173   3.340  19.113  0.00  0.00    +0.000 A 
ATOM     29  C   UNL     1       0.584   3.128  20.360  0.00  0.00    +0.000 A 
ATOM     30  C   UNL     1       1.366   2.710  21.434  0.00  0.00    +0.000 A 
ATOM     31  C   UNL     1       2.737   2.510  21.264  0.00  0.00    +0.000 A 
ATOM     32  C   UNL     1       3.332   2.724  20.013  0.00  0.00    +0.000 A 
ENDBRANCH  25  27
ENDBRANCH   2  25
TORSDOF 7
ENDMDL
MODEL 2
REMARK VINA RESULT:      -8.2      0.747      1.610
REMARK  Name = 
REMARK  8 active torsions:
REMARK  status: ('A' for Active; 'I' for Inactive)
REMARK    1  A    between atoms: C_1  and  O_2
REMARK    2  A    between atoms: O_2  and  C_3
REMARK    3  A    between atoms: C_5  and  C_6
REMARK    4  A    between atoms: C_7  and  C_8
REMARK    5  A    between atoms: C_8  and  C_10
REMARK    6  A    between atoms: C_17  and  N_18
REMARK    7  A    between atoms: C_19  and  C_20
REMARK    8  A    between atoms: C_25  and  O_26
REMARK                            x       y       z     vdW  Elec       q    Type
REMARK                         _______ _______ _______ _____ _____    ______ ____
ROOT
ATOM      1  C   UNL     1       4.738   5.678  17.817  0.00  0.00    +0.000 A 
ATOM      2  C   UNL     1       4.464   4.311  17.688  0.00  0.00    +0.000 A 
ATOM      3  N   UNL     1       5.650   3.701  17.344  0.00  0.00    +0.000 N 
ATOM      4  C   UNL     1       6.658   4.613  17.229  0.00  0.00    +0.000 A 
ATOM      5  C   UNL     1       6.148   5.866  17.535  0.00  0.00    +0.000 A 
ATOM      6  H   UNL     1       5.755   2.716  17.154  0.00  0.00    +0.000 HD
ENDROOT
BRANCH   1   9
ATOM      7  C   UNL     1       2.068   7.628  19.702  0.00  0.00    +0.000 A 
ATOM      8  C   UNL     1       3.059   6.684  19.378  0.00  0.00    +0.000 A 
ATOM      9  C   UNL     1       3.723   6.693  18.142  0.00  0.00    +0.000 A 
ATOM     10  C   UNL     1       3.383   7.696  17.228  0.00  0.00    +0.000 A 
ATOM     11  C   UNL     1       2.442   8.677  17.554  0.00  0.00    +0.000 A 
ATOM     12  C   UNL     1       1.780   8.640  18.782  0.00  0.00    +0.000 A 
BRANCH   7  14
ATOM     13  C   UNL     1       1.392   8.526  21.814  0.00  0.00    +0.000 C 
ATOM     14  O   UNL     1       1.504   7.417  20.933  0.00  0.00    +0.000 OA
ENDBRANCH   7  14
BRANCH  12  15
ATOM     15  O   UNL     1       0.862   9.618  19.047  0.00  0.00    +0.000 OA
ATOM     16  H   UNL     1       1.327  10.404  19.374  0.00  0.00    +0.000 HD
ENDBRANCH  12  15
ENDBRANCH   1   9
BRANCH   5  17
ATOM     17  C   UNL     1       6.913   7.111  17.573  0.00  0.00    +0.000 C 
ATOM     18  N   UNL     1       7.933   7.151  18.486  0.00  0.00    +0.000 N 
ATOM     19  O   UNL     1       6.714   8.072  16.838  0.00  0.00    +0.000 OA
ATOM     20  H   UNL     1       8.259   6.285  18.895  0.00  0.00    +0.000 HD
ATOM     21  H   UNL     1       8.582   7.919  18.385  0.00  0.00    +0.000 HD
ENDBRANCH   5  17
BRANCH   4  22
ATOM     22  N   UNL     1       7.891   4.190  16.882  0.00  0.00    +0.000 N 
ATOM     23  H   UNL     1       8.719   4.765  17.018  0.00  0.00    +0.000 HD
ATOM     24  H   UNL     1       7.993   3.559  16.086  0.00  0.00    +0.000 HD
ENDBRANCH   4  22
BRANCH   2  25
ATOM     25  C   UNL     1       3.203   3.588  17.769  0.00  0.00    +0.000 C 
ATOM     26  O   UNL     1       2.588   3.209  16.774  0.00  0.00    +0.000 OA
BRANCH  25  27
ATOM     27  C   UNL     1       2.605   3.251  19.098  0.00  0.00    +0.000 A 
ATOM     28  C   UNL     1       1.225   3.443  19.265  0.00  0.00    +0.000 A 
ATOM     29  C   UNL     1       0.612   3.184  20.492  0.00  0.00    +0.000 A 
ATOM     30  C   UNL     1       1.375   2.738  21.568  0.00  0.00    +0.000 A 
ATOM     31  C   UNL     1       2.752   2.557  21.420  0.00  0.00    +0.000 A 
ATOM     32  C   UNL     1       3.371   2.817  20.190  0.00  0.00    +0.000 A 
ENDBRANCH  25  27
ENDBRANCH   2  25
TORSDOF 7
ENDMDL
MODEL 3
REMARK VINA RESULT:      -8.1      2.345      5.776
REMARK  Name = 
REMARK  8 active torsions:
REMARK  status: ('A' for Active; 'I' for Inactive)
REMARK    1  A    between atoms: C_1  and  O_2
REMARK    2  A    between atoms: O_2  and  C_3
REMARK    3  A    between atoms: C_5  and  C_6
REMARK    4  A    between atoms: C_7  and  C_8
REMARK    5  A    between atoms: C_8  and  C_10
REMARK    6  A    between atoms: C_17  and  N_18
REMARK    7  A    between atoms: C_19  and  C_20
REMARK    8  A    between atoms: C_25  and  O_26
REMARK                            x       y       z     vdW  Elec       q    Type
REMARK                         _______ _______ _______ _____ _____    ______ ____
ROOT
ATOM      1  C   UNL     1       3.635   4.668  18.701  0.00  0.00    +0.000 A 
ATOM      2  C   UNL     1       2.754   5.670  19.128  0.00  0.00    +0.000 A 
ATOM      3  N   UNL     1       1.889   5.081  20.023  0.00  0.00    +0.000 N 
ATOM      4  C   UNL     1       2.164   3.753  20.173  0.00  0.00    +0.000 A 
ATOM      5  C   UNL     1       3.262   3.444  19.385  0.00  0.00    +0.000 A 
ATOM      6  H   UNL     1       1.122   5.553  20.477  0.00  0.00    +0.000 HD
ENDROOT
BRANCH   1   9
ATOM      7  C   UNL     1       6.882   5.827  17.090  0.00  0.00    +0.000 A 
ATOM      8  C   UNL     1       5.863   5.592  18.031  0.00  0.00    +0.000 A 
ATOM      9  C   UNL     1       4.700   4.878  17.707  0.00  0.00    +0.000 A 
ATOM     10  C   UNL     1       4.584   4.377  16.406  0.00  0.00    +0.000 A 
ATOM     11  C   UNL     1       5.611   4.551  15.475  0.00  0.00    +0.000 A 
ATOM     12  C   UNL     1       6.754   5.279  15.811  0.00  0.00    +0.000 A 
BRANCH   7  14
ATOM     13  C   UNL     1       7.741   7.998  17.613  0.00  0.00    +0.000 C 
ATOM     14  O   UNL     1       7.908   6.588  17.587  0.00  0.00    +0.000 OA
ENDBRANCH   7  14
BRANCH  12  15
ATOM     15  O   UNL     1       7.725   5.428  14.860  0.00  0.00    +0.000 OA
ATOM     16  H   UNL     1       8.033   4.550  14.587  0.00  0.00    +0.000 HD
ENDBRANCH  12  15
ENDBRANCH   1   9
BRANCH   5  17
ATOM     17  C   UNL     1       3.905   2.134  19.293  0.00  0.00    +0.000 C 
ATOM     18  N   UNL     1       4.974   1.941  20.126  0.00  0.00    +0.000 N 
ATOM     19  O   UNL     1       3.530   1.226  18.560  0.00  0.00    +0.000 OA
ATOM     20  H   UNL     1       5.113   2.576  20.901  0.00  0.00    +0.000 HD
ATOM     21  H   UNL     1       5.297   0.987  20.211  0.00  0.00    +0.000 HD
ENDBRANCH   5  17
BRANCH   4  22
ATOM     22  N   UNL     1       1.402   3.014  21.005  0.00  0.00    +0.000 N 
ATOM     23  H   UNL     1       0.760   2.303  20.663  0.00  0.00    +0.000 HD
ATOM     24  H   UNL     1       1.081   3.426  21.882  0.00  0.00    +0.000 HD
ENDBRANCH   4  22
BRANCH   2  25
ATOM     25  C   UNL     1       2.617   7.054  18.698  0.00  0.00    +0.000 C 
ATOM     26  O   UNL     1       3.102   7.476  17.650  0.00  0.00    +0.000 OA
BRANCH  25  27
ATOM     27  C   UNL     1       1.844   8.032  19.524  0.00  0.00    +0.000 A 
ATOM     28  C   UNL     1       1.381   9.199  18.897  0.00  0.00    +0.000 A 
ATOM     29  C   UNL     1       0.687  10.170  19.620  0.00  0.00    +0.000 A 
ATOM     30  C   UNL     1       0.456   9.987  20.981  0.00  0.00    +0.000 A 
ATOM     31  C   UNL     1       0.924   8.838  21.621  0.00  0.00    +0.000 A 
ATOM     32  C   UNL     1       1.622   7.862  20.898  0.00  0.00    +0.000 A 
ENDBRANCH  25  27
ENDBRANCH   2  25
TORSDOF 7
ENDMDL
MODEL 4
REMARK VINA RESULT:      -7.9      2.149      5.006
REMARK  Name = 
REMARK  8 active torsions:
REMARK  status: ('A' for Active; 'I' for Inactive)
REMARK    1  A    between atoms: C_1  and  O_2
REMARK    2  A    between atoms: O_2  and  C_3
REMARK    3  A    between atoms: C_5  and  C_6
REMARK    4  A    between atoms: C_7  and  C_8
REMARK    5  A    between atoms: C_8  and  C_10
REMARK    6  A    between atoms: C_17  and  N_18
REMARK    7  A    between atoms: C_19  and  C_20
REMARK    8  A    between atoms: C_25  and  O_26
REMARK                            x       y       z     vdW  Elec       q    Type
REMARK                         _______ _______ _______ _____ _____    ______ ____
ROOT
ATOM      1  C   UNL     1       3.075   4.713  18.415  0.00  0.00    +0.000 A 
ATOM      2  C   UNL     1       4.149   4.359  17.589  0.00  0.00    +0.000 A 
ATOM      3  N   UNL     1       4.283   2.991  17.678  0.00  0.00    +0.000 N 
ATOM      4  C   UNL     1       3.360   2.460  18.531  0.00  0.00    +0.000 A 
ATOM      5  C   UNL     1       2.563   3.490  19.006  0.00  0.00    +0.000 A 
ATOM      6  H   UNL     1       4.997   2.452  17.211  0.00  0.00    +0.000 HD
ENDROOT
BRANCH   1   9
ATOM      7  C   UNL     1       1.770   7.851  20.126  0.00  0.00    +0.000 A 
ATOM      8  C   UNL     1       2.228   6.540  19.901  0.00  0.00    +0.000 A 
ATOM      9  C   UNL     1       2.624   6.096  18.630  0.00  0.00    +0.000 A 
ATOM     10  C   UNL     1       2.569   7.013  17.574  0.00  0.00    +0.000 A 
ATOM     11  C   UNL     1       2.171   8.335  17.790  0.00  0.00    +0.000 A 
ATOM     12  C   UNL     1       1.765   8.753  19.058  0.00  0.00    +0.000 A 
BRANCH   7  14
ATOM     13  C   UNL     1       0.026   8.418  21.663  0.00  0.00    +0.000 C 
ATOM     14  O   UNL     1       1.382   8.071  21.422  0.00  0.00    +0.000 OA
ENDBRANCH   7  14
BRANCH  12  15
ATOM     15  O   UNL     1       1.376  10.054  19.213  0.00  0.00    +0.000 OA
ATOM     16  H   UNL     1       1.572  10.334  20.121  0.00  0.00    +0.000 HD
ENDBRANCH  12  15
ENDBRANCH   1   9
BRANCH   5  17
ATOM     17  C   UNL     1       1.426   3.340  19.912  0.00  0.00    +0.000 C 
ATOM     18  N   UNL     1       0.231   3.037  19.317  0.00  0.00    +0.000 N 
ATOM     19  O   UNL     1       1.492   3.439  21.133  0.00  0.00    +0.000 OA
ATOM     20  H   UNL     1       0.230   2.701  18.362  0.00  0.00    +0.000 HD
ATOM     21  H   UNL     1      -0.508   2.741  19.940  0.00  0.00    +0.000 HD
ENDBRANCH   5  17
BRANCH   4  22
ATOM     22  N   UNL     1       3.356   1.129  18.749  0.00  0.00    +0.000 N 
ATOM     23  H   UNL     1       4.208   0.573  18.719  0.00  0.00    +0.000 HD
ATOM     24  H   UNL     1       2.537   0.584  18.478  0.00  0.00    +0.000 HD
ENDBRANCH   4  22
BRANCH   2  25
ATOM     25  C   UNL     1       5.075   5.191  16.835  0.00  0.00    +0.000 C 
ATOM     26  O   UNL     1       4.981   5.358  15.620  0.00  0.00    +0.000 OA
BRANCH  25  27
ATOM     27  C   UNL     1       6.189   5.909  17.528  0.00  0.00    +0.000 A 
ATOM     28  C   UNL     1       6.554   7.176  17.046  0.00  0.00    +0.000 A 
ATOM     29  C   UNL     1       7.611   7.881  17.624  0.00  0.00    +0.000 A 
ATOM     30  C   UNL     1       8.318   7.323  18.686  0.00  0.00    +0.000 A 
ATOM     31  C   UNL     1       7.975   6.058  19.165  0.00  0.00    +0.000 A 
ATOM     32  C   UNL     1       6.916   5.346  18.587  0.00  0.00    +0.000 A 
ENDBRANCH  25  27
ENDBRANCH   2  25
TORSDOF 7
ENDMDL
MODEL 5
REMARK VINA RESULT:      -7.8      2.475      5.892
REMARK  Name = 
REMARK  8 active torsions:
REMARK  status: ('A' for Active; 'I' for Inactive)
REMARK    1  A    between atoms: C_1  and  O_2
REMARK    2  A    between atoms: O_2  and  C_3
REMARK    3  A    between atoms: C_5  and  C_6
REMARK    4  A    between atoms: C_7  and  C_8
REMARK    5  A    between atoms: C_8  and  C_10
REMARK    6  A    between atoms: C_17  and  N_18
REMARK    7  A    between atoms: C_19  and  C_20
REMARK    8  A    between atoms: C_25  and  O_26
REMARK                            x       y       z     vdW  Elec       q    Type
REMARK                         _______ _______ _______ _____ _____    ______ ____
ROOT
ATOM      1  C   UNL     1       3.623   4.751  18.670  0.00  0.00    +0.000 A 
ATOM      2  C   UNL     1       2.762   5.783  19.064  0.00  0.00    +0.000 A 
ATOM      3  N   UNL     1       1.922   5.253  20.018  0.00  0.00    +0.000 N 
ATOM      4  C   UNL     1       2.193   3.934  20.237  0.00  0.00    +0.000 A 
ATOM      5  C   UNL     1       3.264   3.572  19.434  0.00  0.00    +0.000 A 
ATOM      6  H   UNL     1       1.172   5.757  20.467  0.00  0.00    +0.000 HD
ENDROOT
BRANCH   1   9
ATOM      7  C   UNL     1       6.779   5.867  16.859  0.00  0.00    +0.000 A 
ATOM      8  C   UNL     1       5.790   5.695  17.845  0.00  0.00    +0.000 A 
ATOM      9  C   UNL     1       4.657   4.895  17.633  0.00  0.00    +0.000 A 
ATOM     10  C   UNL     1       4.542   4.243  16.400  0.00  0.00    +0.000 A 
ATOM     11  C   UNL     1       5.542   4.356  15.430  0.00  0.00    +0.000 A 
ATOM     12  C   UNL     1       6.653   5.171  15.654  0.00  0.00    +0.000 A 
BRANCH   7  14
ATOM     13  C   UNL     1       8.071   6.833  18.626  0.00  0.00    +0.000 C 
ATOM     14  O   UNL     1       7.776   6.727  17.241  0.00  0.00    +0.000 OA
ENDBRANCH   7  14
BRANCH  12  15
ATOM     15  O   UNL     1       7.598   5.254  14.669  0.00  0.00    +0.000 OA
ATOM     16  H   UNL     1       7.907   6.172  14.609  0.00  0.00    +0.000 HD
ENDBRANCH  12  15
ENDBRANCH   1   9
BRANCH   5  17
ATOM     17  C   UNL     1       3.895   2.254  19.399  0.00  0.00    +0.000 C 
ATOM     18  N   UNL     1       3.378   1.374  18.486  0.00  0.00    +0.000 N 
ATOM     19  O   UNL     1       4.846   1.919  20.098  0.00  0.00    +0.000 OA
ATOM     20  H   UNL     1       2.787   1.728  17.745  0.00  0.00    +0.000 HD
ATOM     21  H   UNL     1       3.927   0.542  18.319  0.00  0.00    +0.000 HD
ENDBRANCH   5  17
BRANCH   4  22
ATOM     22  N   UNL     1       1.453   3.251  21.134  0.00  0.00    +0.000 N 
ATOM     23  H   UNL     1       0.447   3.378  21.215  0.00  0.00    +0.000 HD
ATOM     24  H   UNL     1       1.875   2.981  22.023  0.00  0.00    +0.000 HD
ENDBRANCH   4  22
BRANCH   2  25
ATOM     25  C   UNL     1       2.620   7.141  18.559  0.00  0.00    +0.000 C 
ATOM     26  O   UNL     1       3.100   7.506  17.487  0.00  0.00    +0.000 OA
BRANCH  25  27
ATOM     27  C   UNL     1       1.847   8.161  19.333  0.00  0.00    +0.000 A 
ATOM     28  C   UNL     1       1.631   7.924  20.699  0.00  0.00    +0.000 A 
ATOM     29  C   UNL     1       0.885   8.818  21.468  0.00  0.00    +0.000 A 
ATOM     30  C   UNL     1       0.340   9.955  20.877  0.00  0.00    +0.000 A 
ATOM     31  C   UNL     1       0.534  10.195  19.516  0.00  0.00    +0.000 A 
ATOM     32  C   UNL     1       1.282   9.299  18.740  0.00  0.00    +0.000 A 
ENDBRANCH  25  27
ENDBRANCH   2  25
TORSDOF 7
ENDMDL
MODEL 6
REMARK VINA RESULT:      -7.8      2.026      4.748
REMARK  Name = 
REMARK  8 active torsions:
REMARK  status: ('A' for Active; 'I' for Inactive)
REMARK    1  A    between atoms: C_1  and  O_2
REMARK    2  A    between atoms: O_2  and  C_3
REMARK    3  A    between atoms: C_5  and  C_6
REMARK    4  A    between atoms: C_7  and  C_8
REMARK    5  A    between atoms: C_8  and  C_10
REMARK    6  A    between atoms: C_17  and  N_18
REMARK    7  A    between atoms: C_19  and  C_20
REMARK    8  A    between atoms: C_25  and  O_26
REMARK                            x       y       z     vdW  Elec       q    Type
REMARK                         _______ _______ _______ _____ _____    ______ ____
ROOT
ATOM      1  C   UNL     1       3.219   4.407  18.585  0.00  0.00    +0.000 A 
ATOM      2  C   UNL     1       4.236   4.243  17.637  0.00  0.00    +0.000 A 
ATOM      3  N   UNL     1       4.475   2.889  17.543  0.00  0.00    +0.000 N 
ATOM      4  C   UNL     1       3.675   2.188  18.396  0.00  0.00    +0.000 A 
ATOM      5  C   UNL     1       2.852   3.086  19.059  0.00  0.00    +0.000 A 
ATOM      6  H   UNL     1       5.180   2.470  16.956  0.00  0.00    +0.000 HD
ENDROOT
BRANCH   1   9
ATOM      7  C   UNL     1       2.123   8.049  18.491  0.00  0.00    +0.000 A 
ATOM      8  C   UNL     1       2.599   6.784  18.105  0.00  0.00    +0.000 A 
ATOM      9  C   UNL     1       2.692   5.714  19.007  0.00  0.00    +0.000 A 
ATOM     10  C   UNL     1       2.271   5.934  20.324  0.00  0.00    +0.000 A 
ATOM     11  C   UNL     1       1.741   7.167  20.712  0.00  0.00    +0.000 A 
ATOM     12  C   UNL     1       1.673   8.225  19.803  0.00  0.00    +0.000 A 
BRANCH   7  14
ATOM     13  C   UNL     1       2.144  10.349  17.829  0.00  0.00    +0.000 C 
ATOM     14  O   UNL     1       2.160   8.972  17.479  0.00  0.00    +0.000 OA
ENDBRANCH   7  14
BRANCH  12  15
ATOM     15  O   UNL     1       1.155   9.413  20.237  0.00  0.00    +0.000 OA
ATOM     16  H   UNL     1       1.491   9.594  21.129  0.00  0.00    +0.000 HD
ENDBRANCH  12  15
ENDBRANCH   1   9
BRANCH   5  17
ATOM     17  C   UNL     1       1.817   2.737  20.030  0.00  0.00    +0.000 C 
ATOM     18  N   UNL     1       0.530   2.779  19.563  0.00  0.00    +0.000 N 
ATOM     19  O   UNL     1       2.035   2.393  21.187  0.00  0.00    +0.000 OA
ATOM     20  H   UNL     1       0.372   2.802  18.564  0.00  0.00    +0.000 HD
ATOM     21  H   UNL     1      -0.167   2.356  20.160  0.00  0.00    +0.000 HD
ENDBRANCH   5  17
BRANCH   4  22
ATOM     22  N   UNL     1       3.786   0.844  18.447  0.00  0.00    +0.000 N 
ATOM     23  H   UNL     1       3.279   0.284  19.128  0.00  0.00    +0.000 HD
ATOM     24  H   UNL     1       4.670   0.409  18.179  0.00  0.00    +0.000 HD
ENDBRANCH   4  22
BRANCH   2  25
ATOM     25  C   UNL     1       5.027   5.231  16.918  0.00  0.00    +0.000 C 
ATOM     26  O   UNL     1       4.798   5.547  15.752  0.00  0.00    +0.000 OA
BRANCH  25  27
ATOM     27  C   UNL     1       6.162   5.932  17.594  0.00  0.00    +0.000 A 
ATOM     28  C   UNL     1       6.569   7.173  17.077  0.00  0.00    +0.000 A 
ATOM     29  C   UNL     1       7.646   7.859  17.638  0.00  0.00    +0.000 A 
ATOM     30  C   UNL     1       8.333   7.310  18.717  0.00  0.00    +0.000 A 
ATOM     31  C   UNL     1       7.949   6.071  19.232  0.00  0.00    +0.000 A 
ATOM     32  C   UNL     1       6.869   5.377  18.671  0.00  0.00    +0.000 A 
ENDBRANCH  25  27
ENDBRANCH   2  25
TORSDOF 7
ENDMDL
MODEL 7
REMARK VINA RESULT:      -7.7      2.531      5.886
REMARK  Name = 
REMARK  8 active torsions:
REMARK  status: ('A' for Active; 'I' for Inactive)
REMARK    1  A    between atoms: C_1  and  O_2
REMARK    2  A    between atoms: O_2  and  C_3
REMARK    3  A    between atoms: C_5  and  C_6
REMARK    4  A    between atoms: C_7  and  C_8
REMARK    5  A    between atoms: C_8  and  C_10
REMARK    6  A    between atoms: C_17  and  N_18
REMARK    7  A    between atoms: C_19  and  C_20
REMARK    8  A    between atoms: C_25  and  O_26
REMARK                            x       y       z     vdW  Elec       q    Type
REMARK                         _______ _______ _______ _____ _____    ______ ____
ROOT
ATOM      1  C   UNL     1       3.460   4.889  18.940  0.00  0.00    +0.000 A 
ATOM      2  C   UNL     1       2.553   5.865  19.372  0.00  0.00    +0.000 A 
ATOM      3  N   UNL     1       1.627   5.221  20.163  0.00  0.00    +0.000 N 
ATOM      4  C   UNL     1       1.889   3.884  20.240  0.00  0.00    +0.000 A 
ATOM      5  C   UNL     1       3.038   3.623  19.510  0.00  0.00    +0.000 A 
ATOM      6  H   UNL     1       0.830   5.666  20.593  0.00  0.00    +0.000 HD
ENDROOT
BRANCH   1   9
ATOM      7  C   UNL     1       5.567   5.155  15.782  0.00  0.00    +0.000 A 
ATOM      8  C   UNL     1       4.491   4.928  16.659  0.00  0.00    +0.000 A 
ATOM      9  C   UNL     1       4.591   5.160  18.039  0.00  0.00    +0.000 A 
ATOM     10  C   UNL     1       5.806   5.652  18.530  0.00  0.00    +0.000 A 
ATOM     11  C   UNL     1       6.867   5.938  17.666  0.00  0.00    +0.000 A 
ATOM     12  C   UNL     1       6.752   5.684  16.299  0.00  0.00    +0.000 A 
BRANCH   7  14
ATOM     13  C   UNL     1       6.035   3.770  13.889  0.00  0.00    +0.000 C 
ATOM     14  O   UNL     1       5.284   4.818  14.484  0.00  0.00    +0.000 OA
ENDBRANCH   7  14
BRANCH  12  15
ATOM     15  O   UNL     1       7.824   5.973  15.499  0.00  0.00    +0.000 OA
ATOM     16  H   UNL     1       8.494   6.432  16.029  0.00  0.00    +0.000 HD
ENDBRANCH  12  15
ENDBRANCH   1   9
BRANCH   5  17
ATOM     17  C   UNL     1       3.684   2.319  19.374  0.00  0.00    +0.000 C 
ATOM     18  N   UNL     1       4.820   2.141  20.116  0.00  0.00    +0.000 N 
ATOM     19  O   UNL     1       3.259   1.403  18.678  0.00  0.00    +0.000 OA
ATOM     20  H   UNL     1       5.016   2.782  20.874  0.00  0.00    +0.000 HD
ATOM     21  H   UNL     1       5.158   1.190  20.180  0.00  0.00    +0.000 HD
ENDBRANCH   5  17
BRANCH   4  22
ATOM     22  N   UNL     1       1.069   3.095  20.964  0.00  0.00    +0.000 N 
ATOM     23  H   UNL     1       0.306   3.472  21.521  0.00  0.00    +0.000 HD
ATOM     24  H   UNL     1       1.437   2.229  21.361  0.00  0.00    +0.000 HD
ENDBRANCH   4  22
BRANCH   2  25
ATOM     25  C   UNL     1       2.448   7.276  19.030  0.00  0.00    +0.000 C 
ATOM     26  O   UNL     1       2.953   7.754  18.016  0.00  0.00    +0.000 OA
BRANCH  25  27
ATOM     27  C   UNL     1       1.685   8.215  19.909  0.00  0.00    +0.000 A 
ATOM     28  C   UNL     1       1.088   9.336  19.311  0.00  0.00    +0.000 A 
ATOM     29  C   UNL     1       0.396  10.271  20.081  0.00  0.00    +0.000 A 
ATOM     30  C   UNL     1       0.300  10.100  21.460  0.00  0.00    +0.000 A 
ATOM     31  C   UNL     1       0.902   8.998  22.070  0.00  0.00    +0.000 A 
ATOM     32  C   UNL     1       1.599   8.058  21.300  0.00  0.00    +0.000 A 
ENDBRANCH  25  27
ENDBRANCH   2  25
TORSDOF 7
ENDMDL
MODEL 8
REMARK VINA RESULT:      -7.6      2.330      5.107
REMARK  Name = 
REMARK  8 active torsions:
REMARK  status: ('A' for Active; 'I' for Inactive)
REMARK    1  A    between atoms: C_1  and  O_2
REMARK    2  A    between atoms: O_2  and  C_3
REMARK    3  A    between atoms: C_5  and  C_6
REMARK    4  A    between atoms: C_7  and  C_8
REMARK    5  A    between atoms: C_8  and  C_10
REMARK    6  A    between atoms: C_17  and  N_18
REMARK    7  A    between atoms: C_19  and  C_20
REMARK    8  A    between atoms: C_25  and  O_26
REMARK                            x       y       z     vdW  Elec       q    Type
REMARK                         _______ _______ _______ _____ _____    ______ ____
ROOT
ATOM      1  C   UNL     1       3.798   4.871  19.234  0.00  0.00    +0.000 A 
ATOM      2  C   UNL     1       5.007   4.600  18.583  0.00  0.00    +0.000 A 
ATOM      3  N   UNL     1       5.389   3.334  18.970  0.00  0.00    +0.000 N 
ATOM      4  C   UNL     1       4.494   2.796  19.847  0.00  0.00    +0.000 A 
ATOM      5  C   UNL     1       3.465   3.707  20.033  0.00  0.00    +0.000 A 
ATOM      6  H   UNL     1       6.242   2.878  18.682  0.00  0.00    +0.000 HD
ENDROOT
BRANCH   1   9
ATOM      7  C   UNL     1       1.805   7.979  20.157  0.00  0.00    +0.000 A 
ATOM      8  C   UNL     1       2.527   6.776  20.247  0.00  0.00    +0.000 A 
ATOM      9  C   UNL     1       3.069   6.144  19.117  0.00  0.00    +0.000 A 
ATOM     10  C   UNL     1       2.888   6.764  17.876  0.00  0.00    +0.000 A 
ATOM     11  C   UNL     1       2.222   7.988  17.773  0.00  0.00    +0.000 A 
ATOM     12  C   UNL     1       1.676   8.592  18.907  0.00  0.00    +0.000 A 
BRANCH   7  14
ATOM     13  C   UNL     1      -0.096   8.422  21.542  0.00  0.00    +0.000 C 
ATOM     14  O   UNL     1       1.314   8.405  21.363  0.00  0.00    +0.000 OA
ENDBRANCH   7  14
BRANCH  12  15
ATOM     15  O   UNL     1       1.027   9.785  18.750  0.00  0.00    +0.000 OA
ATOM     16  H   UNL     1       0.253   9.799  19.335  0.00  0.00    +0.000 HD
ENDBRANCH  12  15
ENDBRANCH   1   9
BRANCH   5  17
ATOM     17  C   UNL     1       2.282   3.498  20.865  0.00  0.00    +0.000 C 
ATOM     18  N   UNL     1       1.084   3.500  20.202  0.00  0.00    +0.000 N 
ATOM     19  O   UNL     1       2.309   3.300  22.075  0.00  0.00    +0.000 OA
ATOM     20  H   UNL     1       1.081   3.399  19.195  0.00  0.00    +0.000 HD
ATOM     21  H   UNL     1       0.289   3.166  20.730  0.00  0.00    +0.000 HD
ENDBRANCH   5  17
BRANCH   4  22
ATOM     22  N   UNL     1       4.719   1.562  20.343  0.00  0.00    +0.000 N 
ATOM     23  H   UNL     1       5.014   0.787  19.752  0.00  0.00    +0.000 HD
ATOM     24  H   UNL     1       4.177   1.242  21.146  0.00  0.00    +0.000 HD
ENDBRANCH   4  22
BRANCH   2  25
ATOM     25  C   UNL     1       5.837   5.446  17.739  0.00  0.00    +0.000 C 
ATOM     26  O   UNL     1       6.394   6.461  18.155  0.00  0.00    +0.000 OA
BRANCH  25  27
ATOM     27  C   UNL     1       6.067   5.094  16.303  0.00  0.00    +0.000 A 
ATOM     28  C   UNL     1       5.036   4.434  15.616  0.00  0.00    +0.000 A 
ATOM     29  C   UNL     1       5.203   4.043  14.287  0.00  0.00    +0.000 A 
ATOM     30  C   UNL     1       6.405   4.300  13.633  0.00  0.00    +0.000 A 
ATOM     31  C   UNL     1       7.444   4.942  14.309  0.00  0.00    +0.000 A 
ATOM     32  C   UNL     1       7.281   5.335  15.644  0.00  0.00    +0.000 A 
ENDBRANCH  25  27
ENDBRANCH   2  25
TORSDOF 7
ENDMDL
MODEL 9
REMARK VINA RESULT:      -7.6      2.494      5.947
REMARK  Name = 
REMARK  8 active torsions:
REMARK  status: ('A' for Active; 'I' for Inactive)
REMARK    1  A    between atoms: C_1  and  O_2
REMARK    2  A    between atoms: O_2  and  C_3
REMARK    3  A    between atoms: C_5  and  C_6
REMARK    4  A    between atoms: C_7  and  C_8
REMARK    5  A    between atoms: C_8  and  C_10
REMARK    6  A    between atoms: C_17  and  N_18
REMARK    7  A    between atoms: C_19  and  C_20
REMARK    8  A    between atoms: C_25  and  O_26
REMARK                            x       y       z     vdW  Elec       q    Type
REMARK                         _______ _______ _______ _____ _____    ______ ____
ROOT
ATOM      1  C   UNL     1       3.658   4.797  18.690  0.00  0.00    +0.000 A 
ATOM      2  C   UNL     1       2.784   5.805  19.114  0.00  0.00    +0.000 A 
ATOM      3  N   UNL     1       1.906   5.221  20.000  0.00  0.00    +0.000 N 
ATOM      4  C   UNL     1       2.166   3.890  20.146  0.00  0.00    +0.000 A 
ATOM      5  C   UNL     1       3.267   3.573  19.365  0.00  0.00    +0.000 A 
ATOM      6  H   UNL     1       1.139   5.699  20.450  0.00  0.00    +0.000 HD
ENDROOT
BRANCH   1   9
ATOM      7  C   UNL     1       5.567   4.837  15.399  0.00  0.00    +0.000 A 
ATOM      8  C   UNL     1       4.547   4.675  16.354  0.00  0.00    +0.000 A 
ATOM      9  C   UNL     1       4.732   5.001  17.706  0.00  0.00    +0.000 A 
ATOM     10  C   UNL     1       5.974   5.520  18.086  0.00  0.00    +0.000 A 
ATOM     11  C   UNL     1       6.981   5.742  17.142  0.00  0.00    +0.000 A 
ATOM     12  C   UNL     1       6.783   5.395  15.804  0.00  0.00    +0.000 A 
BRANCH   7  14
ATOM     13  C   UNL     1       6.141   3.637  13.410  0.00  0.00    +0.000 C 
ATOM     14  O   UNL     1       5.206   4.412  14.147  0.00  0.00    +0.000 OA
ENDBRANCH   7  14
BRANCH  12  15
ATOM     15  O   UNL     1       7.803   5.624  14.923  0.00  0.00    +0.000 OA
ATOM     16  H   UNL     1       7.618   6.443  14.436  0.00  0.00    +0.000 HD
ENDBRANCH  12  15
ENDBRANCH   1   9
BRANCH   5  17
ATOM     17  C   UNL     1       3.898   2.258  19.273  0.00  0.00    +0.000 C 
ATOM     18  N   UNL     1       4.999   2.073  20.065  0.00  0.00    +0.000 N 
ATOM     19  O   UNL     1       3.489   1.338  18.572  0.00  0.00    +0.000 OA
ATOM     20  H   UNL     1       5.173   2.721  20.822  0.00  0.00    +0.000 HD
ATOM     21  H   UNL     1       5.319   1.118  20.156  0.00  0.00    +0.000 HD
ENDBRANCH   5  17
BRANCH   4  22
ATOM     22  N   UNL     1       1.390   3.154  20.969  0.00  0.00    +0.000 N 
ATOM     23  H   UNL     1       0.386   3.298  21.037  0.00  0.00    +0.000 HD
ATOM     24  H   UNL     1       1.785   2.807  21.844  0.00  0.00    +0.000 HD
ENDBRANCH   4  22
BRANCH   2  25
ATOM     25  C   UNL     1       2.663   7.192  18.690  0.00  0.00    +0.000 C 
ATOM     26  O   UNL     1       3.210   7.628  17.678  0.00  0.00    +0.000 OA
BRANCH  25  27
ATOM     27  C   UNL     1       1.833   8.157  19.475  0.00  0.00    +0.000 A 
ATOM     28  C   UNL     1       1.650   7.904  20.843  0.00  0.00    +0.000 A 
ATOM     29  C   UNL     1       0.854   8.744  21.623  0.00  0.00    +0.000 A 
ATOM     30  C   UNL     1       0.226   9.842  21.041  0.00  0.00    +0.000 A 
ATOM     31  C   UNL     1       0.388  10.097  19.678  0.00  0.00    +0.000 A 
ATOM     32  C   UNL     1       1.184   9.255  18.892  0.00  0.00    +0.000 A 
ENDBRANCH  25  27
ENDBRANCH   2  25
TORSDOF 7
ENDMDL
