MODEL 1
REMARK VINA RESULT:      -7.7      0.000      0.000
REMARK  Name = 
REMARK  7 active torsions:
REMARK  status: ('A' for Active; 'I' for Inactive)
REMARK    1  A    between atoms: C_1  and  O_2
REMARK    2  A    between atoms: O_2  and  C_3
REMARK    3  A    between atoms: C_8  and  N_9
REMARK    4  A    between atoms: N_12  and  C_13
REMARK    5  A    between atoms: C_13  and  C_14
REMARK    6  A    between atoms: C_14  and  C_15
REMARK    7  A    between atoms: C_15  and  N_16
REMARK                            x       y       z     vdW  Elec       q    Type
REMARK                         _______ _______ _______ _____ _____    ______ ____
ROOT
ATOM      1  N   UNL     1       4.965   5.010  18.007  0.00  0.00    +0.000 N 
ATOM      2  C   UNL     1       5.584   5.760  19.106  0.00  0.00    +0.000 C 
ATOM      3  C   UNL     1       7.124   5.690  18.979  0.00  0.00    +0.000 C 
ATOM      4  N   UNL     1       7.674   6.133  17.676  0.00  0.00    +0.000 NA
ATOM      5  C   UNL     1       7.005   5.342  16.614  0.00  0.00    +0.000 C 
ATOM      6  C   UNL     1       5.455   5.349  16.659  0.00  0.00    +0.000 C 
ENDROOT
BRANCH   1  12
ATOM      7  C   UNL     1       2.583   4.465  18.482  0.00  0.00    +0.000 A 
ATOM      8  C   UNL     1       1.624   3.477  18.769  0.00  0.00    +0.000 A 
ATOM      9  C   UNL     1       1.960   2.126  18.771  0.00  0.00    +0.000 A 
ATOM     10  C   UNL     1       3.265   1.749  18.501  0.00  0.00    +0.000 A 
ATOM     11  C   UNL     1       4.231   2.726  18.245  0.00  0.00    +0.000 A 
ATOM     12  C   UNL     1       3.937   4.105  18.233  0.00  0.00    +0.000 A 
BRANCH   7  14
ATOM     13  C   UNL     1       2.087   6.479  19.671  0.00  0.00    +0.000 C 
ATOM     14  O   UNL     1       2.254   5.803  18.432  0.00  0.00    +0.000 OA
ENDBRANCH   7  14
ENDBRANCH   1  12
BRANCH   4  15
ATOM     15  C   UNL     1       7.528   7.577  17.433  0.00  0.00    +0.000 C 
BRANCH  15  16
ATOM     16  C   UNL     1       8.436   8.454  18.309  0.00  0.00    +0.000 C 
BRANCH  16  17
ATOM     17  C   UNL     1       8.197   9.957  18.088  0.00  0.00    +0.000 C 
BRANCH  17  18
ATOM     18  N   UNL     1       9.330  10.829  18.454  0.00  0.00    +0.000 NA
ATOM     19  C   UNL     1       9.456  10.888  19.923  0.00  0.00    +0.000 C 
ATOM     20  C   UNL     1      10.699  11.618  20.447  0.00  0.00    +0.000 C 
ATOM     21  C   UNL     1      10.718  13.153  20.383  0.00  0.00    +0.000 C 
ATOM     22  C   UNL     1       9.555  13.793  19.711  0.00  0.00    +0.000 A 
ATOM     23  N   UNL     1       9.036  14.976  20.207  0.00  0.00    +0.000 NA
ATOM     24  C   UNL     1       8.045  15.372  19.438  0.00  0.00    +0.000 A 
ATOM     25  S   UNL     1       7.661  14.352  18.113  0.00  0.00    +0.000 S 
ATOM     26  C   UNL     1       8.941  13.317  18.566  0.00  0.00    +0.000 A 
ATOM     27  C   UNL     1       9.355  12.130  17.764  0.00  0.00    +0.000 C 
ENDBRANCH  17  18
ENDBRANCH  16  17
ENDBRANCH  15  16
ENDBRANCH   4  15
TORSDOF 6
ENDMDL
MODEL 2
REMARK VINA RESULT:      -7.7      1.335      1.496
REMARK  Name = 
REMARK  7 active torsions:
REMARK  status: ('A' for Active; 'I' for Inactive)
REMARK    1  A    between atoms: C_1  and  O_2
REMARK    2  A    between atoms: O_2  and  C_3
REMARK    3  A    between atoms: C_8  and  N_9
REMARK    4  A    between atoms: N_12  and  C_13
REMARK    5  A    between atoms: C_13  and  C_14
REMARK    6  A    between atoms: C_14  and  C_15
REMARK    7  A    between atoms: C_15  and  N_16
REMARK                            x       y       z     vdW  Elec       q    Type
REMARK                         _______ _______ _______ _____ _____    ______ ____
ROOT
ATOM      1  N   UNL     1       5.025   5.611  18.268  0.00  0.00    +0.000 N 
ATOM      2  C   UNL     1       6.172   5.217  19.095  0.00  0.00    +0.000 C 
ATOM      3  C   UNL     1       7.460   5.235  18.237  0.00  0.00    +0.000 C 
ATOM      4  N   UNL     1       7.740   6.512  17.540  0.00  0.00    +0.000 NA
ATOM      5  C   UNL     1       6.544   6.853  16.730  0.00  0.00    +0.000 C 
ATOM      6  C   UNL     1       5.200   6.859  17.504  0.00  0.00    +0.000 C 
ENDROOT
BRANCH   1  12
ATOM      7  C   UNL     1       2.761   5.120  19.176  0.00  0.00    +0.000 A 
ATOM      8  C   UNL     1       1.625   4.289  19.154  0.00  0.00    +0.000 A 
ATOM      9  C   UNL     1       1.507   3.257  18.228  0.00  0.00    +0.000 A 
ATOM     10  C   UNL     1       2.530   3.033  17.322  0.00  0.00    +0.000 A 
ATOM     11  C   UNL     1       3.674   3.834  17.357  0.00  0.00    +0.000 A 
ATOM     12  C   UNL     1       3.839   4.890  18.277  0.00  0.00    +0.000 A 
BRANCH   7  14
ATOM     13  C   UNL     1       2.210   7.384  19.712  0.00  0.00    +0.000 C 
ATOM     14  O   UNL     1       2.872   6.174  20.057  0.00  0.00    +0.000 OA
ENDBRANCH   7  14
ENDBRANCH   1  12
BRANCH   4  15
ATOM     15  C   UNL     1       8.099   7.615  18.447  0.00  0.00    +0.000 C 
BRANCH  15  16
ATOM     16  C   UNL     1       8.206   8.983  17.755  0.00  0.00    +0.000 C 
BRANCH  16  17
ATOM     17  C   UNL     1       8.908  10.034  18.631  0.00  0.00    +0.000 C 
BRANCH  17  18
ATOM     18  N   UNL     1       9.465  11.186  17.898  0.00  0.00    +0.000 NA
ATOM     19  C   UNL     1      10.885  11.364  18.259  0.00  0.00    +0.000 C 
ATOM     20  C   UNL     1      11.644  12.418  17.443  0.00  0.00    +0.000 C 
ATOM     21  C   UNL     1      11.379  13.900  17.749  0.00  0.00    +0.000 C 
ATOM     22  C   UNL     1      10.316  14.180  18.750  0.00  0.00    +0.000 A 
ATOM     23  N   UNL     1      10.472  15.220  19.650  0.00  0.00    +0.000 NA
ATOM     24  C   UNL     1       9.400  15.304  20.409  0.00  0.00    +0.000 A 
ATOM     25  S   UNL     1       8.173  14.140  20.115  0.00  0.00    +0.000 S 
ATOM     26  C   UNL     1       9.118  13.495  18.847  0.00  0.00    +0.000 A 
ATOM     27  C   UNL     1       8.642  12.406  17.947  0.00  0.00    +0.000 C 
ENDBRANCH  17  18
ENDBRANCH  16  17
ENDBRANCH  15  16
ENDBRANCH   4  15
TORSDOF 6
ENDMDL
MODEL 3
REMARK VINA RESULT:      -7.4      1.565      2.242
REMARK  Name = 
REMARK  7 active torsions:
REMARK  status: ('A' for Active; 'I' for Inactive)
REMARK    1  A    between atoms: C_1  and  O_2
REMARK    2  A    between atoms: O_2  and  C_3
REMARK    3  A    between atoms: C_8  and  N_9
REMARK    4  A    between atoms: N_12  and  C_13
REMARK    5  A    between atoms: C_13  and  C_14
REMARK    6  A    between atoms: C_14  and  C_15
REMARK    7  A    between atoms: C_15  and  N_16
REMARK                            x       y       z     vdW  Elec       q    Type
REMARK                         _______ _______ _______ _____ _____    ______ ____
ROOT
ATOM      1  N   UNL     1       5.253   5.798  18.228  0.00  0.00    +0.000 N 
ATOM      2  C   UNL     1       6.298   5.484  19.210  0.00  0.00    +0.000 C 
ATOM      3  C   UNL     1       7.681   5.497  18.517  0.00  0.00    +0.000 C 
ATOM      4  N   UNL     1       8.014   6.744  17.789  0.00  0.00    +0.000 NA
ATOM      5  C   UNL     1       6.920   7.004  16.820  0.00  0.00    +0.000 C 
ATOM      6  C   UNL     1       5.491   7.009  17.422  0.00  0.00    +0.000 C 
ENDROOT
BRANCH   1  12
ATOM      7  C   UNL     1       3.926   3.925  17.268  0.00  0.00    +0.000 A 
ATOM      8  C   UNL     1       2.686   3.262  17.190  0.00  0.00    +0.000 A 
ATOM      9  C   UNL     1       1.613   3.650  17.987  0.00  0.00    +0.000 A 
ATOM     10  C   UNL     1       1.761   4.714  18.860  0.00  0.00    +0.000 A 
ATOM     11  C   UNL     1       2.979   5.397  18.920  0.00  0.00    +0.000 A 
ATOM     12  C   UNL     1       4.094   5.041  18.133  0.00  0.00    +0.000 A 
BRANCH   7  14
ATOM     13  C   UNL     1       5.196   4.149  15.254  0.00  0.00    +0.000 C 
ATOM     14  O   UNL     1       5.011   3.524  16.518  0.00  0.00    +0.000 OA
ENDBRANCH   7  14
ENDBRANCH   1  12
BRANCH   4  15
ATOM     15  C   UNL     1       8.230   7.904  18.669  0.00  0.00    +0.000 C 
BRANCH  15  16
ATOM     16  C   UNL     1       8.258   9.251  17.931  0.00  0.00    +0.000 C 
BRANCH  16  17
ATOM     17  C   UNL     1       9.126  10.299  18.647  0.00  0.00    +0.000 C 
BRANCH  17  18
ATOM     18  N   UNL     1       9.600  11.406  17.794  0.00  0.00    +0.000 NA
ATOM     19  C   UNL     1      10.979  11.769  18.175  0.00  0.00    +0.000 C 
ATOM     20  C   UNL     1      11.667  12.788  17.258  0.00  0.00    +0.000 C 
ATOM     21  C   UNL     1      11.247  14.261  17.369  0.00  0.00    +0.000 C 
ATOM     22  C   UNL     1      10.119  14.551  18.296  0.00  0.00    +0.000 A 
ATOM     23  N   UNL     1      10.135  15.702  19.064  0.00  0.00    +0.000 NA
ATOM     24  C   UNL     1       9.029  15.767  19.773  0.00  0.00    +0.000 A 
ATOM     25  S   UNL     1       7.934  14.458  19.588  0.00  0.00    +0.000 S 
ATOM     26  C   UNL     1       8.990  13.764  18.440  0.00  0.00    +0.000 A 
ATOM     27  C   UNL     1       8.661  12.533  17.667  0.00  0.00    +0.000 C 
ENDBRANCH  17  18
ENDBRANCH  16  17
ENDBRANCH  15  16
ENDBRANCH   4  15
TORSDOF 6
ENDMDL
MODEL 4
REMARK VINA RESULT:      -7.0      4.782      7.821
REMARK  Name = 
REMARK  7 active torsions:
REMARK  status: ('A' for Active; 'I' for Inactive)
REMARK    1  A    between atoms: C_1  and  O_2
REMARK    2  A    between atoms: O_2  and  C_3
REMARK    3  A    between atoms: C_8  and  N_9
REMARK    4  A    between atoms: N_12  and  C_13
REMARK    5  A    between atoms: C_13  and  C_14
REMARK    6  A    between atoms: C_14  and  C_15
REMARK    7  A    between atoms: C_15  and  N_16
REMARK                            x       y       z     vdW  Elec       q    Type
REMARK                         _______ _______ _______ _____ _____    ______ ____
ROOT
ATOM      1  N   UNL     1       4.336   5.950  18.117  0.00  0.00    +0.000 N 
ATOM      2  C   UNL     1       3.627   7.220  17.921  0.00  0.00    +0.000 C 
ATOM      3  C   UNL     1       2.124   7.027  18.228  0.00  0.00    +0.000 C 
ATOM      4  N   UNL     1       1.815   6.465  19.564  0.00  0.00    +0.000 NA
ATOM      5  C   UNL     1       2.564   5.191  19.698  0.00  0.00    +0.000 C 
ATOM      6  C   UNL     1       4.085   5.282  19.407  0.00  0.00    +0.000 C 
ENDROOT
BRANCH   1  12
ATOM      7  C   UNL     1       6.594   5.877  17.072  0.00  0.00    +0.000 A 
ATOM      8  C   UNL     1       7.411   5.380  16.040  0.00  0.00    +0.000 A 
ATOM      9  C   UNL     1       6.930   4.444  15.129  0.00  0.00    +0.000 A 
ATOM     10  C   UNL     1       5.620   4.005  15.231  0.00  0.00    +0.000 A 
ATOM     11  C   UNL     1       4.793   4.516  16.233  0.00  0.00    +0.000 A 
ATOM     12  C   UNL     1       5.236   5.466  17.178  0.00  0.00    +0.000 A 
BRANCH   7  14
ATOM     13  C   UNL     1       7.735   7.929  17.524  0.00  0.00    +0.000 C 
ATOM     14  O   UNL     1       7.069   6.770  18.009  0.00  0.00    +0.000 OA
ENDBRANCH   7  14
ENDBRANCH   1  12
BRANCH   4  15
ATOM     15  C   UNL     1       2.122   7.379  20.676  0.00  0.00    +0.000 C 
BRANCH  15  16
ATOM     16  C   UNL     1       0.935   8.252  21.113  0.00  0.00    +0.000 C 
BRANCH  16  17
ATOM     17  C   UNL     1       1.271   9.144  22.319  0.00  0.00    +0.000 C 
BRANCH  17  18
ATOM     18  N   UNL     1       0.648  10.482  22.299  0.00  0.00    +0.000 NA
ATOM     19  C   UNL     1      -0.737  10.391  22.800  0.00  0.00    +0.000 C 
ATOM     20  C   UNL     1      -1.452  11.733  23.001  0.00  0.00    +0.000 C 
ATOM     21  C   UNL     1      -1.950  12.482  21.756  0.00  0.00    +0.000 C 
ATOM     22  C   UNL     1      -1.593  11.879  20.445  0.00  0.00    +0.000 A 
ATOM     23  N   UNL     1      -2.501  11.908  19.400  0.00  0.00    +0.000 NA
ATOM     24  C   UNL     1      -1.960  11.354  18.337  0.00  0.00    +0.000 A 
ATOM     25  S   UNL     1      -0.366  10.745  18.529  0.00  0.00    +0.000 S 
ATOM     26  C   UNL     1      -0.372  11.299  20.145  0.00  0.00    +0.000 A 
ATOM     27  C   UNL     1       0.818  11.223  21.038  0.00  0.00    +0.000 C 
ENDBRANCH  17  18
ENDBRANCH  16  17
ENDBRANCH  15  16
ENDBRANCH   4  15
TORSDOF 6
ENDMDL
MODEL 5
REMARK VINA RESULT:      -7.0      1.153      1.888
REMARK  Name = 
REMARK  7 active torsions:
REMARK  status: ('A' for Active; 'I' for Inactive)
REMARK    1  A    between atoms: C_1  and  O_2
REMARK    2  A    between atoms: O_2  and  C_3
REMARK    3  A    between atoms: C_8  and  N_9
REMARK    4  A    between atoms: N_12  and  C_13
REMARK    5  A    between atoms: C_13  and  C_14
REMARK    6  A    between atoms: C_14  and  C_15
REMARK    7  A    between atoms: C_15  and  N_16
REMARK                            x       y       z     vdW  Elec       q    Type
REMARK                         _______ _______ _______ _____ _____    ______ ____
ROOT
ATOM      1  N   UNL     1       4.170   5.153  18.523  0.00  0.00    +0.000 N 
ATOM      2  C   UNL     1       5.166   5.783  19.399  0.00  0.00    +0.000 C 
ATOM      3  C   UNL     1       6.588   5.435  18.901  0.00  0.00    +0.000 C 
ATOM      4  N   UNL     1       6.863   5.768  17.483  0.00  0.00    +0.000 NA
ATOM      5  C   UNL     1       5.822   5.107  16.657  0.00  0.00    +0.000 C 
ATOM      6  C   UNL     1       4.358   5.394  17.082  0.00  0.00    +0.000 C 
ENDROOT
BRANCH   1  12
ATOM      7  C   UNL     1       2.762   3.108  18.695  0.00  0.00    +0.000 A 
ATOM      8  C   UNL     1       1.604   2.502  19.217  0.00  0.00    +0.000 A 
ATOM      9  C   UNL     1       0.780   3.176  20.113  0.00  0.00    +0.000 A 
ATOM     10  C   UNL     1       1.096   4.472  20.486  0.00  0.00    +0.000 A 
ATOM     11  C   UNL     1       2.226   5.092  19.949  0.00  0.00    +0.000 A 
ATOM     12  C   UNL     1       3.090   4.449  19.038  0.00  0.00    +0.000 A 
BRANCH   7  14
ATOM     13  C   UNL     1       4.119   1.184  18.281  0.00  0.00    +0.000 C 
ATOM     14  O   UNL     1       3.612   2.437  17.842  0.00  0.00    +0.000 OA
ENDBRANCH   7  14
ENDBRANCH   1  12
BRANCH   4  15
ATOM     15  C   UNL     1       6.914   7.214  17.214  0.00  0.00    +0.000 C 
BRANCH  15  16
ATOM     16  C   UNL     1       7.987   7.962  18.020  0.00  0.00    +0.000 C 
BRANCH  16  17
ATOM     17  C   UNL     1       7.930   9.484  17.808  0.00  0.00    +0.000 C 
BRANCH  17  18
ATOM     18  N   UNL     1       9.089  10.231  18.333  0.00  0.00    +0.000 NA
ATOM     19  C   UNL     1       9.022  10.279  19.807  0.00  0.00    +0.000 C 
ATOM     20  C   UNL     1      10.253  10.874  20.502  0.00  0.00    +0.000 C 
ATOM     21  C   UNL     1      10.442  12.398  20.460  0.00  0.00    +0.000 C 
ATOM     22  C   UNL     1       9.455  13.157  19.646  0.00  0.00    +0.000 A 
ATOM     23  N   UNL     1       9.002  14.389  20.082  0.00  0.00    +0.000 NA
ATOM     24  C   UNL     1       8.172  14.888  19.191  0.00  0.00    +0.000 A 
ATOM     25  S   UNL     1       7.864  13.911  17.814  0.00  0.00    +0.000 S 
ATOM     26  C   UNL     1       8.955  12.746  18.423  0.00  0.00    +0.000 A 
ATOM     27  C   UNL     1       9.345  11.521  17.669  0.00  0.00    +0.000 C 
ENDBRANCH  17  18
ENDBRANCH  16  17
ENDBRANCH  15  16
ENDBRANCH   4  15
TORSDOF 6
ENDMDL
MODEL 6
REMARK VINA RESULT:      -6.9      1.659      2.114
REMARK  Name = 
REMARK  7 active torsions:
REMARK  status: ('A' for Active; 'I' for Inactive)
REMARK    1  A    between atoms: C_1  and  O_2
REMARK    2  A    between atoms: O_2  and  C_3
REMARK    3  A    between atoms: C_8  and  N_9
REMARK    4  A    between atoms: N_12  and  C_13
REMARK    5  A    between atoms: C_13  and  C_14
REMARK    6  A    between atoms: C_14  and  C_15
REMARK    7  A    between atoms: C_15  and  N_16
REMARK                            x       y       z     vdW  Elec       q    Type
REMARK                         _______ _______ _______ _____ _____    ______ ____
ROOT
ATOM      1  N   UNL     1       4.755   5.218  18.095  0.00  0.00    +0.000 N 
ATOM      2  C   UNL     1       5.450   5.828  19.235  0.00  0.00    +0.000 C 
ATOM      3  C   UNL     1       6.979   5.695  19.041  0.00  0.00    +0.000 C 
ATOM      4  N   UNL     1       7.506   6.236  17.766  0.00  0.00    +0.000 NA
ATOM      5  C   UNL     1       6.760   5.585  16.660  0.00  0.00    +0.000 C 
ATOM      6  C   UNL     1       5.215   5.663  16.767  0.00  0.00    +0.000 C 
ENDROOT
BRANCH   1  12
ATOM      7  C   UNL     1       3.758   3.124  18.998  0.00  0.00    +0.000 A 
ATOM      8  C   UNL     1       2.641   2.272  19.065  0.00  0.00    +0.000 A 
ATOM      9  C   UNL     1       1.433   2.620  18.468  0.00  0.00    +0.000 A 
ATOM     10  C   UNL     1       1.332   3.820  17.784  0.00  0.00    +0.000 A 
ATOM     11  C   UNL     1       2.445   4.658  17.686  0.00  0.00    +0.000 A 
ATOM     12  C   UNL     1       3.690   4.347  18.273  0.00  0.00    +0.000 A 
BRANCH   7  14
ATOM     13  C   UNL     1       4.957   1.676  20.475  0.00  0.00    +0.000 C 
ATOM     14  O   UNL     1       4.948   2.814  19.622  0.00  0.00    +0.000 OA
ENDBRANCH   7  14
ENDBRANCH   1  12
BRANCH   4  15
ATOM     15  C   UNL     1       7.426   7.702  17.666  0.00  0.00    +0.000 C 
BRANCH  15  16
ATOM     16  C   UNL     1       8.700   8.430  18.123  0.00  0.00    +0.000 C 
BRANCH  16  17
ATOM     17  C   UNL     1       8.470   9.930  18.365  0.00  0.00    +0.000 C 
BRANCH  17  18
ATOM     18  N   UNL     1       9.408  10.563  19.311  0.00  0.00    +0.000 NA
ATOM     19  C   UNL     1       8.690  11.557  20.131  0.00  0.00    +0.000 C 
ATOM     20  C   UNL     1       9.501  12.171  21.280  0.00  0.00    +0.000 C 
ATOM     21  C   UNL     1      10.566  13.222  20.934  0.00  0.00    +0.000 C 
ATOM     22  C   UNL     1      10.788  13.475  19.485  0.00  0.00    +0.000 A 
ATOM     23  N   UNL     1      11.039  14.760  19.038  0.00  0.00    +0.000 NA
ATOM     24  C   UNL     1      11.239  14.738  17.738  0.00  0.00    +0.000 A 
ATOM     25  S   UNL     1      11.109  13.204  16.979  0.00  0.00    +0.000 S 
ATOM     26  C   UNL     1      10.805  12.499  18.504  0.00  0.00    +0.000 A 
ATOM     27  C   UNL     1      10.670  11.029  18.711  0.00  0.00    +0.000 C 
ENDBRANCH  17  18
ENDBRANCH  16  17
ENDBRANCH  15  16
ENDBRANCH   4  15
TORSDOF 6
ENDMDL
MODEL 7
REMARK VINA RESULT:      -6.9      5.026      7.594
REMARK  Name = 
REMARK  7 active torsions:
REMARK  status: ('A' for Active; 'I' for Inactive)
REMARK    1  A    between atoms: C_1  and  O_2
REMARK    2  A    between atoms: O_2  and  C_3
REMARK    3  A    between atoms: C_8  and  N_9
REMARK    4  A    between atoms: N_12  and  C_13
REMARK    5  A    between atoms: C_13  and  C_14
REMARK    6  A    between atoms: C_14  and  C_15
REMARK    7  A    between atoms: C_15  and  N_16
REMARK                            x       y       z     vdW  Elec       q    Type
REMARK                         _______ _______ _______ _____ _____    ______ ____
ROOT
ATOM      1  N   UNL     1       4.321   5.179  18.061  0.00  0.00    +0.000 N 
ATOM      2  C   UNL     1       3.162   6.068  17.914  0.00  0.00    +0.000 C 
ATOM      3  C   UNL     1       1.885   5.336  18.389  0.00  0.00    +0.000 C 
ATOM      4  N   UNL     1       1.943   4.786  19.764  0.00  0.00    +0.000 NA
ATOM      5  C   UNL     1       3.134   3.904  19.844  0.00  0.00    +0.000 C 
ATOM      6  C   UNL     1       4.467   4.549  19.386  0.00  0.00    +0.000 C 
ENDROOT
BRANCH   1  12
ATOM      7  C   UNL     1       6.508   5.671  16.979  0.00  0.00    +0.000 A 
ATOM      8  C   UNL     1       7.350   5.495  15.866  0.00  0.00    +0.000 A 
ATOM      9  C   UNL     1       6.996   4.644  14.823  0.00  0.00    +0.000 A 
ATOM     10  C   UNL     1       5.788   3.970  14.875  0.00  0.00    +0.000 A 
ATOM     11  C   UNL     1       4.931   4.163  15.961  0.00  0.00    +0.000 A 
ATOM     12  C   UNL     1       5.247   5.016  17.040  0.00  0.00    +0.000 A 
BRANCH   7  14
ATOM     13  C   UNL     1       7.860   5.981  18.927  0.00  0.00    +0.000 C 
ATOM     14  O   UNL     1       6.865   6.476  18.040  0.00  0.00    +0.000 OA
ENDBRANCH   7  14
ENDBRANCH   1  12
BRANCH   4  15
ATOM     15  C   UNL     1       1.974   5.816  20.814  0.00  0.00    +0.000 C 
BRANCH  15  16
ATOM     16  C   UNL     1       0.910   6.912  20.647  0.00  0.00    +0.000 C 
BRANCH  16  17
ATOM     17  C   UNL     1       1.525   8.307  20.449  0.00  0.00    +0.000 C 
BRANCH  17  18
ATOM     18  N   UNL     1       1.113   9.318  21.441  0.00  0.00    +0.000 NA
ATOM     19  C   UNL     1      -0.166   8.916  22.057  0.00  0.00    +0.000 C 
ATOM     20  C   UNL     1      -0.631   9.783  23.234  0.00  0.00    +0.000 C 
ATOM     21  C   UNL     1      -1.213  11.171  22.925  0.00  0.00    +0.000 C 
ATOM     22  C   UNL     1      -1.174  11.593  21.500  0.00  0.00    +0.000 A 
ATOM     23  N   UNL     1      -2.229  12.310  20.963  0.00  0.00    +0.000 NA
ATOM     24  C   UNL     1      -1.962  12.605  19.709  0.00  0.00    +0.000 A 
ATOM     25  S   UNL     1      -0.468  12.023  19.097  0.00  0.00    +0.000 S 
ATOM     26  C   UNL     1      -0.121  11.361  20.633  0.00  0.00    +0.000 A 
ATOM     27  C   UNL     1       1.178  10.711  20.967  0.00  0.00    +0.000 C 
ENDBRANCH  17  18
ENDBRANCH  16  17
ENDBRANCH  15  16
ENDBRANCH   4  15
TORSDOF 6
ENDMDL
MODEL 8
REMARK VINA RESULT:      -6.7      1.251      1.878
REMARK  Name = 
REMARK  7 active torsions:
REMARK  status: ('A' for Active; 'I' for Inactive)
REMARK    1  A    between atoms: C_1  and  O_2
REMARK    2  A    between atoms: O_2  and  C_3
REMARK    3  A    between atoms: C_8  and  N_9
REMARK    4  A    between atoms: N_12  and  C_13
REMARK    5  A    between atoms: C_13  and  C_14
REMARK    6  A    between atoms: C_14  and  C_15
REMARK    7  A    between atoms: C_15  and  N_16
REMARK                            x       y       z     vdW  Elec       q    Type
REMARK                         _______ _______ _______ _____ _____    ______ ____
ROOT
ATOM      1  N   UNL     1       4.676   5.093  18.151  0.00  0.00    +0.000 N 
ATOM      2  C   UNL     1       6.021   4.569  17.884  0.00  0.00    +0.000 C 
ATOM      3  C   UNL     1       6.640   5.318  16.680  0.00  0.00    +0.000 C 
ATOM      4  N   UNL     1       6.675   6.794  16.801  0.00  0.00    +0.000 NA
ATOM      5  C   UNL     1       5.291   7.255  17.074  0.00  0.00    +0.000 C 
ATOM      6  C   UNL     1       4.584   6.560  18.265  0.00  0.00    +0.000 C 
ENDROOT
BRANCH   1  12
ATOM      7  C   UNL     1       3.587   3.147  19.255  0.00  0.00    +0.000 A 
ATOM      8  C   UNL     1       2.463   2.305  19.342  0.00  0.00    +0.000 A 
ATOM      9  C   UNL     1       1.318   2.552  18.590  0.00  0.00    +0.000 A 
ATOM     10  C   UNL     1       1.289   3.637  17.730  0.00  0.00    +0.000 A 
ATOM     11  C   UNL     1       2.412   4.461  17.615  0.00  0.00    +0.000 A 
ATOM     12  C   UNL     1       3.594   4.249  18.355  0.00  0.00    +0.000 A 
BRANCH   7  14
ATOM     13  C   UNL     1       5.011   1.601  20.395  0.00  0.00    +0.000 C 
ATOM     14  O   UNL     1       4.710   2.941  20.027  0.00  0.00    +0.000 OA
ENDBRANCH   7  14
ENDBRANCH   1  12
BRANCH   4  15
ATOM     15  C   UNL     1       7.608   7.282  17.829  0.00  0.00    +0.000 C 
BRANCH  15  16
ATOM     16  C   UNL     1       8.421   8.514  17.402  0.00  0.00    +0.000 C 
BRANCH  16  17
ATOM     17  C   UNL     1       8.079   9.763  18.230  0.00  0.00    +0.000 C 
BRANCH  17  18
ATOM     18  N   UNL     1       9.225  10.640  18.540  0.00  0.00    +0.000 NA
ATOM     19  C   UNL     1       9.343  10.803  20.002  0.00  0.00    +0.000 C 
ATOM     20  C   UNL     1      10.595  11.549  20.481  0.00  0.00    +0.000 C 
ATOM     21  C   UNL     1      10.641  13.074  20.306  0.00  0.00    +0.000 C 
ATOM     22  C   UNL     1       9.494  13.683  19.581  0.00  0.00    +0.000 A 
ATOM     23  N   UNL     1       8.993  14.908  19.985  0.00  0.00    +0.000 NA
ATOM     24  C   UNL     1       8.014  15.265  19.182  0.00  0.00    +0.000 A 
ATOM     25  S   UNL     1       7.620  14.157  17.932  0.00  0.00    +0.000 S 
ATOM     26  C   UNL     1       8.879  13.136  18.468  0.00  0.00    +0.000 A 
ATOM     27  C   UNL     1       9.277  11.887  17.758  0.00  0.00    +0.000 C 
ENDBRANCH  17  18
ENDBRANCH  16  17
ENDBRANCH  15  16
ENDBRANCH   4  15
TORSDOF 6
ENDMDL
MODEL 9
REMARK VINA RESULT:      -6.7      1.536      2.203
REMARK  Name = 
REMARK  7 active torsions:
REMARK  status: ('A' for Active; 'I' for Inactive)
REMARK    1  A    between atoms: C_1  and  O_2
REMARK    2  A    between atoms: O_2  and  C_3
REMARK    3  A    between atoms: C_8  and  N_9
REMARK    4  A    between atoms: N_12  and  C_13
REMARK    5  A    between atoms: C_13  and  C_14
REMARK    6  A    between atoms: C_14  and  C_15
REMARK    7  A    between atoms: C_15  and  N_16
REMARK                            x       y       z     vdW  Elec       q    Type
REMARK                         _______ _______ _______ _____ _____    ______ ____
ROOT
ATOM      1  N   UNL     1       4.535   5.621  18.715  0.00  0.00    +0.000 N 
ATOM      2  C   UNL     1       5.743   5.996  19.459  0.00  0.00    +0.000 C 
ATOM      3  C   UNL     1       6.998   5.585  18.653  0.00  0.00    +0.000 C 
ATOM      4  N   UNL     1       7.061   6.108  17.268  0.00  0.00    +0.000 NA
ATOM      5  C   UNL     1       5.813   5.699  16.576  0.00  0.00    +0.000 C 
ATOM      6  C   UNL     1       4.498   6.067  17.311  0.00  0.00    +0.000 C 
ENDROOT
BRANCH   1  12
ATOM      7  C   UNL     1       3.280   3.553  19.300  0.00  0.00    +0.000 A 
ATOM      8  C   UNL     1       2.138   2.982  19.892  0.00  0.00    +0.000 A 
ATOM      9  C   UNL     1       1.203   3.770  20.557  0.00  0.00    +0.000 A 
ATOM     10  C   UNL     1       1.391   5.140  20.625  0.00  0.00    +0.000 A 
ATOM     11  C   UNL     1       2.505   5.718  20.012  0.00  0.00    +0.000 A 
ATOM     12  C   UNL     1       3.479   4.961  19.327  0.00  0.00    +0.000 A 
BRANCH   7  14
ATOM     13  C   UNL     1       3.812   1.959  17.598  0.00  0.00    +0.000 C 
ATOM     14  O   UNL     1       4.238   2.781  18.677  0.00  0.00    +0.000 OA
ENDBRANCH   7  14
ENDBRANCH   1  12
BRANCH   4  15
ATOM     15  C   UNL     1       7.255   7.565  17.193  0.00  0.00    +0.000 C 
BRANCH  15  16
ATOM     16  C   UNL     1       8.255   8.116  18.222  0.00  0.00    +0.000 C 
BRANCH  16  17
ATOM     17  C   UNL     1       8.451   9.636  18.099  0.00  0.00    +0.000 C 
BRANCH  17  18
ATOM     18  N   UNL     1       9.452  10.213  19.017  0.00  0.00    +0.000 NA
ATOM     19  C   UNL     1       8.771  11.011  20.054  0.00  0.00    +0.000 C 
ATOM     20  C   UNL     1       9.672  11.529  21.182  0.00  0.00    +0.000 C 
ATOM     21  C   UNL     1      10.602  12.713  20.880  0.00  0.00    +0.000 C 
ATOM     22  C   UNL     1      10.620  13.187  19.470  0.00  0.00    +0.000 A 
ATOM     23  N   UNL     1      10.716  14.540  19.196  0.00  0.00    +0.000 NA
ATOM     24  C   UNL     1      10.751  14.719  17.893  0.00  0.00    +0.000 A 
ATOM     25  S   UNL     1      10.642  13.302  16.931  0.00  0.00    +0.000 S 
ATOM     26  C   UNL     1      10.587  12.364  18.357  0.00  0.00    +0.000 A 
ATOM     27  C   UNL     1      10.589  10.873  18.354  0.00  0.00    +0.000 C 
ENDBRANCH  17  18
ENDBRANCH  16  17
ENDBRANCH  15  16
ENDBRANCH   4  15
TORSDOF 6
ENDMDL
