MODEL 1
REMARK VINA RESULT:      -7.9      0.000      0.000
REMARK  Name = 
REMARK  5 active torsions:
REMARK  status: ('A' for Active; 'I' for Inactive)
REMARK    1  A    between atoms: C_5  and  C_6
REMARK    2  A    between atoms: C_6  and  C_7
REMARK    3  A    between atoms: C_6  and  N_17
REMARK    4  A    between atoms: C_7  and  N_8
REMARK    5  A    between atoms: N_17  and  C_18
REMARK                            x       y       z     vdW  Elec       q    Type
REMARK                         _______ _______ _______ _____ _____    ______ ____
ROOT
ATOM      1  C   UNL     1       2.629   5.660  18.139  0.00  0.00    +0.000 C 
ENDROOT
BRANCH   1   6
ATOM      2  F   UNL     1       0.944   2.127  22.234  0.00  0.00    +0.000 F 
ATOM      3  C   UNL     1       1.337   2.957  21.258  0.00  0.00    +0.000 A 
ATOM      4  C   UNL     1       2.248   3.963  21.544  0.00  0.00    +0.000 A 
ATOM      5  C   UNL     1       2.655   4.834  20.531  0.00  0.00    +0.000 A 
ATOM      6  C   UNL     1       2.155   4.696  19.224  0.00  0.00    +0.000 A 
ATOM      7  C   UNL     1       1.246   3.653  18.958  0.00  0.00    +0.000 A 
ATOM      8  C   UNL     1       0.830   2.793  19.977  0.00  0.00    +0.000 A 
ENDBRANCH   1   6
BRANCH   1   9
ATOM      9  N   UNL     1       3.570   5.045  17.183  0.00  0.00    +0.000 NA
ATOM     10  H   UNL     1       3.180   5.039  16.245  0.00  0.00    +0.000 HD
BRANCH   9  11
ATOM     11  C   UNL     1       4.926   5.620  17.179  0.00  0.00    +0.000 C 
ATOM     12  C   UNL     1       5.263   6.091  15.774  0.00  0.00    +0.000 C 
ATOM     13  C   UNL     1       5.747   4.820  15.107  0.00  0.00    +0.000 C 
ATOM     14  O   UNL     1       6.425   4.067  16.121  0.00  0.00    +0.000 OA
ATOM     15  C   UNL     1       6.057   4.607  17.401  0.00  0.00    +0.000 C 
ENDBRANCH   9  11
ENDBRANCH   1   9
BRANCH   1  16
ATOM     16  C   UNL     1       3.240   6.920  18.811  0.00  0.00    +0.000 C 
BRANCH  16  17
ATOM     17  N   UNL     1       2.349   8.065  18.781  0.00  0.00    +0.000 N 
ATOM     18  C   UNL     1       2.084   8.815  17.668  0.00  0.00    +0.000 A 
ATOM     19  N   UNL     1       1.132   9.691  17.886  0.00  0.00    +0.000 NA
ATOM     20  C   UNL     1       0.778   9.511  19.202  0.00  0.00    +0.000 A 
ATOM     21  C   UNL     1      -0.222  10.153  19.946  0.00  0.00    +0.000 A 
ATOM     22  C   UNL     1      -0.377   9.816  21.296  0.00  0.00    +0.000 A 
ATOM     23  C   UNL     1       0.459   8.872  21.896  0.00  0.00    +0.000 A 
ATOM     24  C   UNL     1       1.453   8.208  21.165  0.00  0.00    +0.000 A 
ATOM     25  C   UNL     1       1.571   8.538  19.809  0.00  0.00    +0.000 A 
ENDBRANCH  16  17
ENDBRANCH   1  16
TORSDOF 5
ENDMDL
MODEL 2
REMARK VINA RESULT:      -7.9      3.565      5.735
REMARK  Name = 
REMARK  5 active torsions:
REMARK  status: ('A' for Active; 'I' for Inactive)
REMARK    1  A    between atoms: C_5  and  C_6
REMARK    2  A    between atoms: C_6  and  C_7
REMARK    3  A    between atoms: C_6  and  N_17
REMARK    4  A    between atoms: C_7  and  N_8
REMARK    5  A    between atoms: N_17  and  C_18
REMARK                            x       y       z     vdW  Elec       q    Type
REMARK                         _______ _______ _______ _____ _____    ______ ____
ROOT
ATOM      1  C   UNL     1       5.789   3.812  16.409  0.00  0.00    +0.000 C 
ENDROOT
BRANCH   1   6
ATOM      2  F   UNL     1       8.593   8.038  18.930  0.00  0.00    +0.000 F 
ATOM      3  C   UNL     1       7.925   7.046  18.328  0.00  0.00    +0.000 A 
ATOM      4  C   UNL     1       8.102   5.741  18.763  0.00  0.00    +0.000 A 
ATOM      5  C   UNL     1       7.411   4.703  18.134  0.00  0.00    +0.000 A 
ATOM      6  C   UNL     1       6.535   4.970  17.068  0.00  0.00    +0.000 A 
ATOM      7  C   UNL     1       6.360   6.307  16.659  0.00  0.00    +0.000 A 
ATOM      8  C   UNL     1       7.062   7.340  17.281  0.00  0.00    +0.000 A 
ENDBRANCH   1   6
BRANCH   1   9
ATOM      9  N   UNL     1       6.307   3.470  15.070  0.00  0.00    +0.000 NA
ATOM     10  H   UNL     1       6.050   2.522  14.813  0.00  0.00    +0.000 HD
BRANCH   9  11
ATOM     11  C   UNL     1       5.946   4.415  13.998  0.00  0.00    +0.000 C 
ATOM     12  C   UNL     1       5.144   3.682  12.937  0.00  0.00    +0.000 C 
ATOM     13  C   UNL     1       6.224   3.049  12.083  0.00  0.00    +0.000 C 
ATOM     14  O   UNL     1       7.322   3.971  12.077  0.00  0.00    +0.000 OA
ATOM     15  C   UNL     1       7.126   4.908  13.149  0.00  0.00    +0.000 C 
ENDBRANCH   9  11
ENDBRANCH   1   9
BRANCH   1  16
ATOM     16  C   UNL     1       4.272   4.143  16.367  0.00  0.00    +0.000 C 
BRANCH  16  17
ATOM     17  N   UNL     1       3.548   3.622  17.512  0.00  0.00    +0.000 N 
ATOM     18  C   UNL     1       3.411   2.293  17.806  0.00  0.00    +0.000 A 
ATOM     19  N   UNL     1       2.842   2.109  18.974  0.00  0.00    +0.000 NA
ATOM     20  C   UNL     1       2.584   3.373  19.447  0.00  0.00    +0.000 A 
ATOM     21  C   UNL     1       2.026   3.764  20.672  0.00  0.00    +0.000 A 
ATOM     22  C   UNL     1       1.833   5.128  20.920  0.00  0.00    +0.000 A 
ATOM     23  C   UNL     1       2.175   6.082  19.958  0.00  0.00    +0.000 A 
ATOM     24  C   UNL     1       2.748   5.713  18.735  0.00  0.00    +0.000 A 
ATOM     25  C   UNL     1       2.960   4.345  18.521  0.00  0.00    +0.000 A 
ENDBRANCH  16  17
ENDBRANCH   1  16
TORSDOF 5
ENDMDL
MODEL 3
REMARK VINA RESULT:      -7.8      4.579      6.380
REMARK  Name = 
REMARK  5 active torsions:
REMARK  status: ('A' for Active; 'I' for Inactive)
REMARK    1  A    between atoms: C_5  and  C_6
REMARK    2  A    between atoms: C_6  and  C_7
REMARK    3  A    between atoms: C_6  and  N_17
REMARK    4  A    between atoms: C_7  and  N_8
REMARK    5  A    between atoms: N_17  and  C_18
REMARK                            x       y       z     vdW  Elec       q    Type
REMARK                         _______ _______ _______ _____ _____    ______ ____
ROOT
ATOM      1  C   UNL     1       5.443   4.274  16.772  0.00  0.00    +0.000 C 
ENDROOT
BRANCH   1   6
ATOM      2  F   UNL     1       7.317   4.279  11.427  0.00  0.00    +0.000 F 
ATOM      3  C   UNL     1       6.865   4.272  12.688  0.00  0.00    +0.000 A 
ATOM      4  C   UNL     1       7.578   4.941  13.672  0.00  0.00    +0.000 A 
ATOM      5  C   UNL     1       7.113   4.932  14.988  0.00  0.00    +0.000 A 
ATOM      6  C   UNL     1       5.927   4.256  15.324  0.00  0.00    +0.000 A 
ATOM      7  C   UNL     1       5.213   3.601  14.301  0.00  0.00    +0.000 A 
ATOM      8  C   UNL     1       5.688   3.601  12.989  0.00  0.00    +0.000 A 
ENDBRANCH   1   6
BRANCH   1   9
ATOM      9  N   UNL     1       6.541   4.364  17.754  0.00  0.00    +0.000 NA
ATOM     10  H   UNL     1       7.439   4.443  17.286  0.00  0.00    +0.000 HD
BRANCH   9  11
ATOM     11  C   UNL     1       6.389   5.419  18.770  0.00  0.00    +0.000 C 
ATOM     12  C   UNL     1       6.050   6.730  18.081  0.00  0.00    +0.000 C 
ATOM     13  C   UNL     1       7.413   7.250  17.672  0.00  0.00    +0.000 C 
ATOM     14  O   UNL     1       8.323   6.846  18.703  0.00  0.00    +0.000 OA
ATOM     15  C   UNL     1       7.688   5.819  19.483  0.00  0.00    +0.000 C 
ENDBRANCH   9  11
ENDBRANCH   1   9
BRANCH   1  16
ATOM     16  C   UNL     1       4.551   3.028  17.025  0.00  0.00    +0.000 C 
BRANCH  16  17
ATOM     17  N   UNL     1       3.286   3.356  17.658  0.00  0.00    +0.000 N 
ATOM     18  C   UNL     1       2.186   3.828  16.996  0.00  0.00    +0.000 A 
ATOM     19  N   UNL     1       1.138   3.897  17.783  0.00  0.00    +0.000 NA
ATOM     20  C   UNL     1       1.584   3.467  19.009  0.00  0.00    +0.000 A 
ATOM     21  C   UNL     1       0.869   3.296  20.203  0.00  0.00    +0.000 A 
ATOM     22  C   UNL     1       1.556   2.868  21.344  0.00  0.00    +0.000 A 
ATOM     23  C   UNL     1       2.932   2.631  21.300  0.00  0.00    +0.000 A 
ATOM     24  C   UNL     1       3.661   2.780  20.114  0.00  0.00    +0.000 A 
ATOM     25  C   UNL     1       2.948   3.180  18.977  0.00  0.00    +0.000 A 
ENDBRANCH  16  17
ENDBRANCH   1  16
TORSDOF 5
ENDMDL
MODEL 4
REMARK VINA RESULT:      -7.8      2.630      4.494
REMARK  Name = 
REMARK  5 active torsions:
REMARK  status: ('A' for Active; 'I' for Inactive)
REMARK    1  A    between atoms: C_5  and  C_6
REMARK    2  A    between atoms: C_6  and  C_7
REMARK    3  A    between atoms: C_6  and  N_17
REMARK    4  A    between atoms: C_7  and  N_8
REMARK    5  A    between atoms: N_17  and  C_18
REMARK                            x       y       z     vdW  Elec       q    Type
REMARK                         _______ _______ _______ _____ _____    ______ ____
ROOT
ATOM      1  C   UNL     1       3.674   6.204  19.262  0.00  0.00    +0.000 C 
ENDROOT
BRANCH   1   6
ATOM      2  F   UNL     1       7.570   4.313  15.611  0.00  0.00    +0.000 F 
ATOM      3  C   UNL     1       6.656   4.759  16.482  0.00  0.00    +0.000 A 
ATOM      4  C   UNL     1       5.398   5.124  16.025  0.00  0.00    +0.000 A 
ATOM      5  C   UNL     1       4.444   5.594  16.929  0.00  0.00    +0.000 A 
ATOM      6  C   UNL     1       4.745   5.695  18.299  0.00  0.00    +0.000 A 
ATOM      7  C   UNL     1       6.023   5.298  18.738  0.00  0.00    +0.000 A 
ATOM      8  C   UNL     1       6.979   4.842  17.829  0.00  0.00    +0.000 A 
ENDBRANCH   1   6
BRANCH   1   9
ATOM      9  N   UNL     1       3.330   5.234  20.319  0.00  0.00    +0.000 NA
ATOM     10  H   UNL     1       2.694   5.646  20.995  0.00  0.00    +0.000 HD
BRANCH   9  11
ATOM     11  C   UNL     1       2.812   3.941  19.839  0.00  0.00    +0.000 C 
ATOM     12  C   UNL     1       1.466   3.670  20.491  0.00  0.00    +0.000 C 
ATOM     13  C   UNL     1       1.861   3.072  21.826  0.00  0.00    +0.000 C 
ATOM     14  O   UNL     1       3.051   2.310  21.589  0.00  0.00    +0.000 OA
ATOM     15  C   UNL     1       3.595   2.713  20.321  0.00  0.00    +0.000 C 
ENDBRANCH   9  11
ENDBRANCH   1   9
BRANCH   1  16
ATOM     16  C   UNL     1       2.421   6.630  18.448  0.00  0.00    +0.000 C 
BRANCH  16  17
ATOM     17  N   UNL     1       2.047   8.015  18.670  0.00  0.00    +0.000 N 
ATOM     18  C   UNL     1       2.138   9.005  17.730  0.00  0.00    +0.000 A 
ATOM     19  N   UNL     1       1.592  10.123  18.147  0.00  0.00    +0.000 NA
ATOM     20  C   UNL     1       1.145   9.849  19.417  0.00  0.00    +0.000 A 
ATOM     21  C   UNL     1       0.444  10.674  20.307  0.00  0.00    +0.000 A 
ATOM     22  C   UNL     1       0.117  10.175  21.573  0.00  0.00    +0.000 A 
ATOM     23  C   UNL     1       0.496   8.884  21.950  0.00  0.00    +0.000 A 
ATOM     24  C   UNL     1       1.183   8.039  21.070  0.00  0.00    +0.000 A 
ATOM     25  C   UNL     1       1.473   8.548  19.798  0.00  0.00    +0.000 A 
ENDBRANCH  16  17
ENDBRANCH   1  16
TORSDOF 5
ENDMDL
MODEL 5
REMARK VINA RESULT:      -7.6      0.564      1.145
REMARK  Name = 
REMARK  5 active torsions:
REMARK  status: ('A' for Active; 'I' for Inactive)
REMARK    1  A    between atoms: C_5  and  C_6
REMARK    2  A    between atoms: C_6  and  C_7
REMARK    3  A    between atoms: C_6  and  N_17
REMARK    4  A    between atoms: C_7  and  N_8
REMARK    5  A    between atoms: N_17  and  C_18
REMARK                            x       y       z     vdW  Elec       q    Type
REMARK                         _______ _______ _______ _____ _____    ______ ____
ROOT
ATOM      1  C   UNL     1       3.123   5.544  18.015  0.00  0.00    +0.000 C 
ENDROOT
BRANCH   1   6
ATOM      2  F   UNL     1       0.746   2.252  21.965  0.00  0.00    +0.000 F 
ATOM      3  C   UNL     1       1.314   3.035  21.039  0.00  0.00    +0.000 A 
ATOM      4  C   UNL     1       0.877   2.965  19.724  0.00  0.00    +0.000 A 
ATOM      5  C   UNL     1       1.470   3.776  18.755  0.00  0.00    +0.000 A 
ATOM      6  C   UNL     1       2.503   4.665  19.100  0.00  0.00    +0.000 A 
ATOM      7  C   UNL     1       2.913   4.730  20.446  0.00  0.00    +0.000 A 
ATOM      8  C   UNL     1       2.327   3.908  21.410  0.00  0.00    +0.000 A 
ENDBRANCH   1   6
BRANCH   1   9
ATOM      9  N   UNL     1       4.164   4.854  17.230  0.00  0.00    +0.000 NA
ATOM     10  H   UNL     1       3.749   4.277  16.506  0.00  0.00    +0.000 HD
BRANCH   9  11
ATOM     11  C   UNL     1       5.206   5.729  16.665  0.00  0.00    +0.000 C 
ATOM     12  C   UNL     1       5.458   5.334  15.219  0.00  0.00    +0.000 C 
ATOM     13  C   UNL     1       6.431   4.181  15.357  0.00  0.00    +0.000 C 
ATOM     14  O   UNL     1       7.255   4.484  16.490  0.00  0.00    +0.000 OA
ATOM     15  C   UNL     1       6.610   5.521  17.248  0.00  0.00    +0.000 C 
ENDBRANCH   9  11
ENDBRANCH   1   9
BRANCH   1  16
ATOM     16  C   UNL     1       3.666   6.846  18.666  0.00  0.00    +0.000 C 
BRANCH  16  17
ATOM     17  N   UNL     1       2.739   7.958  18.565  0.00  0.00    +0.000 N 
ATOM     18  C   UNL     1       2.573   8.732  17.449  0.00  0.00    +0.000 A 
ATOM     19  N   UNL     1       1.568   9.565  17.580  0.00  0.00    +0.000 NA
ATOM     20  C   UNL     1       1.074   9.332  18.840  0.00  0.00    +0.000 A 
ATOM     21  C   UNL     1      -0.029   9.913  19.482  0.00  0.00    +0.000 A 
ATOM     22  C   UNL     1      -0.323   9.529  20.795  0.00  0.00    +0.000 A 
ATOM     23  C   UNL     1       0.476   8.597  21.461  0.00  0.00    +0.000 A 
ATOM     24  C   UNL     1       1.573   7.994  20.833  0.00  0.00    +0.000 A 
ATOM     25  C   UNL     1       1.831   8.370  19.508  0.00  0.00    +0.000 A 
ENDBRANCH  16  17
ENDBRANCH   1  16
TORSDOF 5
ENDMDL
MODEL 6
REMARK VINA RESULT:      -7.6      1.382      1.648
REMARK  Name = 
REMARK  5 active torsions:
REMARK  status: ('A' for Active; 'I' for Inactive)
REMARK    1  A    between atoms: C_5  and  C_6
REMARK    2  A    between atoms: C_6  and  C_7
REMARK    3  A    between atoms: C_6  and  N_17
REMARK    4  A    between atoms: C_7  and  N_8
REMARK    5  A    between atoms: N_17  and  C_18
REMARK                            x       y       z     vdW  Elec       q    Type
REMARK                         _______ _______ _______ _____ _____    ______ ____
ROOT
ATOM      1  C   UNL     1       3.317   6.049  18.284  0.00  0.00    +0.000 C 
ENDROOT
BRANCH   1   6
ATOM      2  F   UNL     1       0.593   1.105  18.763  0.00  0.00    +0.000 F 
ATOM      3  C   UNL     1       1.244   2.270  18.642  0.00  0.00    +0.000 A 
ATOM      4  C   UNL     1       0.937   3.316  19.501  0.00  0.00    +0.000 A 
ATOM      5  C   UNL     1       1.609   4.533  19.374  0.00  0.00    +0.000 A 
ATOM      6  C   UNL     1       2.596   4.706  18.388  0.00  0.00    +0.000 A 
ATOM      7  C   UNL     1       2.901   3.622  17.543  0.00  0.00    +0.000 A 
ATOM      8  C   UNL     1       2.218   2.411  17.663  0.00  0.00    +0.000 A 
ENDBRANCH   1   6
BRANCH   1   9
ATOM      9  N   UNL     1       4.787   5.920  18.242  0.00  0.00    +0.000 NA
ATOM     10  H   UNL     1       5.062   4.946  18.168  0.00  0.00    +0.000 HD
BRANCH   9  11
ATOM     11  C   UNL     1       5.458   6.731  17.212  0.00  0.00    +0.000 C 
ATOM     12  C   UNL     1       5.280   6.062  15.859  0.00  0.00    +0.000 C 
ATOM     13  C   UNL     1       6.395   5.036  15.848  0.00  0.00    +0.000 C 
ATOM     14  O   UNL     1       7.491   5.627  16.558  0.00  0.00    +0.000 OA
ATOM     15  C   UNL     1       6.990   6.749  17.302  0.00  0.00    +0.000 C 
ENDBRANCH   9  11
ENDBRANCH   1   9
BRANCH   1  16
ATOM     16  C   UNL     1       2.857   6.964  19.452  0.00  0.00    +0.000 C 
BRANCH  16  17
ATOM     17  N   UNL     1       2.200   8.175  18.997  0.00  0.00    +0.000 N 
ATOM     18  C   UNL     1       2.319   8.697  17.737  0.00  0.00    +0.000 A 
ATOM     19  N   UNL     1       1.504   9.708  17.550  0.00  0.00    +0.000 NA
ATOM     20  C   UNL     1       0.841   9.857  18.745  0.00  0.00    +0.000 A 
ATOM     21  C   UNL     1      -0.176  10.758  19.089  0.00  0.00    +0.000 A 
ATOM     22  C   UNL     1      -0.682  10.737  20.393  0.00  0.00    +0.000 A 
ATOM     23  C   UNL     1      -0.171   9.848  21.342  0.00  0.00    +0.000 A 
ATOM     24  C   UNL     1       0.835   8.930  21.015  0.00  0.00    +0.000 A 
ATOM     25  C   UNL     1       1.304   8.947  19.695  0.00  0.00    +0.000 A 
ENDBRANCH  16  17
ENDBRANCH   1  16
TORSDOF 5
ENDMDL
MODEL 7
REMARK VINA RESULT:      -7.6      2.842      6.303
REMARK  Name = 
REMARK  5 active torsions:
REMARK  status: ('A' for Active; 'I' for Inactive)
REMARK    1  A    between atoms: C_5  and  C_6
REMARK    2  A    between atoms: C_6  and  C_7
REMARK    3  A    between atoms: C_6  and  N_17
REMARK    4  A    between atoms: C_7  and  N_8
REMARK    5  A    between atoms: N_17  and  C_18
REMARK                            x       y       z     vdW  Elec       q    Type
REMARK                         _______ _______ _______ _____ _____    ______ ____
ROOT
ATOM      1  C   UNL     1       3.481   5.551  18.886  0.00  0.00    +0.000 C 
ENDROOT
BRANCH   1   6
ATOM      2  F   UNL     1       0.817  10.546  19.051  0.00  0.00    +0.000 F 
ATOM      3  C   UNL     1       1.449   9.367  19.001  0.00  0.00    +0.000 A 
ATOM      4  C   UNL     1       1.449   8.545  20.119  0.00  0.00    +0.000 A 
ATOM      5  C   UNL     1       2.112   7.317  20.074  0.00  0.00    +0.000 A 
ATOM      6  C   UNL     1       2.774   6.904  18.904  0.00  0.00    +0.000 A 
ATOM      7  C   UNL     1       2.741   7.750  17.778  0.00  0.00    +0.000 A 
ATOM      8  C   UNL     1       2.090   8.983  17.831  0.00  0.00    +0.000 A 
ENDBRANCH   1   6
BRANCH   1   9
ATOM      9  N   UNL     1       2.877   4.564  19.803  0.00  0.00    +0.000 NA
ATOM     10  H   UNL     1       2.781   4.950  20.737  0.00  0.00    +0.000 HD
BRANCH   9  11
ATOM     11  C   UNL     1       1.603   3.983  19.346  0.00  0.00    +0.000 C 
ATOM     12  C   UNL     1       1.528   2.533  19.793  0.00  0.00    +0.000 C 
ATOM     13  C   UNL     1       2.302   1.812  18.709  0.00  0.00    +0.000 C 
ATOM     14  O   UNL     1       2.038   2.519  17.490  0.00  0.00    +0.000 OA
ATOM     15  C   UNL     1       1.484   3.801  17.827  0.00  0.00    +0.000 C 
ENDBRANCH   9  11
ENDBRANCH   1   9
BRANCH   1  16
ATOM     16  C   UNL     1       4.990   5.762  19.190  0.00  0.00    +0.000 C 
BRANCH  16  17
ATOM     17  N   UNL     1       5.791   5.918  17.990  0.00  0.00    +0.000 N 
ATOM     18  C   UNL     1       6.822   6.809  17.854  0.00  0.00    +0.000 A 
ATOM     19  N   UNL     1       7.469   6.634  16.726  0.00  0.00    +0.000 NA
ATOM     20  C   UNL     1       6.820   5.599  16.098  0.00  0.00    +0.000 A 
ATOM     21  C   UNL     1       7.120   4.971  14.881  0.00  0.00    +0.000 A 
ATOM     22  C   UNL     1       6.285   3.944  14.429  0.00  0.00    +0.000 A 
ATOM     23  C   UNL     1       5.162   3.561  15.167  0.00  0.00    +0.000 A 
ATOM     24  C   UNL     1       4.853   4.165  16.393  0.00  0.00    +0.000 A 
ATOM     25  C   UNL     1       5.720   5.170  16.841  0.00  0.00    +0.000 A 
ENDBRANCH  16  17
ENDBRANCH   1  16
TORSDOF 5
ENDMDL
MODEL 8
REMARK VINA RESULT:      -7.5      3.612      5.650
REMARK  Name = 
REMARK  5 active torsions:
REMARK  status: ('A' for Active; 'I' for Inactive)
REMARK    1  A    between atoms: C_5  and  C_6
REMARK    2  A    between atoms: C_6  and  C_7
REMARK    3  A    between atoms: C_6  and  N_17
REMARK    4  A    between atoms: C_7  and  N_8
REMARK    5  A    between atoms: N_17  and  C_18
REMARK                            x       y       z     vdW  Elec       q    Type
REMARK                         _______ _______ _______ _____ _____    ______ ____
ROOT
ATOM      1  C   UNL     1       5.578   4.001  16.461  0.00  0.00    +0.000 C 
ENDROOT
BRANCH   1   6
ATOM      2  F   UNL     1       8.793   7.897  19.025  0.00  0.00    +0.000 F 
ATOM      3  C   UNL     1       8.030   6.983  18.411  0.00  0.00    +0.000 A 
ATOM      4  C   UNL     1       7.885   5.725  18.976  0.00  0.00    +0.000 A 
ATOM      5  C   UNL     1       7.095   4.768  18.337  0.00  0.00    +0.000 A 
ATOM      6  C   UNL     1       6.442   5.070  17.128  0.00  0.00    +0.000 A 
ATOM      7  C   UNL     1       6.591   6.362  16.587  0.00  0.00    +0.000 A 
ATOM      8  C   UNL     1       7.393   7.311  17.222  0.00  0.00    +0.000 A 
ENDBRANCH   1   6
BRANCH   1   9
ATOM      9  N   UNL     1       6.111   3.548  15.162  0.00  0.00    +0.000 NA
ATOM     10  H   UNL     1       5.799   2.605  14.952  0.00  0.00    +0.000 HD
BRANCH   9  11
ATOM     11  C   UNL     1       5.847   4.448  14.026  0.00  0.00    +0.000 C 
ATOM     12  C   UNL     1       5.084   3.687  12.954  0.00  0.00    +0.000 C 
ATOM     13  C   UNL     1       6.192   2.981  12.200  0.00  0.00    +0.000 C 
ATOM     14  O   UNL     1       7.318   3.867  12.216  0.00  0.00    +0.000 OA
ATOM     15  C   UNL     1       7.090   4.862  13.228  0.00  0.00    +0.000 C 
ENDBRANCH   9  11
ENDBRANCH   1   9
BRANCH   1  16
ATOM     16  C   UNL     1       4.125   4.534  16.327  0.00  0.00    +0.000 C 
BRANCH  16  17
ATOM     17  N   UNL     1       3.503   4.806  17.610  0.00  0.00    +0.000 N 
ATOM     18  C   UNL     1       3.468   6.034  18.212  0.00  0.00    +0.000 A 
ATOM     19  N   UNL     1       2.714   6.028  19.286  0.00  0.00    +0.000 NA
ATOM     20  C   UNL     1       2.256   4.738  19.392  0.00  0.00    +0.000 A 
ATOM     21  C   UNL     1       1.375   4.184  20.332  0.00  0.00    +0.000 A 
ATOM     22  C   UNL     1       1.075   2.820  20.252  0.00  0.00    +0.000 A 
ATOM     23  C   UNL     1       1.654   2.019  19.264  0.00  0.00    +0.000 A 
ATOM     24  C   UNL     1       2.524   2.556  18.306  0.00  0.00    +0.000 A 
ATOM     25  C   UNL     1       2.786   3.930  18.387  0.00  0.00    +0.000 A 
ENDBRANCH  16  17
ENDBRANCH   1  16
TORSDOF 5
ENDMDL
MODEL 9
REMARK VINA RESULT:      -7.5      3.934      6.270
REMARK  Name = 
REMARK  5 active torsions:
REMARK  status: ('A' for Active; 'I' for Inactive)
REMARK    1  A    between atoms: C_5  and  C_6
REMARK    2  A    between atoms: C_6  and  C_7
REMARK    3  A    between atoms: C_6  and  N_17
REMARK    4  A    between atoms: C_7  and  N_8
REMARK    5  A    between atoms: N_17  and  C_18
REMARK                            x       y       z     vdW  Elec       q    Type
REMARK                         _______ _______ _______ _____ _____    ______ ____
ROOT
ATOM      1  C   UNL     1       5.392   4.385  16.603  0.00  0.00    +0.000 C 
ENDROOT
BRANCH   1   6
ATOM      2  F   UNL     1       7.483   4.276  11.340  0.00  0.00    +0.000 F 
ATOM      3  C   UNL     1       6.980   4.296  12.581  0.00  0.00    +0.000 A 
ATOM      4  C   UNL     1       7.639   5.008  13.573  0.00  0.00    +0.000 A 
ATOM      5  C   UNL     1       7.120   5.027  14.870  0.00  0.00    +0.000 A 
ATOM      6  C   UNL     1       5.935   4.335  15.177  0.00  0.00    +0.000 A 
ATOM      7  C   UNL     1       5.277   3.637  14.146  0.00  0.00    +0.000 A 
ATOM      8  C   UNL     1       5.805   3.609  12.854  0.00  0.00    +0.000 A 
ENDBRANCH   1   6
BRANCH   1   9
ATOM      9  N   UNL     1       6.449   4.351  17.632  0.00  0.00    +0.000 NA
ATOM     10  H   UNL     1       7.370   4.369  17.205  0.00  0.00    +0.000 HD
BRANCH   9  11
ATOM     11  C   UNL     1       6.341   5.384  18.677  0.00  0.00    +0.000 C 
ATOM     12  C   UNL     1       6.022   6.719  18.027  0.00  0.00    +0.000 C 
ATOM     13  C   UNL     1       7.390   7.218  17.608  0.00  0.00    +0.000 C 
ATOM     14  O   UNL     1       8.307   6.765  18.611  0.00  0.00    +0.000 OA
ATOM     15  C   UNL     1       7.661   5.735  19.377  0.00  0.00    +0.000 C 
ENDBRANCH   9  11
ENDBRANCH   1   9
BRANCH   1  16
ATOM     16  C   UNL     1       4.369   3.232  16.797  0.00  0.00    +0.000 C 
BRANCH  16  17
ATOM     17  N   UNL     1       3.766   3.227  18.117  0.00  0.00    +0.000 N 
ATOM     18  C   UNL     1       3.889   2.210  19.024  0.00  0.00    +0.000 A 
ATOM     19  N   UNL     1       3.373   2.530  20.188  0.00  0.00    +0.000 NA
ATOM     20  C   UNL     1       2.881   3.802  20.021  0.00  0.00    +0.000 A 
ATOM     21  C   UNL     1       2.266   4.645  20.957  0.00  0.00    +0.000 A 
ATOM     22  C   UNL     1       1.816   5.902  20.539  0.00  0.00    +0.000 A 
ATOM     23  C   UNL     1       1.961   6.305  19.209  0.00  0.00    +0.000 A 
ATOM     24  C   UNL     1       2.587   5.484  18.262  0.00  0.00    +0.000 A 
ATOM     25  C   UNL     1       3.057   4.243  18.709  0.00  0.00    +0.000 A 
ENDBRANCH  16  17
ENDBRANCH   1  16
TORSDOF 5
ENDMDL
