MODEL 1
REMARK VINA RESULT:      -4.9      0.000      0.000
REMARK  Name = 
REMARK  2 active torsions:
REMARK  status: ('A' for Active; 'I' for Inactive)
REMARK    1  A    between atoms: C_2  and  C_3
REMARK    2  A    between atoms: C_3  and  N_4
REMARK                            x       y       z     vdW  Elec       q    Type
REMARK                         _______ _______ _______ _____ _____    ______ ____
ROOT
ATOM      1  C   UNL     1       3.597   2.789  19.681  0.00  0.00    +0.000 C 
ATOM      2  C   UNL     1       2.738   1.971  18.694  0.00  0.00    +0.000 C 
ATOM      3  C   UNL     1       1.392   2.641  18.394  0.00  0.00    +0.000 C 
ATOM      4  C   UNL     1       1.569   4.075  17.907  0.00  0.00    +0.000 C 
ATOM      5  C   UNL     1       2.421   4.908  18.861  0.00  0.00    +0.000 C 
ATOM      6  C   UNL     1       3.764   4.233  19.166  0.00  0.00    +0.000 C 
ENDROOT
BRANCH   1   7
ATOM      7  N   UNL     1       4.927   2.161  19.790  0.00  0.00    +0.000 NA
ATOM      8  H   UNL     1       5.177   1.737  18.896  0.00  0.00    +0.000 HD
ATOM      9  H   UNL     1       4.886   1.393  20.462  0.00  0.00    +0.000 HD
ENDBRANCH   1   7
BRANCH   1  11
ATOM     10  N   UNL     1       2.323   2.850  22.153  0.00  0.00    +0.000 NA
ATOM     11  C   UNL     1       2.901   2.822  21.032  0.00  0.00    +0.000 C 
ENDBRANCH   1  11
TORSDOF 2
ENDMDL
MODEL 2
REMARK VINA RESULT:      -4.9      1.430      2.412
REMARK  Name = 
REMARK  2 active torsions:
REMARK  status: ('A' for Active; 'I' for Inactive)
REMARK    1  A    between atoms: C_2  and  C_3
REMARK    2  A    between atoms: C_3  and  N_4
REMARK                            x       y       z     vdW  Elec       q    Type
REMARK                         _______ _______ _______ _____ _____    ______ ____
ROOT
ATOM      1  C   UNL     1       3.759   2.733  19.775  0.00  0.00    +0.000 C 
ATOM      2  C   UNL     1       2.808   2.709  20.990  0.00  0.00    +0.000 C 
ATOM      3  C   UNL     1       1.467   3.392  20.699  0.00  0.00    +0.000 C 
ATOM      4  C   UNL     1       0.790   2.809  19.464  0.00  0.00    +0.000 C 
ATOM      5  C   UNL     1       1.709   2.813  18.245  0.00  0.00    +0.000 C 
ATOM      6  C   UNL     1       3.053   2.135  18.540  0.00  0.00    +0.000 C 
ENDROOT
BRANCH   1   7
ATOM      7  N   UNL     1       4.951   1.921  20.086  0.00  0.00    +0.000 NA
ATOM      8  H   UNL     1       5.741   2.252  19.531  0.00  0.00    +0.000 HD
ATOM      9  H   UNL     1       4.789   0.955  19.795  0.00  0.00    +0.000 HD
ENDBRANCH   1   7
BRANCH   1  11
ATOM     10  N   UNL     1       4.463   5.367  19.229  0.00  0.00    +0.000 NA
ATOM     11  C   UNL     1       4.144   4.172  19.477  0.00  0.00    +0.000 C 
ENDBRANCH   1  11
TORSDOF 2
ENDMDL
MODEL 3
REMARK VINA RESULT:      -4.8      0.877      2.638
REMARK  Name = 
REMARK  2 active torsions:
REMARK  status: ('A' for Active; 'I' for Inactive)
REMARK    1  A    between atoms: C_2  and  C_3
REMARK    2  A    between atoms: C_3  and  N_4
REMARK                            x       y       z     vdW  Elec       q    Type
REMARK                         _______ _______ _______ _____ _____    ______ ____
ROOT
ATOM      1  C   UNL     1       2.241   3.091  20.653  0.00  0.00    +0.000 C 
ATOM      2  C   UNL     1       2.264   4.629  20.527  0.00  0.00    +0.000 C 
ATOM      3  C   UNL     1       2.614   5.096  19.110  0.00  0.00    +0.000 C 
ATOM      4  C   UNL     1       1.692   4.475  18.065  0.00  0.00    +0.000 C 
ATOM      5  C   UNL     1       1.643   2.954  18.169  0.00  0.00    +0.000 C 
ATOM      6  C   UNL     1       1.301   2.488  19.589  0.00  0.00    +0.000 C 
ENDROOT
BRANCH   1   7
ATOM      7  N   UNL     1       1.744   2.728  21.994  0.00  0.00    +0.000 NA
ATOM      8  H   UNL     1       2.433   2.143  22.465  0.00  0.00    +0.000 HD
ATOM      9  H   UNL     1       0.905   2.153  21.900  0.00  0.00    +0.000 HD
ENDBRANCH   1   7
BRANCH   1  11
ATOM     10  N   UNL     1       4.812   2.111  20.248  0.00  0.00    +0.000 NA
ATOM     11  C   UNL     1       3.646   2.555  20.432  0.00  0.00    +0.000 C 
ENDBRANCH   1  11
TORSDOF 2
ENDMDL
MODEL 4
REMARK VINA RESULT:      -4.8      1.556      2.281
REMARK  Name = 
REMARK  2 active torsions:
REMARK  status: ('A' for Active; 'I' for Inactive)
REMARK    1  A    between atoms: C_2  and  C_3
REMARK    2  A    between atoms: C_3  and  N_4
REMARK                            x       y       z     vdW  Elec       q    Type
REMARK                         _______ _______ _______ _____ _____    ______ ____
ROOT
ATOM      1  C   UNL     1       2.631   2.681  18.937  0.00  0.00    +0.000 C 
ATOM      2  C   UNL     1       1.403   2.468  19.846  0.00  0.00    +0.000 C 
ATOM      3  C   UNL     1       1.388   3.424  21.044  0.00  0.00    +0.000 C 
ATOM      4  C   UNL     1       1.500   4.881  20.607  0.00  0.00    +0.000 C 
ATOM      5  C   UNL     1       2.703   5.122  19.700  0.00  0.00    +0.000 C 
ATOM      6  C   UNL     1       2.721   4.159  18.506  0.00  0.00    +0.000 C 
ENDROOT
BRANCH   1   7
ATOM      7  N   UNL     1       2.486   1.839  17.734  0.00  0.00    +0.000 NA
ATOM      8  H   UNL     1       3.329   1.279  17.607  0.00  0.00    +0.000 HD
ATOM      9  H   UNL     1       2.420   2.436  16.908  0.00  0.00    +0.000 HD
ENDBRANCH   1   7
BRANCH   1  11
ATOM     10  N   UNL     1       4.930   2.008  20.349  0.00  0.00    +0.000 NA
ATOM     11  C   UNL     1       3.888   2.313  19.709  0.00  0.00    +0.000 C 
ENDBRANCH   1  11
TORSDOF 2
ENDMDL
MODEL 5
REMARK VINA RESULT:      -4.7      1.789      2.912
REMARK  Name = 
REMARK  2 active torsions:
REMARK  status: ('A' for Active; 'I' for Inactive)
REMARK    1  A    between atoms: C_2  and  C_3
REMARK    2  A    between atoms: C_3  and  N_4
REMARK                            x       y       z     vdW  Elec       q    Type
REMARK                         _______ _______ _______ _____ _____    ______ ____
ROOT
ATOM      1  C   UNL     1       2.735   4.940  19.679  0.00  0.00    +0.000 C 
ATOM      2  C   UNL     1       1.912   4.771  18.385  0.00  0.00    +0.000 C 
ATOM      3  C   UNL     1       1.478   3.319  18.152  0.00  0.00    +0.000 C 
ATOM      4  C   UNL     1       0.732   2.751  19.355  0.00  0.00    +0.000 C 
ATOM      5  C   UNL     1       1.520   2.910  20.652  0.00  0.00    +0.000 C 
ATOM      6  C   UNL     1       1.959   4.362  20.880  0.00  0.00    +0.000 C 
ENDROOT
BRANCH   1   7
ATOM      7  N   UNL     1       2.973   6.378  19.909  0.00  0.00    +0.000 NA
ATOM      8  H   UNL     1       2.837   6.889  19.037  0.00  0.00    +0.000 HD
ATOM      9  H   UNL     1       3.950   6.523  20.170  0.00  0.00    +0.000 HD
ENDBRANCH   1   7
BRANCH   1  11
ATOM     10  N   UNL     1       5.139   3.567  19.408  0.00  0.00    +0.000 NA
ATOM     11  C   UNL     1       4.049   4.190  19.531  0.00  0.00    +0.000 C 
ENDBRANCH   1  11
TORSDOF 2
ENDMDL
MODEL 6
REMARK VINA RESULT:      -4.7      1.675      2.520
REMARK  Name = 
REMARK  2 active torsions:
REMARK  status: ('A' for Active; 'I' for Inactive)
REMARK    1  A    between atoms: C_2  and  C_3
REMARK    2  A    between atoms: C_3  and  N_4
REMARK                            x       y       z     vdW  Elec       q    Type
REMARK                         _______ _______ _______ _____ _____    ______ ____
ROOT
ATOM      1  C   UNL     1       2.193   2.911  19.188  0.00  0.00    +0.000 C 
ATOM      2  C   UNL     1       1.389   3.522  20.355  0.00  0.00    +0.000 C 
ATOM      3  C   UNL     1       1.991   4.841  20.854  0.00  0.00    +0.000 C 
ATOM      4  C   UNL     1       2.165   5.848  19.722  0.00  0.00    +0.000 C 
ATOM      5  C   UNL     1       2.952   5.270  18.550  0.00  0.00    +0.000 C 
ATOM      6  C   UNL     1       2.353   3.946  18.057  0.00  0.00    +0.000 C 
ENDROOT
BRANCH   1   7
ATOM      7  N   UNL     1       1.463   1.740  18.667  0.00  0.00    +0.000 NA
ATOM      8  H   UNL     1       2.067   1.217  18.034  0.00  0.00    +0.000 HD
ATOM      9  H   UNL     1       0.673   2.056  18.102  0.00  0.00    +0.000 HD
ENDBRANCH   1   7
BRANCH   1  11
ATOM     10  N   UNL     1       4.713   2.181  20.111  0.00  0.00    +0.000 NA
ATOM     11  C   UNL     1       3.570   2.512  19.693  0.00  0.00    +0.000 C 
ENDBRANCH   1  11
TORSDOF 2
ENDMDL
MODEL 7
REMARK VINA RESULT:      -4.7      4.299      5.527
REMARK  Name = 
REMARK  2 active torsions:
REMARK  status: ('A' for Active; 'I' for Inactive)
REMARK    1  A    between atoms: C_2  and  C_3
REMARK    2  A    between atoms: C_3  and  N_4
REMARK                            x       y       z     vdW  Elec       q    Type
REMARK                         _______ _______ _______ _____ _____    ______ ____
ROOT
ATOM      1  C   UNL     1       6.820   5.668  18.273  0.00  0.00    +0.000 C 
ATOM      2  C   UNL     1       5.283   5.642  18.134  0.00  0.00    +0.000 C 
ATOM      3  C   UNL     1       4.827   5.680  16.672  0.00  0.00    +0.000 C 
ATOM      4  C   UNL     1       5.469   4.568  15.849  0.00  0.00    +0.000 C 
ATOM      5  C   UNL     1       6.990   4.564  15.971  0.00  0.00    +0.000 C 
ATOM      6  C   UNL     1       7.446   4.534  17.436  0.00  0.00    +0.000 C 
ENDROOT
BRANCH   1   7
ATOM      7  N   UNL     1       7.175   5.469  19.691  0.00  0.00    +0.000 NA
ATOM      8  H   UNL     1       7.206   4.470  19.897  0.00  0.00    +0.000 HD
ATOM      9  H   UNL     1       6.436   5.853  20.283  0.00  0.00    +0.000 HD
ENDBRANCH   1   7
BRANCH   1  11
ATOM     10  N   UNL     1       7.772   8.111  17.345  0.00  0.00    +0.000 NA
ATOM     11  C   UNL     1       7.340   7.003  17.766  0.00  0.00    +0.000 C 
ENDBRANCH   1  11
TORSDOF 2
ENDMDL
MODEL 8
REMARK VINA RESULT:      -4.6      3.954      5.114
REMARK  Name = 
REMARK  2 active torsions:
REMARK  status: ('A' for Active; 'I' for Inactive)
REMARK    1  A    between atoms: C_2  and  C_3
REMARK    2  A    between atoms: C_3  and  N_4
REMARK                            x       y       z     vdW  Elec       q    Type
REMARK                         _______ _______ _______ _____ _____    ______ ____
ROOT
ATOM      1  C   UNL     1       6.980   4.926  17.523  0.00  0.00    +0.000 C 
ATOM      2  C   UNL     1       6.054   4.816  18.754  0.00  0.00    +0.000 C 
ATOM      3  C   UNL     1       4.685   5.463  18.517  0.00  0.00    +0.000 C 
ATOM      4  C   UNL     1       4.005   4.908  17.269  0.00  0.00    +0.000 C 
ATOM      5  C   UNL     1       4.899   4.997  16.036  0.00  0.00    +0.000 C 
ATOM      6  C   UNL     1       6.272   4.357  16.277  0.00  0.00    +0.000 C 
ENDROOT
BRANCH   1   7
ATOM      7  N   UNL     1       8.206   4.146  17.777  0.00  0.00    +0.000 NA
ATOM      8  H   UNL     1       8.886   4.731  18.262  0.00  0.00    +0.000 HD
ATOM      9  H   UNL     1       8.638   3.894  16.886  0.00  0.00    +0.000 HD
ENDBRANCH   1   7
BRANCH   1  11
ATOM     10  N   UNL     1       7.580   7.605  17.079  0.00  0.00    +0.000 NA
ATOM     11  C   UNL     1       7.308   6.390  17.281  0.00  0.00    +0.000 C 
ENDBRANCH   1  11
TORSDOF 2
ENDMDL
MODEL 9
REMARK VINA RESULT:      -4.6      1.514      2.305
REMARK  Name = 
REMARK  2 active torsions:
REMARK  status: ('A' for Active; 'I' for Inactive)
REMARK    1  A    between atoms: C_2  and  C_3
REMARK    2  A    between atoms: C_3  and  N_4
REMARK                            x       y       z     vdW  Elec       q    Type
REMARK                         _______ _______ _______ _____ _____    ______ ____
ROOT
ATOM      1  C   UNL     1       3.331   4.108  19.623  0.00  0.00    +0.000 C 
ATOM      2  C   UNL     1       2.667   3.844  18.255  0.00  0.00    +0.000 C 
ATOM      3  C   UNL     1       1.686   2.667  18.297  0.00  0.00    +0.000 C 
ATOM      4  C   UNL     1       0.636   2.843  19.390  0.00  0.00    +0.000 C 
ATOM      5  C   UNL     1       1.263   3.113  20.755  0.00  0.00    +0.000 C 
ATOM      6  C   UNL     1       2.250   4.286  20.709  0.00  0.00    +0.000 C 
ENDROOT
BRANCH   1   7
ATOM      7  N   UNL     1       4.130   5.345  19.535  0.00  0.00    +0.000 NA
ATOM      8  H   UNL     1       4.717   5.311  18.702  0.00  0.00    +0.000 HD
ATOM      9  H   UNL     1       4.772   5.391  20.329  0.00  0.00    +0.000 HD
ENDBRANCH   1   7
BRANCH   1  11
ATOM     10  N   UNL     1       4.933   1.934  20.287  0.00  0.00    +0.000 NA
ATOM     11  C   UNL     1       4.206   2.920  19.986  0.00  0.00    +0.000 C 
ENDBRANCH   1  11
TORSDOF 2
ENDMDL
