MODEL 1
REMARK VINA RESULT:      -8.1      0.000      0.000
REMARK  Name = 
REMARK  13 active torsions:
REMARK  status: ('A' for Active; 'I' for Inactive)
REMARK    1  A    between atoms: C_1  and  N_2
REMARK    2  A    between atoms: N_2  and  C_3
REMARK    3  A    between atoms: C_4  and  C_6
REMARK    4  A    between atoms: C_6  and  C_7
REMARK    5  A    between atoms: C_7  and  O_8
REMARK    6  A    between atoms: C_12  and  C_13
REMARK    7  A    between atoms: C_14  and  C_15
REMARK    8  A    between atoms: C_15  and  O_16
REMARK    9  A    between atoms: C_15  and  C_17
REMARK   10  A    between atoms: C_17  and  C_18
REMARK   11  A    between atoms: C_18  and  C_19
REMARK   12  A    between atoms: C_19  and  C_20
REMARK   13  A    between atoms: C_20  and  C_21
REMARK                            x       y       z     vdW  Elec       q    Type
REMARK                         _______ _______ _______ _____ _____    ______ ____
ROOT
ATOM      1  C   UNL     1       8.715   8.991  18.648  0.00  0.00    +0.000 C 
ATOM      2  C   UNL     1       7.724   8.639  17.814  0.00  0.00    +0.000 C 
ENDROOT
BRANCH   1   7
ATOM      3  C   UNL     1      10.923  12.123  18.052  0.00  0.00    +0.000 C 
ATOM      4  C   UNL     1      11.233  12.392  19.543  0.00  0.00    +0.000 C 
ATOM      5  C   UNL     1      10.051  12.116  20.472  0.00  0.00    +0.000 C 
ATOM      6  C   UNL     1       9.489  10.710  20.273  0.00  0.00    +0.000 C 
ATOM      7  C   UNL     1       9.187  10.411  18.801  0.00  0.00    +0.000 C 
ATOM      8  C   UNL     1      10.419  10.672  17.923  0.00  0.00    +0.000 C 
BRANCH   3   9
ATOM      9  O   UNL     1      12.177  12.220  17.369  0.00  0.00    +0.000 OA
ATOM     10  H   UNL     1      12.547  11.329  17.248  0.00  0.00    +0.000 HD
ENDBRANCH   3   9
BRANCH   3  11
ATOM     11  C   UNL     1       9.928  13.186  17.528  0.00  0.00    +0.000 C 
BRANCH  11  15
ATOM     12  C   UNL     1       9.858  16.986  17.830  0.00  0.00    +0.000 C 
ATOM     13  N   UNL     1       9.458  15.590  17.881  0.00  0.00    +0.000 N 
ATOM     14  C   UNL     1       8.069  15.282  18.187  0.00  0.00    +0.000 C 
ATOM     15  C   UNL     1      10.406  14.635  17.502  0.00  0.00    +0.000 C 
ATOM     16  O   UNL     1      11.551  14.956  17.197  0.00  0.00    +0.000 OA
ENDBRANCH  11  15
ENDBRANCH   3  11
ENDBRANCH   1   7
BRANCH   2  17
ATOM     17  C   UNL     1       7.283   7.224  17.593  0.00  0.00    +0.000 C 
BRANCH  17  18
ATOM     18  O   UNL     1       7.831   6.786  16.354  0.00  0.00    +0.000 OA
ATOM     19  H   UNL     1       7.281   7.146  15.642  0.00  0.00    +0.000 HD
ENDBRANCH  17  18
BRANCH  17  20
ATOM     20  C   UNL     1       7.786   6.302  18.707  0.00  0.00    +0.000 C 
BRANCH  20  21
ATOM     21  C   UNL     1       6.669   5.503  19.388  0.00  0.00    +0.000 C 
BRANCH  21  22
ATOM     22  C   UNL     1       5.475   5.256  18.465  0.00  0.00    +0.000 C 
BRANCH  22  23
ATOM     23  C   UNL     1       4.147   5.679  19.099  0.00  0.00    +0.000 C 
BRANCH  23  24
ATOM     24  C   UNL     1       3.100   4.613  18.946  0.00  0.00    +0.000 A 
ATOM     25  C   UNL     1       2.032   4.541  19.851  0.00  0.00    +0.000 A 
ATOM     26  C   UNL     1       1.071   3.541  19.727  0.00  0.00    +0.000 A 
ATOM     27  C   UNL     1       1.174   2.601  18.704  0.00  0.00    +0.000 A 
ATOM     28  C   UNL     1       2.237   2.663  17.800  0.00  0.00    +0.000 A 
ATOM     29  C   UNL     1       3.198   3.665  17.922  0.00  0.00    +0.000 A 
ENDBRANCH  23  24
ENDBRANCH  22  23
ENDBRANCH  21  22
ENDBRANCH  20  21
ENDBRANCH  17  20
ENDBRANCH   2  17
TORSDOF 11
ENDMDL
MODEL 2
REMARK VINA RESULT:      -7.9      1.225      1.376
REMARK  Name = 
REMARK  13 active torsions:
REMARK  status: ('A' for Active; 'I' for Inactive)
REMARK    1  A    between atoms: C_1  and  N_2
REMARK    2  A    between atoms: N_2  and  C_3
REMARK    3  A    between atoms: C_4  and  C_6
REMARK    4  A    between atoms: C_6  and  C_7
REMARK    5  A    between atoms: C_7  and  O_8
REMARK    6  A    between atoms: C_12  and  C_13
REMARK    7  A    between atoms: C_14  and  C_15
REMARK    8  A    between atoms: C_15  and  O_16
REMARK    9  A    between atoms: C_15  and  C_17
REMARK   10  A    between atoms: C_17  and  C_18
REMARK   11  A    between atoms: C_18  and  C_19
REMARK   12  A    between atoms: C_19  and  C_20
REMARK   13  A    between atoms: C_20  and  C_21
REMARK                            x       y       z     vdW  Elec       q    Type
REMARK                         _______ _______ _______ _____ _____    ______ ____
ROOT
ATOM      1  C   UNL     1       8.269   9.227  17.929  0.00  0.00    +0.000 C 
ATOM      2  C   UNL     1       8.462   8.016  18.475  0.00  0.00    +0.000 C 
ENDROOT
BRANCH   1   7
ATOM      3  C   UNL     1      10.937  12.033  18.153  0.00  0.00    +0.000 C 
ATOM      4  C   UNL     1      11.235  11.856  19.660  0.00  0.00    +0.000 C 
ATOM      5  C   UNL     1       9.996  11.533  20.494  0.00  0.00    +0.000 C 
ATOM      6  C   UNL     1       9.238  10.329  19.940  0.00  0.00    +0.000 C 
ATOM      7  C   UNL     1       8.942  10.471  18.443  0.00  0.00    +0.000 C 
ATOM      8  C   UNL     1      10.227  10.759  17.654  0.00  0.00    +0.000 C 
BRANCH   3   9
ATOM      9  O   UNL     1      12.213  12.110  17.508  0.00  0.00    +0.000 OA
ATOM     10  H   UNL     1      12.527  13.030  17.529  0.00  0.00    +0.000 HD
ENDBRANCH   3   9
BRANCH   3  11
ATOM     11  C   UNL     1      10.128  13.334  17.932  0.00  0.00    +0.000 C 
BRANCH  11  15
ATOM     12  C   UNL     1      11.308  16.791  19.025  0.00  0.00    +0.000 C 
ATOM     13  N   UNL     1      10.621  15.510  19.001  0.00  0.00    +0.000 N 
ATOM     14  C   UNL     1       9.587  15.265  19.995  0.00  0.00    +0.000 C 
ATOM     15  C   UNL     1      10.906  14.647  17.940  0.00  0.00    +0.000 C 
ATOM     16  O   UNL     1      11.748  14.930  17.093  0.00  0.00    +0.000 OA
ENDBRANCH  11  15
ENDBRANCH   3  11
ENDBRANCH   1   7
BRANCH   2  17
ATOM     17  C   UNL     1       7.751   6.776  18.025  0.00  0.00    +0.000 C 
BRANCH  17  18
ATOM     18  O   UNL     1       7.630   5.911  19.149  0.00  0.00    +0.000 OA
ATOM     19  H   UNL     1       6.687   5.753  19.304  0.00  0.00    +0.000 HD
ENDBRANCH  17  18
BRANCH  17  20
ATOM     20  C   UNL     1       6.350   7.096  17.498  0.00  0.00    +0.000 C 
BRANCH  20  21
ATOM     21  C   UNL     1       5.251   6.233  18.127  0.00  0.00    +0.000 C 
BRANCH  21  22
ATOM     22  C   UNL     1       3.979   6.186  17.280  0.00  0.00    +0.000 C 
BRANCH  22  23
ATOM     23  C   UNL     1       2.724   6.530  18.086  0.00  0.00    +0.000 C 
BRANCH  23  24
ATOM     24  C   UNL     1       2.121   5.306  18.714  0.00  0.00    +0.000 A 
ATOM     25  C   UNL     1       2.000   5.218  20.108  0.00  0.00    +0.000 A 
ATOM     26  C   UNL     1       1.461   4.075  20.696  0.00  0.00    +0.000 A 
ATOM     27  C   UNL     1       1.049   3.011  19.898  0.00  0.00    +0.000 A 
ATOM     28  C   UNL     1       1.171   3.089  18.509  0.00  0.00    +0.000 A 
ATOM     29  C   UNL     1       1.707   4.232  17.919  0.00  0.00    +0.000 A 
ENDBRANCH  23  24
ENDBRANCH  22  23
ENDBRANCH  21  22
ENDBRANCH  20  21
ENDBRANCH  17  20
ENDBRANCH   2  17
TORSDOF 11
ENDMDL
MODEL 3
REMARK VINA RESULT:      -7.9      1.308      1.650
REMARK  Name = 
REMARK  13 active torsions:
REMARK  status: ('A' for Active; 'I' for Inactive)
REMARK    1  A    between atoms: C_1  and  N_2
REMARK    2  A    between atoms: N_2  and  C_3
REMARK    3  A    between atoms: C_4  and  C_6
REMARK    4  A    between atoms: C_6  and  C_7
REMARK    5  A    between atoms: C_7  and  O_8
REMARK    6  A    between atoms: C_12  and  C_13
REMARK    7  A    between atoms: C_14  and  C_15
REMARK    8  A    between atoms: C_15  and  O_16
REMARK    9  A    between atoms: C_15  and  C_17
REMARK   10  A    between atoms: C_17  and  C_18
REMARK   11  A    between atoms: C_18  and  C_19
REMARK   12  A    between atoms: C_19  and  C_20
REMARK   13  A    between atoms: C_20  and  C_21
REMARK                            x       y       z     vdW  Elec       q    Type
REMARK                         _______ _______ _______ _____ _____    ______ ____
ROOT
ATOM      1  C   UNL     1       8.285   9.352  17.966  0.00  0.00    +0.000 C 
ATOM      2  C   UNL     1       8.502   8.128  18.473  0.00  0.00    +0.000 C 
ENDROOT
BRANCH   1   7
ATOM      3  C   UNL     1      10.946  12.167  18.144  0.00  0.00    +0.000 C 
ATOM      4  C   UNL     1      11.320  11.947  19.629  0.00  0.00    +0.000 C 
ATOM      5  C   UNL     1      10.125  11.590  20.512  0.00  0.00    +0.000 C 
ATOM      6  C   UNL     1       9.347  10.398  19.960  0.00  0.00    +0.000 C 
ATOM      7  C   UNL     1       8.976  10.583  18.485  0.00  0.00    +0.000 C 
ATOM      8  C   UNL     1      10.219  10.904  17.642  0.00  0.00    +0.000 C 
BRANCH   3   9
ATOM      9  O   UNL     1      12.188  12.273  17.441  0.00  0.00    +0.000 OA
ATOM     10  H   UNL     1      12.845  11.693  17.860  0.00  0.00    +0.000 HD
ENDBRANCH   3   9
BRANCH   3  11
ATOM     11  C   UNL     1      10.121  13.469  18.004  0.00  0.00    +0.000 C 
BRANCH  11  15
ATOM     12  C   UNL     1      11.433  16.987  18.665  0.00  0.00    +0.000 C 
ATOM     13  N   UNL     1      10.745  15.717  18.827  0.00  0.00    +0.000 N 
ATOM     14  C   UNL     1       9.837  15.565  19.954  0.00  0.00    +0.000 C 
ATOM     15  C   UNL     1      10.897  14.768  17.813  0.00  0.00    +0.000 C 
ATOM     16  O   UNL     1      11.633  14.973  16.851  0.00  0.00    +0.000 OA
ENDBRANCH  11  15
ENDBRANCH   3  11
ENDBRANCH   1   7
BRANCH   2  17
ATOM     17  C   UNL     1       7.775   6.898  18.020  0.00  0.00    +0.000 C 
BRANCH  17  18
ATOM     18  O   UNL     1       7.556   6.077  19.163  0.00  0.00    +0.000 OA
ATOM     19  H   UNL     1       7.785   5.166  18.924  0.00  0.00    +0.000 HD
ENDBRANCH  17  18
BRANCH  17  20
ATOM     20  C   UNL     1       6.421   7.246  17.398  0.00  0.00    +0.000 C 
BRANCH  20  21
ATOM     21  C   UNL     1       5.313   6.247  17.751  0.00  0.00    +0.000 C 
BRANCH  21  22
ATOM     22  C   UNL     1       4.671   5.617  16.515  0.00  0.00    +0.000 C 
BRANCH  22  23
ATOM     23  C   UNL     1       4.686   4.087  16.562  0.00  0.00    +0.000 C 
BRANCH  23  24
ATOM     24  C   UNL     1       3.538   3.549  17.367  0.00  0.00    +0.000 A 
ATOM     25  C   UNL     1       3.631   2.285  17.966  0.00  0.00    +0.000 A 
ATOM     26  C   UNL     1       2.560   1.772  18.695  0.00  0.00    +0.000 A 
ATOM     27  C   UNL     1       1.389   2.515  18.824  0.00  0.00    +0.000 A 
ATOM     28  C   UNL     1       1.287   3.773  18.228  0.00  0.00    +0.000 A 
ATOM     29  C   UNL     1       2.358   4.288  17.499  0.00  0.00    +0.000 A 
ENDBRANCH  23  24
ENDBRANCH  22  23
ENDBRANCH  21  22
ENDBRANCH  20  21
ENDBRANCH  17  20
ENDBRANCH   2  17
TORSDOF 11
ENDMDL
MODEL 4
REMARK VINA RESULT:      -7.9      1.195      1.519
REMARK  Name = 
REMARK  13 active torsions:
REMARK  status: ('A' for Active; 'I' for Inactive)
REMARK    1  A    between atoms: C_1  and  N_2
REMARK    2  A    between atoms: N_2  and  C_3
REMARK    3  A    between atoms: C_4  and  C_6
REMARK    4  A    between atoms: C_6  and  C_7
REMARK    5  A    between atoms: C_7  and  O_8
REMARK    6  A    between atoms: C_12  and  C_13
REMARK    7  A    between atoms: C_14  and  C_15
REMARK    8  A    between atoms: C_15  and  O_16
REMARK    9  A    between atoms: C_15  and  C_17
REMARK   10  A    between atoms: C_17  and  C_18
REMARK   11  A    between atoms: C_18  and  C_19
REMARK   12  A    between atoms: C_19  and  C_20
REMARK   13  A    between atoms: C_20  and  C_21
REMARK                            x       y       z     vdW  Elec       q    Type
REMARK                         _______ _______ _______ _____ _____    ______ ____
ROOT
ATOM      1  C   UNL     1       8.231   9.653  17.874  0.00  0.00    +0.000 C 
ATOM      2  C   UNL     1       8.296   8.398  18.346  0.00  0.00    +0.000 C 
ENDROOT
BRANCH   1   7
ATOM      3  C   UNL     1      11.105  12.240  18.169  0.00  0.00    +0.000 C 
ATOM      4  C   UNL     1      11.502  11.880  19.620  0.00  0.00    +0.000 C 
ATOM      5  C   UNL     1      10.308  11.548  20.514  0.00  0.00    +0.000 C 
ATOM      6  C   UNL     1       9.425  10.463  19.902  0.00  0.00    +0.000 C 
ATOM      7  C   UNL     1       9.029  10.787  18.458  0.00  0.00    +0.000 C 
ATOM      8  C   UNL     1      10.269  11.077  17.600  0.00  0.00    +0.000 C 
BRANCH   3   9
ATOM      9  O   UNL     1      12.331  12.306  17.433  0.00  0.00    +0.000 OA
ATOM     10  H   UNL     1      13.006  11.772  17.886  0.00  0.00    +0.000 HD
ENDBRANCH   3   9
BRANCH   3  11
ATOM     11  C   UNL     1      10.379  13.607  18.152  0.00  0.00    +0.000 C 
BRANCH  11  15
ATOM     12  C   UNL     1      12.006  16.860  19.296  0.00  0.00    +0.000 C 
ATOM     13  N   UNL     1      11.222  15.636  19.290  0.00  0.00    +0.000 N 
ATOM     14  C   UNL     1      10.355  15.367  20.427  0.00  0.00    +0.000 C 
ATOM     15  C   UNL     1      11.251  14.858  18.129  0.00  0.00    +0.000 C 
ATOM     16  O   UNL     1      11.959  15.163  17.173  0.00  0.00    +0.000 OA
ENDBRANCH  11  15
ENDBRANCH   3  11
ENDBRANCH   1   7
BRANCH   2  17
ATOM     17  C   UNL     1       7.460   7.268  17.826  0.00  0.00    +0.000 C 
BRANCH  17  18
ATOM     18  O   UNL     1       7.830   7.041  16.470  0.00  0.00    +0.000 OA
ATOM     19  H   UNL     1       8.770   7.254  16.378  0.00  0.00    +0.000 HD
ENDBRANCH  17  18
BRANCH  17  20
ATOM     20  C   UNL     1       7.701   5.983  18.623  0.00  0.00    +0.000 C 
BRANCH  20  21
ATOM     21  C   UNL     1       7.075   4.741  17.979  0.00  0.00    +0.000 C 
BRANCH  21  22
ATOM     22  C   UNL     1       5.561   4.669  18.186  0.00  0.00    +0.000 C 
BRANCH  22  23
ATOM     23  C   UNL     1       5.179   3.892  19.448  0.00  0.00    +0.000 C 
BRANCH  23  24
ATOM     24  C   UNL     1       3.698   3.650  19.518  0.00  0.00    +0.000 A 
ATOM     25  C   UNL     1       3.145   2.500  18.938  0.00  0.00    +0.000 A 
ATOM     26  C   UNL     1       1.770   2.283  18.980  0.00  0.00    +0.000 A 
ATOM     27  C   UNL     1       0.937   3.216  19.595  0.00  0.00    +0.000 A 
ATOM     28  C   UNL     1       1.480   4.366  20.171  0.00  0.00    +0.000 A 
ATOM     29  C   UNL     1       2.856   4.584  20.131  0.00  0.00    +0.000 A 
ENDBRANCH  23  24
ENDBRANCH  22  23
ENDBRANCH  21  22
ENDBRANCH  20  21
ENDBRANCH  17  20
ENDBRANCH   2  17
TORSDOF 11
ENDMDL
MODEL 5
REMARK VINA RESULT:      -7.8      6.691      8.219
REMARK  Name = 
REMARK  13 active torsions:
REMARK  status: ('A' for Active; 'I' for Inactive)
REMARK    1  A    between atoms: C_1  and  N_2
REMARK    2  A    between atoms: N_2  and  C_3
REMARK    3  A    between atoms: C_4  and  C_6
REMARK    4  A    between atoms: C_6  and  C_7
REMARK    5  A    between atoms: C_7  and  O_8
REMARK    6  A    between atoms: C_12  and  C_13
REMARK    7  A    between atoms: C_14  and  C_15
REMARK    8  A    between atoms: C_15  and  O_16
REMARK    9  A    between atoms: C_15  and  C_17
REMARK   10  A    between atoms: C_17  and  C_18
REMARK   11  A    between atoms: C_18  and  C_19
REMARK   12  A    between atoms: C_19  and  C_20
REMARK   13  A    between atoms: C_20  and  C_21
REMARK                            x       y       z     vdW  Elec       q    Type
REMARK                         _______ _______ _______ _____ _____    ______ ____
ROOT
ATOM      1  C   UNL     1       3.201   7.190  17.827  0.00  0.00    +0.000 C 
ATOM      2  C   UNL     1       4.086   6.538  18.597  0.00  0.00    +0.000 C 
ENDROOT
BRANCH   1   7
ATOM      3  C   UNL     1       0.853  10.200  18.511  0.00  0.00    +0.000 C 
ATOM      4  C   UNL     1       0.867  10.073  20.053  0.00  0.00    +0.000 C 
ATOM      5  C   UNL     1       0.872   8.626  20.545  0.00  0.00    +0.000 C 
ATOM      6  C   UNL     1       2.004   7.816  19.917  0.00  0.00    +0.000 C 
ATOM      7  C   UNL     1       2.022   7.937  18.390  0.00  0.00    +0.000 C 
ATOM      8  C   UNL     1       2.053   9.409  17.955  0.00  0.00    +0.000 C 
BRANCH   3   9
ATOM      9  O   UNL     1       1.068  11.587  18.232  0.00  0.00    +0.000 OA
ATOM     10  H   UNL     1       1.967  11.708  17.881  0.00  0.00    +0.000 HD
ENDBRANCH   3   9
BRANCH   3  11
ATOM     11  C   UNL     1      -0.518   9.734  17.964  0.00  0.00    +0.000 C 
BRANCH  11  15
ATOM     12  C   UNL     1      -3.847  11.496  17.371  0.00  0.00    +0.000 C 
ATOM     13  N   UNL     1      -2.714  10.599  17.219  0.00  0.00    +0.000 N 
ATOM     14  C   UNL     1      -2.627   9.797  16.008  0.00  0.00    +0.000 C 
ATOM     15  C   UNL     1      -1.708  10.662  18.188  0.00  0.00    +0.000 C 
ATOM     16  O   UNL     1      -1.806  11.402  19.163  0.00  0.00    +0.000 OA
ENDBRANCH  11  15
ENDBRANCH   3  11
ENDBRANCH   1   7
BRANCH   2  17
ATOM     17  C   UNL     1       5.226   5.731  18.056  0.00  0.00    +0.000 C 
BRANCH  17  18
ATOM     18  O   UNL     1       5.462   4.653  18.956  0.00  0.00    +0.000 OA
ATOM     19  H   UNL     1       5.575   3.846  18.431  0.00  0.00    +0.000 HD
ENDBRANCH  17  18
BRANCH  17  20
ATOM     20  C   UNL     1       4.899   5.157  16.675  0.00  0.00    +0.000 C 
BRANCH  20  21
ATOM     21  C   UNL     1       4.447   3.693  16.716  0.00  0.00    +0.000 C 
BRANCH  21  22
ATOM     22  C   UNL     1       2.925   3.545  16.699  0.00  0.00    +0.000 C 
BRANCH  22  23
ATOM     23  C   UNL     1       2.435   2.415  17.607  0.00  0.00    +0.000 C 
BRANCH  23  24
ATOM     24  C   UNL     1       2.252   2.885  19.022  0.00  0.00    +0.000 A 
ATOM     25  C   UNL     1       1.449   4.001  19.293  0.00  0.00    +0.000 A 
ATOM     26  C   UNL     1       1.294   4.455  20.601  0.00  0.00    +0.000 A 
ATOM     27  C   UNL     1       1.946   3.802  21.645  0.00  0.00    +0.000 A 
ATOM     28  C   UNL     1       2.751   2.691  21.383  0.00  0.00    +0.000 A 
ATOM     29  C   UNL     1       2.905   2.235  20.074  0.00  0.00    +0.000 A 
ENDBRANCH  23  24
ENDBRANCH  22  23
ENDBRANCH  21  22
ENDBRANCH  20  21
ENDBRANCH  17  20
ENDBRANCH   2  17
TORSDOF 11
ENDMDL
MODEL 6
REMARK VINA RESULT:      -7.8      0.909      1.379
REMARK  Name = 
REMARK  13 active torsions:
REMARK  status: ('A' for Active; 'I' for Inactive)
REMARK    1  A    between atoms: C_1  and  N_2
REMARK    2  A    between atoms: N_2  and  C_3
REMARK    3  A    between atoms: C_4  and  C_6
REMARK    4  A    between atoms: C_6  and  C_7
REMARK    5  A    between atoms: C_7  and  O_8
REMARK    6  A    between atoms: C_12  and  C_13
REMARK    7  A    between atoms: C_14  and  C_15
REMARK    8  A    between atoms: C_15  and  O_16
REMARK    9  A    between atoms: C_15  and  C_17
REMARK   10  A    between atoms: C_17  and  C_18
REMARK   11  A    between atoms: C_18  and  C_19
REMARK   12  A    between atoms: C_19  and  C_20
REMARK   13  A    between atoms: C_20  and  C_21
REMARK                            x       y       z     vdW  Elec       q    Type
REMARK                         _______ _______ _______ _____ _____    ______ ____
ROOT
ATOM      1  C   UNL     1       8.828   9.213  18.687  0.00  0.00    +0.000 C 
ATOM      2  C   UNL     1       8.019   8.817  17.691  0.00  0.00    +0.000 C 
ENDROOT
BRANCH   1   7
ATOM      3  C   UNL     1      11.034  12.338  18.054  0.00  0.00    +0.000 C 
ATOM      4  C   UNL     1      11.376  12.602  19.540  0.00  0.00    +0.000 C 
ATOM      5  C   UNL     1      10.213  12.328  20.492  0.00  0.00    +0.000 C 
ATOM      6  C   UNL     1       9.642  10.924  20.301  0.00  0.00    +0.000 C 
ATOM      7  C   UNL     1       9.308  10.631  18.835  0.00  0.00    +0.000 C 
ATOM      8  C   UNL     1      10.522  10.890  17.931  0.00  0.00    +0.000 C 
BRANCH   3   9
ATOM      9  O   UNL     1      12.273  12.433  17.345  0.00  0.00    +0.000 OA
ATOM     10  H   UNL     1      12.805  13.153  17.722  0.00  0.00    +0.000 HD
ENDBRANCH   3   9
BRANCH   3  11
ATOM     11  C   UNL     1      10.031  13.407  17.555  0.00  0.00    +0.000 C 
BRANCH  11  15
ATOM     12  C   UNL     1      10.067  17.216  17.713  0.00  0.00    +0.000 C 
ATOM     13  N   UNL     1       9.639  15.833  17.842  0.00  0.00    +0.000 N 
ATOM     14  C   UNL     1       8.265  15.571  18.241  0.00  0.00    +0.000 C 
ATOM     15  C   UNL     1      10.540  14.841  17.444  0.00  0.00    +0.000 C 
ATOM     16  O   UNL     1      11.671  15.122  17.059  0.00  0.00    +0.000 OA
ENDBRANCH  11  15
ENDBRANCH   3  11
ENDBRANCH   1   7
BRANCH   2  17
ATOM     17  C   UNL     1       7.584   7.398  17.484  0.00  0.00    +0.000 C 
BRANCH  17  18
ATOM     18  O   UNL     1       7.805   6.694  18.702  0.00  0.00    +0.000 OA
ATOM     19  H   UNL     1       8.070   5.789  18.478  0.00  0.00    +0.000 HD
ENDBRANCH  17  18
BRANCH  17  20
ATOM     20  C   UNL     1       6.097   7.316  17.131  0.00  0.00    +0.000 C 
BRANCH  20  21
ATOM     21  C   UNL     1       5.573   5.879  17.032  0.00  0.00    +0.000 C 
BRANCH  21  22
ATOM     22  C   UNL     1       4.481   5.577  18.058  0.00  0.00    +0.000 C 
BRANCH  22  23
ATOM     23  C   UNL     1       4.458   4.104  18.473  0.00  0.00    +0.000 C 
BRANCH  23  24
ATOM     24  C   UNL     1       3.119   3.709  19.027  0.00  0.00    +0.000 A 
ATOM     25  C   UNL     1       2.253   2.907  18.270  0.00  0.00    +0.000 A 
ATOM     26  C   UNL     1       1.001   2.557  18.770  0.00  0.00    +0.000 A 
ATOM     27  C   UNL     1       0.602   3.012  20.025  0.00  0.00    +0.000 A 
ATOM     28  C   UNL     1       1.456   3.815  20.783  0.00  0.00    +0.000 A 
ATOM     29  C   UNL     1       2.710   4.164  20.285  0.00  0.00    +0.000 A 
ENDBRANCH  23  24
ENDBRANCH  22  23
ENDBRANCH  21  22
ENDBRANCH  20  21
ENDBRANCH  17  20
ENDBRANCH   2  17
TORSDOF 11
ENDMDL
MODEL 7
REMARK VINA RESULT:      -7.6      6.154      7.961
REMARK  Name = 
REMARK  13 active torsions:
REMARK  status: ('A' for Active; 'I' for Inactive)
REMARK    1  A    between atoms: C_1  and  N_2
REMARK    2  A    between atoms: N_2  and  C_3
REMARK    3  A    between atoms: C_4  and  C_6
REMARK    4  A    between atoms: C_6  and  C_7
REMARK    5  A    between atoms: C_7  and  O_8
REMARK    6  A    between atoms: C_12  and  C_13
REMARK    7  A    between atoms: C_14  and  C_15
REMARK    8  A    between atoms: C_15  and  O_16
REMARK    9  A    between atoms: C_15  and  C_17
REMARK   10  A    between atoms: C_17  and  C_18
REMARK   11  A    between atoms: C_18  and  C_19
REMARK   12  A    between atoms: C_19  and  C_20
REMARK   13  A    between atoms: C_20  and  C_21
REMARK                            x       y       z     vdW  Elec       q    Type
REMARK                         _______ _______ _______ _____ _____    ______ ____
ROOT
ATOM      1  C   UNL     1       2.835   6.944  18.087  0.00  0.00    +0.000 C 
ATOM      2  C   UNL     1       3.811   7.317  17.244  0.00  0.00    +0.000 C 
ENDROOT
BRANCH   1   7
ATOM      3  C   UNL     1       1.018  10.329  18.616  0.00  0.00    +0.000 C 
ATOM      4  C   UNL     1       1.051  10.294  20.162  0.00  0.00    +0.000 C 
ATOM      5  C   UNL     1       0.836   8.898  20.745  0.00  0.00    +0.000 C 
ATOM      6  C   UNL     1       1.807   7.879  20.152  0.00  0.00    +0.000 C 
ATOM      7  C   UNL     1       1.806   7.904  18.620  0.00  0.00    +0.000 C 
ATOM      8  C   UNL     1       2.061   9.323  18.092  0.00  0.00    +0.000 C 
BRANCH   3   9
ATOM      9  O   UNL     1       1.446  11.644  18.246  0.00  0.00    +0.000 OA
ATOM     10  H   UNL     1       1.366  12.235  19.013  0.00  0.00    +0.000 HD
ENDBRANCH   3   9
BRANCH   3  11
ATOM     11  C   UNL     1      -0.423  10.059  18.120  0.00  0.00    +0.000 C 
BRANCH  11  15
ATOM     12  C   UNL     1      -3.837  11.728  18.429  0.00  0.00    +0.000 C 
ATOM     13  N   UNL     1      -2.800  10.744  18.164  0.00  0.00    +0.000 N 
ATOM     14  C   UNL     1      -3.176   9.511  17.489  0.00  0.00    +0.000 C 
ATOM     15  C   UNL     1      -1.482  11.105  18.456  0.00  0.00    +0.000 C 
ATOM     16  O   UNL     1      -1.214  12.186  18.973  0.00  0.00    +0.000 OA
ENDBRANCH  11  15
ENDBRANCH   3  11
ENDBRANCH   1   7
BRANCH   2  17
ATOM     17  C   UNL     1       4.887   6.396  16.754  0.00  0.00    +0.000 C 
BRANCH  17  18
ATOM     18  O   UNL     1       5.284   6.840  15.461  0.00  0.00    +0.000 OA
ATOM     19  H   UNL     1       6.248   6.928  15.459  0.00  0.00    +0.000 HD
ENDBRANCH  17  18
BRANCH  17  20
ATOM     20  C   UNL     1       6.107   6.421  17.679  0.00  0.00    +0.000 C 
BRANCH  20  21
ATOM     21  C   UNL     1       6.020   5.411  18.828  0.00  0.00    +0.000 C 
BRANCH  21  22
ATOM     22  C   UNL     1       5.529   4.037  18.370  0.00  0.00    +0.000 C 
BRANCH  22  23
ATOM     23  C   UNL     1       4.870   3.243  19.500  0.00  0.00    +0.000 C 
BRANCH  23  24
ATOM     24  C   UNL     1       3.389   3.485  19.553  0.00  0.00    +0.000 A 
ATOM     25  C   UNL     1       2.792   3.940  20.736  0.00  0.00    +0.000 A 
ATOM     26  C   UNL     1       1.416   4.145  20.797  0.00  0.00    +0.000 A 
ATOM     27  C   UNL     1       0.625   3.887  19.679  0.00  0.00    +0.000 A 
ATOM     28  C   UNL     1       1.211   3.429  18.497  0.00  0.00    +0.000 A 
ATOM     29  C   UNL     1       2.589   3.226  18.435  0.00  0.00    +0.000 A 
ENDBRANCH  23  24
ENDBRANCH  22  23
ENDBRANCH  21  22
ENDBRANCH  20  21
ENDBRANCH  17  20
ENDBRANCH   2  17
TORSDOF 11
ENDMDL
MODEL 8
REMARK VINA RESULT:      -7.6      1.439      1.726
REMARK  Name = 
REMARK  13 active torsions:
REMARK  status: ('A' for Active; 'I' for Inactive)
REMARK    1  A    between atoms: C_1  and  N_2
REMARK    2  A    between atoms: N_2  and  C_3
REMARK    3  A    between atoms: C_4  and  C_6
REMARK    4  A    between atoms: C_6  and  C_7
REMARK    5  A    between atoms: C_7  and  O_8
REMARK    6  A    between atoms: C_12  and  C_13
REMARK    7  A    between atoms: C_14  and  C_15
REMARK    8  A    between atoms: C_15  and  O_16
REMARK    9  A    between atoms: C_15  and  C_17
REMARK   10  A    between atoms: C_17  and  C_18
REMARK   11  A    between atoms: C_18  and  C_19
REMARK   12  A    between atoms: C_19  and  C_20
REMARK   13  A    between atoms: C_20  and  C_21
REMARK                            x       y       z     vdW  Elec       q    Type
REMARK                         _______ _______ _______ _____ _____    ______ ____
ROOT
ATOM      1  C   UNL     1       8.389   9.516  17.872  0.00  0.00    +0.000 C 
ATOM      2  C   UNL     1       8.438   8.283  18.399  0.00  0.00    +0.000 C 
ENDROOT
BRANCH   1   7
ATOM      3  C   UNL     1      10.957  12.368  18.430  0.00  0.00    +0.000 C 
ATOM      4  C   UNL     1      11.271  12.021  19.904  0.00  0.00    +0.000 C 
ATOM      5  C   UNL     1      10.050  11.554  20.695  0.00  0.00    +0.000 C 
ATOM      6  C   UNL     1       9.331  10.400  20.000  0.00  0.00    +0.000 C 
ATOM      7  C   UNL     1       9.021  10.712  18.533  0.00  0.00    +0.000 C 
ATOM      8  C   UNL     1      10.289  11.140  17.781  0.00  0.00    +0.000 C 
BRANCH   3   9
ATOM      9  O   UNL     1      12.225  12.570  17.797  0.00  0.00    +0.000 OA
ATOM     10  H   UNL     1      12.866  11.932  18.151  0.00  0.00    +0.000 HD
ENDBRANCH   3   9
BRANCH   3  11
ATOM     11  C   UNL     1      10.101  13.657  18.371  0.00  0.00    +0.000 C 
BRANCH  11  15
ATOM     12  C   UNL     1      11.712  17.086  18.797  0.00  0.00    +0.000 C 
ATOM     13  N   UNL     1      11.126  15.902  18.191  0.00  0.00    +0.000 N 
ATOM     14  C   UNL     1      11.180  15.770  16.743  0.00  0.00    +0.000 C 
ATOM     15  C   UNL     1      10.666  14.900  19.051  0.00  0.00    +0.000 C 
ATOM     16  O   UNL     1      10.698  15.039  20.270  0.00  0.00    +0.000 OA
ENDBRANCH  11  15
ENDBRANCH   3  11
ENDBRANCH   1   7
BRANCH   2  17
ATOM     17  C   UNL     1       7.758   7.091  17.797  0.00  0.00    +0.000 C 
BRANCH  17  18
ATOM     18  O   UNL     1       7.856   6.018  18.727  0.00  0.00    +0.000 OA
ATOM     19  H   UNL     1       6.957   5.762  18.982  0.00  0.00    +0.000 HD
ENDBRANCH  17  18
BRANCH  17  20
ATOM     20  C   UNL     1       6.279   7.372  17.522  0.00  0.00    +0.000 C 
BRANCH  20  21
ATOM     21  C   UNL     1       5.704   6.535  16.373  0.00  0.00    +0.000 C 
BRANCH  21  22
ATOM     22  C   UNL     1       4.380   5.863  16.738  0.00  0.00    +0.000 C 
BRANCH  22  23
ATOM     23  C   UNL     1       3.654   6.579  17.880  0.00  0.00    +0.000 C 
BRANCH  23  24
ATOM     24  C   UNL     1       2.721   5.653  18.606  0.00  0.00    +0.000 A 
ATOM     25  C   UNL     1       2.401   5.889  19.950  0.00  0.00    +0.000 A 
ATOM     26  C   UNL     1       1.554   5.020  20.635  0.00  0.00    +0.000 A 
ATOM     27  C   UNL     1       1.029   3.906  19.984  0.00  0.00    +0.000 A 
ATOM     28  C   UNL     1       1.346   3.661  18.646  0.00  0.00    +0.000 A 
ATOM     29  C   UNL     1       2.192   4.531  17.960  0.00  0.00    +0.000 A 
ENDBRANCH  23  24
ENDBRANCH  22  23
ENDBRANCH  21  22
ENDBRANCH  20  21
ENDBRANCH  17  20
ENDBRANCH   2  17
TORSDOF 11
ENDMDL
MODEL 9
REMARK VINA RESULT:      -7.5      5.970      8.300
REMARK  Name = 
REMARK  13 active torsions:
REMARK  status: ('A' for Active; 'I' for Inactive)
REMARK    1  A    between atoms: C_1  and  N_2
REMARK    2  A    between atoms: N_2  and  C_3
REMARK    3  A    between atoms: C_4  and  C_6
REMARK    4  A    between atoms: C_6  and  C_7
REMARK    5  A    between atoms: C_7  and  O_8
REMARK    6  A    between atoms: C_12  and  C_13
REMARK    7  A    between atoms: C_14  and  C_15
REMARK    8  A    between atoms: C_15  and  O_16
REMARK    9  A    between atoms: C_15  and  C_17
REMARK   10  A    between atoms: C_17  and  C_18
REMARK   11  A    between atoms: C_18  and  C_19
REMARK   12  A    between atoms: C_19  and  C_20
REMARK   13  A    between atoms: C_20  and  C_21
REMARK                            x       y       z     vdW  Elec       q    Type
REMARK                         _______ _______ _______ _____ _____    ______ ____
ROOT
ATOM      1  C   UNL     1       3.276   4.581  17.376  0.00  0.00    +0.000 C 
ATOM      2  C   UNL     1       3.105   3.251  17.433  0.00  0.00    +0.000 C 
ENDROOT
BRANCH   1   7
ATOM      3  C   UNL     1       7.080   4.920  16.703  0.00  0.00    +0.000 C 
ATOM      4  C   UNL     1       7.254   6.278  17.422  0.00  0.00    +0.000 C 
ATOM      5  C   UNL     1       6.075   7.230  17.222  0.00  0.00    +0.000 C 
ATOM      6  C   UNL     1       4.748   6.576  17.599  0.00  0.00    +0.000 C 
ATOM      7  C   UNL     1       4.556   5.220  16.911  0.00  0.00    +0.000 C 
ATOM      8  C   UNL     1       5.753   4.296  17.175  0.00  0.00    +0.000 C 
BRANCH   3   9
ATOM      9  O   UNL     1       8.151   4.092  17.168  0.00  0.00    +0.000 OA
ATOM     10  H   UNL     1       8.012   3.182  16.856  0.00  0.00    +0.000 HD
ENDBRANCH   3   9
BRANCH   3  11
ATOM     11  C   UNL     1       7.170   5.128  15.172  0.00  0.00    +0.000 C 
BRANCH  11  15
ATOM     12  C   UNL     1       6.236   3.161  12.042  0.00  0.00    +0.000 C 
ATOM     13  N   UNL     1       6.860   4.128  12.930  0.00  0.00    +0.000 N 
ATOM     14  C   UNL     1       7.675   5.179  12.340  0.00  0.00    +0.000 C 
ATOM     15  C   UNL     1       6.527   4.065  14.286  0.00  0.00    +0.000 C 
ATOM     16  O   UNL     1       5.786   3.189  14.722  0.00  0.00    +0.000 OA
ENDBRANCH  11  15
ENDBRANCH   3  11
ENDBRANCH   1   7
BRANCH   2  17
ATOM     17  C   UNL     1       1.866   2.591  17.957  0.00  0.00    +0.000 C 
BRANCH  17  18
ATOM     18  O   UNL     1       2.269   1.494  18.771  0.00  0.00    +0.000 OA
ATOM     19  H   UNL     1       2.344   0.714  18.203  0.00  0.00    +0.000 HD
ENDBRANCH  17  18
BRANCH  17  20
ATOM     20  C   UNL     1       1.036   3.557  18.807  0.00  0.00    +0.000 C 
BRANCH  20  21
ATOM     21  C   UNL     1       1.552   3.700  20.244  0.00  0.00    +0.000 C 
BRANCH  21  22
ATOM     22  C   UNL     1       1.365   5.113  20.799  0.00  0.00    +0.000 C 
BRANCH  22  23
ATOM     23  C   UNL     1       2.455   6.077  20.326  0.00  0.00    +0.000 C 
BRANCH  23  24
ATOM     24  C   UNL     1       1.900   7.447  20.057  0.00  0.00    +0.000 A 
ATOM     25  C   UNL     1       1.221   8.141  21.068  0.00  0.00    +0.000 A 
ATOM     26  C   UNL     1       0.684   9.402  20.817  0.00  0.00    +0.000 A 
ATOM     27  C   UNL     1       0.815   9.974  19.553  0.00  0.00    +0.000 A 
ATOM     28  C   UNL     1       1.486   9.286  18.539  0.00  0.00    +0.000 A 
ATOM     29  C   UNL     1       2.025   8.026  18.790  0.00  0.00    +0.000 A 
ENDBRANCH  23  24
ENDBRANCH  22  23
ENDBRANCH  21  22
ENDBRANCH  20  21
ENDBRANCH  17  20
ENDBRANCH   2  17
TORSDOF 11
ENDMDL
