MODEL 1
REMARK VINA RESULT:      -7.1      0.000      0.000
REMARK  Name = 
REMARK  8 active torsions:
REMARK  status: ('A' for Active; 'I' for Inactive)
REMARK    1  A    between atoms: C_1  and  O_2
REMARK    2  A    between atoms: O_2  and  C_3
REMARK    3  A    between atoms: C_7  and  N_8
REMARK    4  A    between atoms: N_8  and  S_9
REMARK    5  A    between atoms: S_9  and  C_12
REMARK    6  A    between atoms: C_15  and  C_16
REMARK    7  A    between atoms: C_19  and  C_20
REMARK    8  A    between atoms: C_20  and  O_22
REMARK                            x       y       z     vdW  Elec       q    Type
REMARK                         _______ _______ _______ _____ _____    ______ ____
ROOT
ATOM      1  C   UNL     1       1.735   4.136  19.999  0.00  0.00    +0.000 A 
ATOM      2  C   UNL     1       1.611   5.407  20.576  0.00  0.00    +0.000 A 
ATOM      3  C   UNL     1       2.316   6.489  20.057  0.00  0.00    +0.000 A 
ATOM      4  C   UNL     1       3.134   6.324  18.947  0.00  0.00    +0.000 A 
ATOM      5  C   UNL     1       3.244   5.074  18.328  0.00  0.00    +0.000 A 
ATOM      6  C   UNL     1       2.551   3.968  18.857  0.00  0.00    +0.000 A 
ENDROOT
BRANCH   1   8
ATOM      7  C   UNL     1       1.296   2.676  21.843  0.00  0.00    +0.000 C 
ATOM      8  O   UNL     1       1.082   3.026  20.477  0.00  0.00    +0.000 OA
ENDBRANCH   1   8
BRANCH   5   9
ATOM      9  N   UNL     1       4.089   5.005  17.177  0.00  0.00    +0.000 N 
ATOM     10  H   UNL     1       4.087   5.817  16.561  0.00  0.00    +0.000 HD
BRANCH   9  11
ATOM     11  S   UNL     1       5.658   4.400  17.355  0.00  0.00    +0.000 S 
ATOM     12  O   UNL     1       5.675   3.699  18.622  0.00  0.00    +0.000 OA
ATOM     13  O   UNL     1       6.065   3.747  16.127  0.00  0.00    +0.000 OA
BRANCH  11  14
ATOM     14  C   UNL     1       6.601   5.883  17.554  0.00  0.00    +0.000 A 
ATOM     15  C   UNL     1       7.649   5.897  18.479  0.00  0.00    +0.000 A 
ATOM     16  C   UNL     1       8.327   7.089  18.728  0.00  0.00    +0.000 A 
ATOM     17  C   UNL     1       7.968   8.259  18.047  0.00  0.00    +0.000 A 
ATOM     18  C   UNL     1       8.632   9.565  18.370  0.00  0.00    +0.000 C 
ATOM     19  C   UNL     1       6.956   8.214  17.079  0.00  0.00    +0.000 A 
ATOM     20  C   UNL     1       6.271   7.025  16.826  0.00  0.00    +0.000 A 
ENDBRANCH  11  14
ENDBRANCH   9  11
ENDBRANCH   5   9
BRANCH   6  21
ATOM     21  C   UNL     1       2.623   2.649  18.171  0.00  0.00    +0.000 C 
ATOM     22  O   UNL     1       2.141   2.440  17.070  0.00  0.00    +0.000 OA
BRANCH  21  23
ATOM     23  O   UNL     1       3.312   1.715  18.860  0.00  0.00    +0.000 OA
ATOM     24  H   UNL     1       3.941   2.099  19.503  0.00  0.00    +0.000 HD
ENDBRANCH  21  23
ENDBRANCH   6  21
TORSDOF 6
ENDMDL
MODEL 2
REMARK VINA RESULT:      -7.1      0.355      1.092
REMARK  Name = 
REMARK  8 active torsions:
REMARK  status: ('A' for Active; 'I' for Inactive)
REMARK    1  A    between atoms: C_1  and  O_2
REMARK    2  A    between atoms: O_2  and  C_3
REMARK    3  A    between atoms: C_7  and  N_8
REMARK    4  A    between atoms: N_8  and  S_9
REMARK    5  A    between atoms: S_9  and  C_12
REMARK    6  A    between atoms: C_15  and  C_16
REMARK    7  A    between atoms: C_19  and  C_20
REMARK    8  A    between atoms: C_20  and  O_22
REMARK                            x       y       z     vdW  Elec       q    Type
REMARK                         _______ _______ _______ _____ _____    ______ ____
ROOT
ATOM      1  C   UNL     1       1.820   4.098  19.893  0.00  0.00    +0.000 A 
ATOM      2  C   UNL     1       1.633   5.369  20.453  0.00  0.00    +0.000 A 
ATOM      3  C   UNL     1       2.359   6.460  19.983  0.00  0.00    +0.000 A 
ATOM      4  C   UNL     1       3.262   6.303  18.940  0.00  0.00    +0.000 A 
ATOM      5  C   UNL     1       3.438   5.054  18.337  0.00  0.00    +0.000 A 
ATOM      6  C   UNL     1       2.724   3.939  18.818  0.00  0.00    +0.000 A 
ENDROOT
BRANCH   1   8
ATOM      7  C   UNL     1       1.444   2.504  21.637  0.00  0.00    +0.000 C 
ATOM      8  O   UNL     1       1.150   2.979  20.325  0.00  0.00    +0.000 OA
ENDBRANCH   1   8
BRANCH   5   9
ATOM      9  N   UNL     1       4.370   4.993  17.255  0.00  0.00    +0.000 N 
ATOM     10  H   UNL     1       4.338   5.760  16.584  0.00  0.00    +0.000 HD
BRANCH   9  11
ATOM     11  S   UNL     1       5.970   4.556  17.582  0.00  0.00    +0.000 S 
ATOM     12  O   UNL     1       5.943   3.863  18.853  0.00  0.00    +0.000 OA
ATOM     13  O   UNL     1       6.554   3.948  16.404  0.00  0.00    +0.000 OA
BRANCH  11  14
ATOM     14  C   UNL     1       6.731   6.130  17.850  0.00  0.00    +0.000 A 
ATOM     15  C   UNL     1       6.276   7.232  17.122  0.00  0.00    +0.000 A 
ATOM     16  C   UNL     1       6.940   8.452  17.240  0.00  0.00    +0.000 A 
ATOM     17  C   UNL     1       8.044   8.574  18.091  0.00  0.00    +0.000 A 
ATOM     18  C   UNL     1       8.819   9.857  18.160  0.00  0.00    +0.000 C 
ATOM     19  C   UNL     1       8.450   7.475  18.861  0.00  0.00    +0.000 A 
ATOM     20  C   UNL     1       7.792   6.251  18.746  0.00  0.00    +0.000 A 
ENDBRANCH  11  14
ENDBRANCH   9  11
ENDBRANCH   5   9
BRANCH   6  21
ATOM     21  C   UNL     1       2.868   2.619  18.146  0.00  0.00    +0.000 C 
ATOM     22  O   UNL     1       2.104   2.220  17.282  0.00  0.00    +0.000 OA
BRANCH  21  23
ATOM     23  O   UNL     1       3.951   1.919  18.546  0.00  0.00    +0.000 OA
ATOM     24  H   UNL     1       3.729   1.027  18.879  0.00  0.00    +0.000 HD
ENDBRANCH  21  23
ENDBRANCH   6  21
TORSDOF 6
ENDMDL
MODEL 3
REMARK VINA RESULT:      -7.0      2.380      3.213
REMARK  Name = 
REMARK  8 active torsions:
REMARK  status: ('A' for Active; 'I' for Inactive)
REMARK    1  A    between atoms: C_1  and  O_2
REMARK    2  A    between atoms: O_2  and  C_3
REMARK    3  A    between atoms: C_7  and  N_8
REMARK    4  A    between atoms: N_8  and  S_9
REMARK    5  A    between atoms: S_9  and  C_12
REMARK    6  A    between atoms: C_15  and  C_16
REMARK    7  A    between atoms: C_19  and  C_20
REMARK    8  A    between atoms: C_20  and  O_22
REMARK                            x       y       z     vdW  Elec       q    Type
REMARK                         _______ _______ _______ _____ _____    ______ ____
ROOT
ATOM      1  C   UNL     1       1.652   4.256  20.073  0.00  0.00    +0.000 A 
ATOM      2  C   UNL     1       1.384   5.451  20.754  0.00  0.00    +0.000 A 
ATOM      3  C   UNL     1       1.952   6.648  20.328  0.00  0.00    +0.000 A 
ATOM      4  C   UNL     1       2.775   6.673  19.210  0.00  0.00    +0.000 A 
ATOM      5  C   UNL     1       3.027   5.501  18.489  0.00  0.00    +0.000 A 
ATOM      6  C   UNL     1       2.474   4.281  18.923  0.00  0.00    +0.000 A 
ENDROOT
BRANCH   1   8
ATOM      7  C   UNL     1       1.543   2.526  21.723  0.00  0.00    +0.000 C 
ATOM      8  O   UNL     1       1.139   3.040  20.455  0.00  0.00    +0.000 OA
ENDBRANCH   1   8
BRANCH   5   9
ATOM      9  N   UNL     1       3.866   5.628  17.338  0.00  0.00    +0.000 N 
ATOM     10  H   UNL     1       3.680   6.421  16.725  0.00  0.00    +0.000 HD
BRANCH   9  11
ATOM     11  S   UNL     1       5.530   5.392  17.515  0.00  0.00    +0.000 S 
ATOM     12  O   UNL     1       6.104   6.709  17.701  0.00  0.00    +0.000 OA
ATOM     13  O   UNL     1       5.768   4.326  18.467  0.00  0.00    +0.000 OA
BRANCH  11  14
ATOM     14  C   UNL     1       5.994   4.833  15.903  0.00  0.00    +0.000 A 
ATOM     15  C   UNL     1       7.193   5.288  15.349  0.00  0.00    +0.000 A 
ATOM     16  C   UNL     1       7.516   4.946  14.037  0.00  0.00    +0.000 A 
ATOM     17  C   UNL     1       6.651   4.142  13.286  0.00  0.00    +0.000 A 
ATOM     18  C   UNL     1       6.945   3.839  11.846  0.00  0.00    +0.000 C 
ATOM     19  C   UNL     1       5.482   3.643  13.876  0.00  0.00    +0.000 A 
ATOM     20  C   UNL     1       5.151   3.983  15.187  0.00  0.00    +0.000 A 
ENDBRANCH  11  14
ENDBRANCH   9  11
ENDBRANCH   5   9
BRANCH   6  21
ATOM     21  C   UNL     1       2.695   3.041  18.130  0.00  0.00    +0.000 C 
ATOM     22  O   UNL     1       2.226   2.865  17.017  0.00  0.00    +0.000 OA
BRANCH  21  23
ATOM     23  O   UNL     1       3.504   2.145  18.734  0.00  0.00    +0.000 OA
ATOM     24  H   UNL     1       3.784   1.420  18.140  0.00  0.00    +0.000 HD
ENDBRANCH  21  23
ENDBRANCH   6  21
TORSDOF 6
ENDMDL
MODEL 4
REMARK VINA RESULT:      -7.0      1.314      1.920
REMARK  Name = 
REMARK  8 active torsions:
REMARK  status: ('A' for Active; 'I' for Inactive)
REMARK    1  A    between atoms: C_1  and  O_2
REMARK    2  A    between atoms: O_2  and  C_3
REMARK    3  A    between atoms: C_7  and  N_8
REMARK    4  A    between atoms: N_8  and  S_9
REMARK    5  A    between atoms: S_9  and  C_12
REMARK    6  A    between atoms: C_15  and  C_16
REMARK    7  A    between atoms: C_19  and  C_20
REMARK    8  A    between atoms: C_20  and  O_22
REMARK                            x       y       z     vdW  Elec       q    Type
REMARK                         _______ _______ _______ _____ _____    ______ ____
ROOT
ATOM      1  C   UNL     1       2.525   3.775  19.761  0.00  0.00    +0.000 A 
ATOM      2  C   UNL     1       2.141   5.119  19.666  0.00  0.00    +0.000 A 
ATOM      3  C   UNL     1       3.052   6.085  19.248  0.00  0.00    +0.000 A 
ATOM      4  C   UNL     1       4.346   5.723  18.900  0.00  0.00    +0.000 A 
ATOM      5  C   UNL     1       4.744   4.383  18.947  0.00  0.00    +0.000 A 
ATOM      6  C   UNL     1       3.836   3.400  19.389  0.00  0.00    +0.000 A 
ENDROOT
BRANCH   1   8
ATOM      7  C   UNL     1       1.489   2.636  21.592  0.00  0.00    +0.000 C 
ATOM      8  O   UNL     1       1.680   2.779  20.185  0.00  0.00    +0.000 OA
ENDBRANCH   1   8
BRANCH   5   9
ATOM      9  N   UNL     1       6.088   4.101  18.548  0.00  0.00    +0.000 N 
ATOM     10  H   UNL     1       6.391   3.131  18.625  0.00  0.00    +0.000 HD
BRANCH   9  11
ATOM     11  S   UNL     1       6.676   4.795  17.124  0.00  0.00    +0.000 S 
ATOM     12  O   UNL     1       7.827   4.005  16.739  0.00  0.00    +0.000 OA
ATOM     13  O   UNL     1       5.576   5.021  16.207  0.00  0.00    +0.000 OA
BRANCH  11  14
ATOM     14  C   UNL     1       7.271   6.358  17.698  0.00  0.00    +0.000 A 
ATOM     15  C   UNL     1       6.950   7.510  16.975  0.00  0.00    +0.000 A 
ATOM     16  C   UNL     1       7.505   8.732  17.350  0.00  0.00    +0.000 A 
ATOM     17  C   UNL     1       8.366   8.806  18.451  0.00  0.00    +0.000 A 
ATOM     18  C   UNL     1       9.037  10.098  18.812  0.00  0.00    +0.000 C 
ATOM     19  C   UNL     1       8.630   7.652  19.203  0.00  0.00    +0.000 A 
ATOM     20  C   UNL     1       8.080   6.426  18.831  0.00  0.00    +0.000 A 
ENDBRANCH  11  14
ENDBRANCH   9  11
ENDBRANCH   5   9
BRANCH   6  21
ATOM     21  C   UNL     1       4.237   1.966  19.390  0.00  0.00    +0.000 C 
ATOM     22  O   UNL     1       5.078   1.506  20.146  0.00  0.00    +0.000 OA
BRANCH  21  23
ATOM     23  O   UNL     1       3.551   1.208  18.509  0.00  0.00    +0.000 OA
ATOM     24  H   UNL     1       4.090   0.931  17.741  0.00  0.00    +0.000 HD
ENDBRANCH  21  23
ENDBRANCH   6  21
TORSDOF 6
ENDMDL
MODEL 5
REMARK VINA RESULT:      -6.9      1.951      5.675
REMARK  Name = 
REMARK  8 active torsions:
REMARK  status: ('A' for Active; 'I' for Inactive)
REMARK    1  A    between atoms: C_1  and  O_2
REMARK    2  A    between atoms: O_2  and  C_3
REMARK    3  A    between atoms: C_7  and  N_8
REMARK    4  A    between atoms: N_8  and  S_9
REMARK    5  A    between atoms: S_9  and  C_12
REMARK    6  A    between atoms: C_15  and  C_16
REMARK    7  A    between atoms: C_19  and  C_20
REMARK    8  A    between atoms: C_20  and  O_22
REMARK                            x       y       z     vdW  Elec       q    Type
REMARK                         _______ _______ _______ _____ _____    ______ ____
ROOT
ATOM      1  C   UNL     1       6.847   5.721  16.504  0.00  0.00    +0.000 A 
ATOM      2  C   UNL     1       6.451   5.580  15.167  0.00  0.00    +0.000 A 
ATOM      3  C   UNL     1       5.501   4.627  14.810  0.00  0.00    +0.000 A 
ATOM      4  C   UNL     1       4.921   3.820  15.779  0.00  0.00    +0.000 A 
ATOM      5  C   UNL     1       5.269   3.968  17.126  0.00  0.00    +0.000 A 
ATOM      6  C   UNL     1       6.244   4.914  17.495  0.00  0.00    +0.000 A 
ENDROOT
BRANCH   1   8
ATOM      7  C   UNL     1       7.336   7.918  17.314  0.00  0.00    +0.000 C 
ATOM      8  O   UNL     1       7.793   6.627  16.916  0.00  0.00    +0.000 OA
ENDBRANCH   1   8
BRANCH   5   9
ATOM      9  N   UNL     1       4.602   3.110  18.055  0.00  0.00    +0.000 N 
ATOM     10  H   UNL     1       4.997   3.062  18.994  0.00  0.00    +0.000 HD
BRANCH   9  11
ATOM     11  S   UNL     1       2.913   3.141  18.124  0.00  0.00    +0.000 S 
ATOM     12  O   UNL     1       2.459   3.221  16.751  0.00  0.00    +0.000 OA
ATOM     13  O   UNL     1       2.447   2.095  19.012  0.00  0.00    +0.000 OA
BRANCH  11  14
ATOM     14  C   UNL     1       2.606   4.711  18.878  0.00  0.00    +0.000 A 
ATOM     15  C   UNL     1       2.203   4.749  20.215  0.00  0.00    +0.000 A 
ATOM     16  C   UNL     1       1.849   5.969  20.789  0.00  0.00    +0.000 A 
ATOM     17  C   UNL     1       1.910   7.147  20.035  0.00  0.00    +0.000 A 
ATOM     18  C   UNL     1       1.450   8.451  20.615  0.00  0.00    +0.000 C 
ATOM     19  C   UNL     1       2.376   7.099  18.713  0.00  0.00    +0.000 A 
ATOM     20  C   UNL     1       2.729   5.882  18.132  0.00  0.00    +0.000 A 
ENDBRANCH  11  14
ENDBRANCH   9  11
ENDBRANCH   5   9
BRANCH   6  21
ATOM     21  C   UNL     1       6.580   5.112  18.932  0.00  0.00    +0.000 C 
ATOM     22  O   UNL     1       5.745   5.360  19.787  0.00  0.00    +0.000 OA
BRANCH  21  23
ATOM     23  O   UNL     1       7.890   4.947  19.213  0.00  0.00    +0.000 OA
ATOM     24  H   UNL     1       8.211   5.553  19.910  0.00  0.00    +0.000 HD
ENDBRANCH  21  23
ENDBRANCH   6  21
TORSDOF 6
ENDMDL
MODEL 6
REMARK VINA RESULT:      -6.9      2.466      3.344
REMARK  Name = 
REMARK  8 active torsions:
REMARK  status: ('A' for Active; 'I' for Inactive)
REMARK    1  A    between atoms: C_1  and  O_2
REMARK    2  A    between atoms: O_2  and  C_3
REMARK    3  A    between atoms: C_7  and  N_8
REMARK    4  A    between atoms: N_8  and  S_9
REMARK    5  A    between atoms: S_9  and  C_12
REMARK    6  A    between atoms: C_15  and  C_16
REMARK    7  A    between atoms: C_19  and  C_20
REMARK    8  A    between atoms: C_20  and  O_22
REMARK                            x       y       z     vdW  Elec       q    Type
REMARK                         _______ _______ _______ _____ _____    ______ ____
ROOT
ATOM      1  C   UNL     1       1.680   4.362  20.062  0.00  0.00    +0.000 A 
ATOM      2  C   UNL     1       1.474   5.544  20.787  0.00  0.00    +0.000 A 
ATOM      3  C   UNL     1       2.057   6.737  20.370  0.00  0.00    +0.000 A 
ATOM      4  C   UNL     1       2.831   6.773  19.218  0.00  0.00    +0.000 A 
ATOM      5  C   UNL     1       3.019   5.617  18.455  0.00  0.00    +0.000 A 
ATOM      6  C   UNL     1       2.452   4.399  18.879  0.00  0.00    +0.000 A 
ENDROOT
BRANCH   1   8
ATOM      7  C   UNL     1       1.647   2.555  21.630  0.00  0.00    +0.000 C 
ATOM      8  O   UNL     1       1.151   3.150  20.432  0.00  0.00    +0.000 OA
ENDBRANCH   1   8
BRANCH   5   9
ATOM      9  N   UNL     1       3.812   5.755  17.272  0.00  0.00    +0.000 N 
ATOM     10  H   UNL     1       3.612   6.562  16.682  0.00  0.00    +0.000 HD
BRANCH   9  11
ATOM     11  S   UNL     1       5.478   5.493  17.375  0.00  0.00    +0.000 S 
ATOM     12  O   UNL     1       6.074   6.792  17.608  0.00  0.00    +0.000 OA
ATOM     13  O   UNL     1       5.738   4.375  18.260  0.00  0.00    +0.000 OA
BRANCH  11  14
ATOM     14  C   UNL     1       5.876   5.015  15.719  0.00  0.00    +0.000 A 
ATOM     15  C   UNL     1       4.919   4.328  14.967  0.00  0.00    +0.000 A 
ATOM     16  C   UNL     1       5.257   3.847  13.703  0.00  0.00    +0.000 A 
ATOM     17  C   UNL     1       6.541   4.062  13.188  0.00  0.00    +0.000 A 
ATOM     18  C   UNL     1       6.943   3.475  11.868  0.00  0.00    +0.000 C 
ATOM     19  C   UNL     1       7.469   4.806  13.930  0.00  0.00    +0.000 A 
ATOM     20  C   UNL     1       7.138   5.288  15.195  0.00  0.00    +0.000 A 
ENDBRANCH  11  14
ENDBRANCH   9  11
ENDBRANCH   5   9
BRANCH   6  21
ATOM     21  C   UNL     1       2.605   3.178  18.042  0.00  0.00    +0.000 C 
ATOM     22  O   UNL     1       2.107   3.057  16.935  0.00  0.00    +0.000 OA
BRANCH  21  23
ATOM     23  O   UNL     1       3.387   2.230  18.601  0.00  0.00    +0.000 OA
ATOM     24  H   UNL     1       2.915   1.686  19.263  0.00  0.00    +0.000 HD
ENDBRANCH  21  23
ENDBRANCH   6  21
TORSDOF 6
ENDMDL
MODEL 7
REMARK VINA RESULT:      -6.8      2.483      3.726
REMARK  Name = 
REMARK  8 active torsions:
REMARK  status: ('A' for Active; 'I' for Inactive)
REMARK    1  A    between atoms: C_1  and  O_2
REMARK    2  A    between atoms: O_2  and  C_3
REMARK    3  A    between atoms: C_7  and  N_8
REMARK    4  A    between atoms: N_8  and  S_9
REMARK    5  A    between atoms: S_9  and  C_12
REMARK    6  A    between atoms: C_15  and  C_16
REMARK    7  A    between atoms: C_19  and  C_20
REMARK    8  A    between atoms: C_20  and  O_22
REMARK                            x       y       z     vdW  Elec       q    Type
REMARK                         _______ _______ _______ _____ _____    ______ ____
ROOT
ATOM      1  C   UNL     1       1.668   7.668  20.163  0.00  0.00    +0.000 A 
ATOM      2  C   UNL     1       1.851   8.740  19.280  0.00  0.00    +0.000 A 
ATOM      3  C   UNL     1       2.434   8.535  18.033  0.00  0.00    +0.000 A 
ATOM      4  C   UNL     1       2.822   7.260  17.643  0.00  0.00    +0.000 A 
ATOM      5  C   UNL     1       2.613   6.166  18.489  0.00  0.00    +0.000 A 
ATOM      6  C   UNL     1       2.043   6.366  19.762  0.00  0.00    +0.000 A 
ENDROOT
BRANCH   1   8
ATOM      7  C   UNL     1       1.333   9.047  22.090  0.00  0.00    +0.000 C 
ATOM      8  O   UNL     1       1.118   7.809  21.414  0.00  0.00    +0.000 OA
ENDBRANCH   1   8
BRANCH   5   9
ATOM      9  N   UNL     1       3.021   4.888  17.994  0.00  0.00    +0.000 N 
ATOM     10  H   UNL     1       2.864   4.714  17.002  0.00  0.00    +0.000 HD
BRANCH   9  11
ATOM     11  S   UNL     1       4.518   4.269  18.475  0.00  0.00    +0.000 S 
ATOM     12  O   UNL     1       5.069   5.233  19.406  0.00  0.00    +0.000 OA
ATOM     13  O   UNL     1       4.370   2.874  18.836  0.00  0.00    +0.000 OA
BRANCH  11  14
ATOM     14  C   UNL     1       5.457   4.377  16.980  0.00  0.00    +0.000 A 
ATOM     15  C   UNL     1       6.792   4.783  17.049  0.00  0.00    +0.000 A 
ATOM     16  C   UNL     1       7.510   4.981  15.871  0.00  0.00    +0.000 A 
ATOM     17  C   UNL     1       6.901   4.763  14.630  0.00  0.00    +0.000 A 
ATOM     18  C   UNL     1       7.635   5.056  13.355  0.00  0.00    +0.000 C 
ATOM     19  C   UNL     1       5.579   4.297  14.579  0.00  0.00    +0.000 A 
ATOM     20  C   UNL     1       4.854   4.099  15.754  0.00  0.00    +0.000 A 
ENDBRANCH  11  14
ENDBRANCH   9  11
ENDBRANCH   5   9
BRANCH   6  21
ATOM     21  C   UNL     1       1.771   5.199  20.645  0.00  0.00    +0.000 C 
ATOM     22  O   UNL     1       0.817   4.453  20.494  0.00  0.00    +0.000 OA
BRANCH  21  23
ATOM     23  O   UNL     1       2.703   5.013  21.604  0.00  0.00    +0.000 OA
ATOM     24  H   UNL     1       2.965   5.843  22.049  0.00  0.00    +0.000 HD
ENDBRANCH  21  23
ENDBRANCH   6  21
TORSDOF 6
ENDMDL
MODEL 8
REMARK VINA RESULT:      -6.7      2.459      3.466
REMARK  Name = 
REMARK  8 active torsions:
REMARK  status: ('A' for Active; 'I' for Inactive)
REMARK    1  A    between atoms: C_1  and  O_2
REMARK    2  A    between atoms: O_2  and  C_3
REMARK    3  A    between atoms: C_7  and  N_8
REMARK    4  A    between atoms: N_8  and  S_9
REMARK    5  A    between atoms: S_9  and  C_12
REMARK    6  A    between atoms: C_15  and  C_16
REMARK    7  A    between atoms: C_19  and  C_20
REMARK    8  A    between atoms: C_20  and  O_22
REMARK                            x       y       z     vdW  Elec       q    Type
REMARK                         _______ _______ _______ _____ _____    ______ ____
ROOT
ATOM      1  C   UNL     1       2.413   3.769  18.273  0.00  0.00    +0.000 A 
ATOM      2  C   UNL     1       1.873   5.000  17.879  0.00  0.00    +0.000 A 
ATOM      3  C   UNL     1       2.608   6.173  18.029  0.00  0.00    +0.000 A 
ATOM      4  C   UNL     1       3.893   6.131  18.553  0.00  0.00    +0.000 A 
ATOM      5  C   UNL     1       4.470   4.911  18.917  0.00  0.00    +0.000 A 
ATOM      6  C   UNL     1       3.728   3.720  18.789  0.00  0.00    +0.000 A 
ENDROOT
BRANCH   1   8
ATOM      7  C   UNL     1       0.634   2.374  19.057  0.00  0.00    +0.000 C 
ATOM      8  O   UNL     1       1.732   2.581  18.170  0.00  0.00    +0.000 OA
ENDBRANCH   1   8
BRANCH   5   9
ATOM      9  N   UNL     1       5.806   4.963  19.424  0.00  0.00    +0.000 N 
ATOM     10  H   UNL     1       6.097   4.188  20.020  0.00  0.00    +0.000 HD
BRANCH   9  11
ATOM     11  S   UNL     1       7.057   5.409  18.378  0.00  0.00    +0.000 S 
ATOM     12  O   UNL     1       7.139   6.853  18.446  0.00  0.00    +0.000 OA
ATOM     13  O   UNL     1       8.216   4.576  18.629  0.00  0.00    +0.000 OA
BRANCH  11  14
ATOM     14  C   UNL     1       6.381   4.988  16.799  0.00  0.00    +0.000 A 
ATOM     15  C   UNL     1       6.364   3.647  16.408  0.00  0.00    +0.000 A 
ATOM     16  C   UNL     1       5.939   3.313  15.123  0.00  0.00    +0.000 A 
ATOM     17  C   UNL     1       5.520   4.313  14.238  0.00  0.00    +0.000 A 
ATOM     18  C   UNL     1       5.143   3.975  12.826  0.00  0.00    +0.000 C 
ATOM     19  C   UNL     1       5.484   5.647  14.667  0.00  0.00    +0.000 A 
ATOM     20  C   UNL     1       5.910   5.988  15.950  0.00  0.00    +0.000 A 
ENDBRANCH  11  14
ENDBRANCH   9  11
ENDBRANCH   5   9
BRANCH   6  21
ATOM     21  C   UNL     1       4.356   2.414  19.125  0.00  0.00    +0.000 C 
ATOM     22  O   UNL     1       4.924   2.196  20.183  0.00  0.00    +0.000 OA
BRANCH  21  23
ATOM     23  O   UNL     1       4.200   1.473  18.169  0.00  0.00    +0.000 OA
ATOM     24  H   UNL     1       3.801   0.646  18.508  0.00  0.00    +0.000 HD
ENDBRANCH  21  23
ENDBRANCH   6  21
TORSDOF 6
ENDMDL
MODEL 9
REMARK VINA RESULT:      -6.7      1.760      5.527
REMARK  Name = 
REMARK  8 active torsions:
REMARK  status: ('A' for Active; 'I' for Inactive)
REMARK    1  A    between atoms: C_1  and  O_2
REMARK    2  A    between atoms: O_2  and  C_3
REMARK    3  A    between atoms: C_7  and  N_8
REMARK    4  A    between atoms: N_8  and  S_9
REMARK    5  A    between atoms: S_9  and  C_12
REMARK    6  A    between atoms: C_15  and  C_16
REMARK    7  A    between atoms: C_19  and  C_20
REMARK    8  A    between atoms: C_20  and  O_22
REMARK                            x       y       z     vdW  Elec       q    Type
REMARK                         _______ _______ _______ _____ _____    ______ ____
ROOT
ATOM      1  C   UNL     1       7.001   6.469  17.550  0.00  0.00    +0.000 A 
ATOM      2  C   UNL     1       7.421   6.194  18.858  0.00  0.00    +0.000 A 
ATOM      3  C   UNL     1       6.921   5.089  19.542  0.00  0.00    +0.000 A 
ATOM      4  C   UNL     1       6.014   4.236  18.926  0.00  0.00    +0.000 A 
ATOM      5  C   UNL     1       5.609   4.466  17.607  0.00  0.00    +0.000 A 
ATOM      6  C   UNL     1       6.093   5.592  16.913  0.00  0.00    +0.000 A 
ENDROOT
BRANCH   1   8
ATOM      7  C   UNL     1       7.915   8.680  17.565  0.00  0.00    +0.000 C 
ATOM      8  O   UNL     1       7.441   7.553  16.830  0.00  0.00    +0.000 OA
ENDBRANCH   1   8
BRANCH   5   9
ATOM      9  N   UNL     1       4.693   3.522  17.047  0.00  0.00    +0.000 N 
ATOM     10  H   UNL     1       5.100   2.686  16.629  0.00  0.00    +0.000 HD
BRANCH   9  11
ATOM     11  S   UNL     1       3.296   3.132  17.915  0.00  0.00    +0.000 S 
ATOM     12  O   UNL     1       2.272   2.866  16.926  0.00  0.00    +0.000 OA
ATOM     13  O   UNL     1       3.620   2.163  18.942  0.00  0.00    +0.000 OA
BRANCH  11  14
ATOM     14  C   UNL     1       2.903   4.673  18.687  0.00  0.00    +0.000 A 
ATOM     15  C   UNL     1       2.658   4.696  20.063  0.00  0.00    +0.000 A 
ATOM     16  C   UNL     1       2.237   5.881  20.665  0.00  0.00    +0.000 A 
ATOM     17  C   UNL     1       2.074   7.041  19.898  0.00  0.00    +0.000 A 
ATOM     18  C   UNL     1       1.539   8.298  20.518  0.00  0.00    +0.000 C 
ATOM     19  C   UNL     1       2.382   7.016  18.531  0.00  0.00    +0.000 A 
ATOM     20  C   UNL     1       2.801   5.834  17.922  0.00  0.00    +0.000 A 
ENDBRANCH  11  14
ENDBRANCH   9  11
ENDBRANCH   5   9
BRANCH   6  21
ATOM     21  C   UNL     1       5.707   5.812  15.492  0.00  0.00    +0.000 C 
ATOM     22  O   UNL     1       5.886   4.984  14.614  0.00  0.00    +0.000 OA
BRANCH  21  23
ATOM     23  O   UNL     1       5.094   6.994  15.272  0.00  0.00    +0.000 OA
ATOM     24  H   UNL     1       4.194   6.896  14.902  0.00  0.00    +0.000 HD
ENDBRANCH  21  23
ENDBRANCH   6  21
TORSDOF 6
ENDMDL
