MODEL 1
REMARK VINA RESULT:      -6.1      0.000      0.000
REMARK  Name = 
REMARK  10 active torsions:
REMARK  status: ('A' for Active; 'I' for Inactive)
REMARK    1  A    between atoms: C_1  and  C_2
REMARK    2  A    between atoms: C_2  and  N_3
REMARK    3  A    between atoms: N_3  and  C_4
REMARK    4  A    between atoms: C_4  and  C_5
REMARK    5  A    between atoms: C_4  and  C_7
REMARK    6  A    between atoms: C_5  and  C_6
REMARK    7  A    between atoms: C_7  and  C_8
REMARK    8  A    between atoms: C_11  and  S_12
REMARK    9  A    between atoms: S_12  and  C_13
REMARK   10  A    between atoms: C_13  and  C_14
REMARK                            x       y       z     vdW  Elec       q    Type
REMARK                         _______ _______ _______ _____ _____    ______ ____
ROOT
ATOM      1  C   UNL     1       4.235   5.375  16.967  0.00  0.00    +0.000 A 
ATOM      2  C   UNL     1       3.204   5.993  17.686  0.00  0.00    +0.000 A 
ATOM      3  C   UNL     1       2.210   5.226  18.307  0.00  0.00    +0.000 A 
ATOM      4  C   UNL     1       2.221   3.832  18.201  0.00  0.00    +0.000 A 
ATOM      5  C   UNL     1       3.233   3.218  17.461  0.00  0.00    +0.000 A 
ATOM      6  C   UNL     1       4.229   3.983  16.845  0.00  0.00    +0.000 A 
ENDROOT
BRANCH   1   7
ATOM      7  C   UNL     1       5.344   6.195  16.335  0.00  0.00    +0.000 C 
BRANCH   7   8
ATOM      8  C   UNL     1       6.785   5.706  16.660  0.00  0.00    +0.000 C 
BRANCH   8   9
ATOM      9  N   UNL     1       7.581   5.560  15.424  0.00  0.00    +0.000 NA
ATOM     10  H   UNL     1       7.785   6.490  15.051  0.00  0.00    +0.000 HD
BRANCH   9  12
ATOM     11  C   UNL     1       7.532   5.033  13.031  0.00  0.00    +0.000 C 
ATOM     12  C   UNL     1       6.913   4.765  14.394  0.00  0.00    +0.000 C 
ENDBRANCH   9  12
ENDBRANCH   8   9
BRANCH   8  13
ATOM     13  C   UNL     1       7.451   6.658  17.684  0.00  0.00    +0.000 C 
ATOM     14  C   UNL     1       7.853   6.004  19.001  0.00  0.00    +0.000 C 
ENDBRANCH   8  13
ENDBRANCH   7   8
ENDBRANCH   1   7
BRANCH   4  15
ATOM     15  S   UNL     1       1.034   2.819  19.068  0.00  0.00    +0.000 S 
BRANCH  15  16
ATOM     16  C   UNL     1       1.979   2.397  20.568  0.00  0.00    +0.000 C 
ATOM     17  C   UNL     1       2.027   3.598  21.500  0.00  0.00    +0.000 C 
ENDBRANCH  15  16
ENDBRANCH   4  15
TORSDOF 7
ENDMDL
MODEL 2
REMARK VINA RESULT:      -6.0      0.972      1.169
REMARK  Name = 
REMARK  10 active torsions:
REMARK  status: ('A' for Active; 'I' for Inactive)
REMARK    1  A    between atoms: C_1  and  C_2
REMARK    2  A    between atoms: C_2  and  N_3
REMARK    3  A    between atoms: N_3  and  C_4
REMARK    4  A    between atoms: C_4  and  C_5
REMARK    5  A    between atoms: C_4  and  C_7
REMARK    6  A    between atoms: C_5  and  C_6
REMARK    7  A    between atoms: C_7  and  C_8
REMARK    8  A    between atoms: C_11  and  S_12
REMARK    9  A    between atoms: S_12  and  C_13
REMARK   10  A    between atoms: C_13  and  C_14
REMARK                            x       y       z     vdW  Elec       q    Type
REMARK                         _______ _______ _______ _____ _____    ______ ____
ROOT
ATOM      1  C   UNL     1       4.129   5.982  17.631  0.00  0.00    +0.000 A 
ATOM      2  C   UNL     1       3.368   6.579  18.643  0.00  0.00    +0.000 A 
ATOM      3  C   UNL     1       2.330   5.872  19.265  0.00  0.00    +0.000 A 
ATOM      4  C   UNL     1       2.026   4.566  18.868  0.00  0.00    +0.000 A 
ATOM      5  C   UNL     1       2.767   3.981  17.841  0.00  0.00    +0.000 A 
ATOM      6  C   UNL     1       3.808   4.685  17.224  0.00  0.00    +0.000 A 
ENDROOT
BRANCH   1   7
ATOM      7  C   UNL     1       5.288   6.721  16.989  0.00  0.00    +0.000 C 
BRANCH   7   8
ATOM      8  C   UNL     1       6.657   5.988  17.071  0.00  0.00    +0.000 C 
BRANCH   8   9
ATOM      9  N   UNL     1       7.232   5.797  15.724  0.00  0.00    +0.000 NA
ATOM     10  H   UNL     1       6.799   6.466  15.083  0.00  0.00    +0.000 HD
BRANCH   9  12
ATOM     11  C   UNL     1       5.843   4.389  14.277  0.00  0.00    +0.000 C 
ATOM     12  C   UNL     1       7.050   4.443  15.201  0.00  0.00    +0.000 C 
ENDBRANCH   9  12
ENDBRANCH   8   9
BRANCH   8  13
ATOM     13  C   UNL     1       7.614   6.752  18.020  0.00  0.00    +0.000 C 
ATOM     14  C   UNL     1       7.810   8.225  17.684  0.00  0.00    +0.000 C 
ENDBRANCH   8  13
ENDBRANCH   7   8
ENDBRANCH   1   7
BRANCH   4  15
ATOM     15  S   UNL     1       0.783   3.598  19.710  0.00  0.00    +0.000 S 
BRANCH  15  16
ATOM     16  C   UNL     1       1.816   2.295  20.456  0.00  0.00    +0.000 C 
ATOM     17  C   UNL     1       2.525   2.841  21.686  0.00  0.00    +0.000 C 
ENDBRANCH  15  16
ENDBRANCH   4  15
TORSDOF 7
ENDMDL
MODEL 3
REMARK VINA RESULT:      -5.9      0.928      1.594
REMARK  Name = 
REMARK  10 active torsions:
REMARK  status: ('A' for Active; 'I' for Inactive)
REMARK    1  A    between atoms: C_1  and  C_2
REMARK    2  A    between atoms: C_2  and  N_3
REMARK    3  A    between atoms: N_3  and  C_4
REMARK    4  A    between atoms: C_4  and  C_5
REMARK    5  A    between atoms: C_4  and  C_7
REMARK    6  A    between atoms: C_5  and  C_6
REMARK    7  A    between atoms: C_7  and  C_8
REMARK    8  A    between atoms: C_11  and  S_12
REMARK    9  A    between atoms: S_12  and  C_13
REMARK   10  A    between atoms: C_13  and  C_14
REMARK                            x       y       z     vdW  Elec       q    Type
REMARK                         _______ _______ _______ _____ _____    ______ ____
ROOT
ATOM      1  C   UNL     1       4.351   5.581  17.740  0.00  0.00    +0.000 A 
ATOM      2  C   UNL     1       4.613   4.235  18.022  0.00  0.00    +0.000 A 
ATOM      3  C   UNL     1       3.606   3.404  18.530  0.00  0.00    +0.000 A 
ATOM      4  C   UNL     1       2.328   3.913  18.782  0.00  0.00    +0.000 A 
ATOM      5  C   UNL     1       2.075   5.261  18.526  0.00  0.00    +0.000 A 
ATOM      6  C   UNL     1       3.079   6.090  18.013  0.00  0.00    +0.000 A 
ENDROOT
BRANCH   1   7
ATOM      7  C   UNL     1       5.421   6.474  17.140  0.00  0.00    +0.000 C 
BRANCH   7   8
ATOM      8  C   UNL     1       6.864   5.900  17.204  0.00  0.00    +0.000 C 
BRANCH   8   9
ATOM      9  N   UNL     1       7.380   5.622  15.848  0.00  0.00    +0.000 NA
ATOM     10  H   UNL     1       7.939   6.420  15.539  0.00  0.00    +0.000 HD
BRANCH   9  12
ATOM     11  C   UNL     1       6.291   3.890  14.499  0.00  0.00    +0.000 C 
ATOM     12  C   UNL     1       6.325   5.365  14.867  0.00  0.00    +0.000 C 
ENDBRANCH   9  12
ENDBRANCH   8   9
BRANCH   8  13
ATOM     13  C   UNL     1       7.783   6.858  18.002  0.00  0.00    +0.000 C 
ATOM     14  C   UNL     1       7.691   8.323  17.594  0.00  0.00    +0.000 C 
ENDBRANCH   8  13
ENDBRANCH   7   8
ENDBRANCH   1   7
BRANCH   4  15
ATOM     15  S   UNL     1       0.993   2.860  19.326  0.00  0.00    +0.000 S 
BRANCH  15  16
ATOM     16  C   UNL     1       1.539   2.467  21.020  0.00  0.00    +0.000 C 
ATOM     17  C   UNL     1       2.137   3.706  21.668  0.00  0.00    +0.000 C 
ENDBRANCH  15  16
ENDBRANCH   4  15
TORSDOF 7
ENDMDL
MODEL 4
REMARK VINA RESULT:      -5.9      1.188      2.675
REMARK  Name = 
REMARK  10 active torsions:
REMARK  status: ('A' for Active; 'I' for Inactive)
REMARK    1  A    between atoms: C_1  and  C_2
REMARK    2  A    between atoms: C_2  and  N_3
REMARK    3  A    between atoms: N_3  and  C_4
REMARK    4  A    between atoms: C_4  and  C_5
REMARK    5  A    between atoms: C_4  and  C_7
REMARK    6  A    between atoms: C_5  and  C_6
REMARK    7  A    between atoms: C_7  and  C_8
REMARK    8  A    between atoms: C_11  and  S_12
REMARK    9  A    between atoms: S_12  and  C_13
REMARK   10  A    between atoms: C_13  and  C_14
REMARK                            x       y       z     vdW  Elec       q    Type
REMARK                         _______ _______ _______ _____ _____    ______ ____
ROOT
ATOM      1  C   UNL     1       4.242   4.203  16.860  0.00  0.00    +0.000 A 
ATOM      2  C   UNL     1       4.010   5.487  17.367  0.00  0.00    +0.000 A 
ATOM      3  C   UNL     1       3.112   5.684  18.424  0.00  0.00    +0.000 A 
ATOM      4  C   UNL     1       2.419   4.602  18.976  0.00  0.00    +0.000 A 
ATOM      5  C   UNL     1       2.631   3.326  18.452  0.00  0.00    +0.000 A 
ATOM      6  C   UNL     1       3.532   3.128  17.401  0.00  0.00    +0.000 A 
ENDROOT
BRANCH   1   7
ATOM      7  C   UNL     1       5.252   3.974  15.751  0.00  0.00    +0.000 C 
BRANCH   7   8
ATOM      8  C   UNL     1       6.528   4.860  15.834  0.00  0.00    +0.000 C 
BRANCH   8   9
ATOM      9  N   UNL     1       7.481   4.315  16.823  0.00  0.00    +0.000 NA
ATOM     10  H   UNL     1       7.190   3.367  17.073  0.00  0.00    +0.000 HD
BRANCH   9  12
ATOM     11  C   UNL     1       7.458   6.602  17.704  0.00  0.00    +0.000 C 
ATOM     12  C   UNL     1       7.583   5.123  18.038  0.00  0.00    +0.000 C 
ENDBRANCH   9  12
ENDBRANCH   8   9
BRANCH   8  13
ATOM     13  C   UNL     1       7.158   5.017  14.429  0.00  0.00    +0.000 C 
ATOM     14  C   UNL     1       6.585   4.092  13.361  0.00  0.00    +0.000 C 
ENDBRANCH   8  13
ENDBRANCH   7   8
ENDBRANCH   1   7
BRANCH   4  15
ATOM     15  S   UNL     1       1.351   4.800  20.393  0.00  0.00    +0.000 S 
BRANCH  15  16
ATOM     16  C   UNL     1       1.153   3.065  20.914  0.00  0.00    +0.000 C 
ATOM     17  C   UNL     1       2.278   2.681  21.863  0.00  0.00    +0.000 C 
ENDBRANCH  15  16
ENDBRANCH   4  15
TORSDOF 7
ENDMDL
MODEL 5
REMARK VINA RESULT:      -5.9      1.517      2.248
REMARK  Name = 
REMARK  10 active torsions:
REMARK  status: ('A' for Active; 'I' for Inactive)
REMARK    1  A    between atoms: C_1  and  C_2
REMARK    2  A    between atoms: C_2  and  N_3
REMARK    3  A    between atoms: N_3  and  C_4
REMARK    4  A    between atoms: C_4  and  C_5
REMARK    5  A    between atoms: C_4  and  C_7
REMARK    6  A    between atoms: C_5  and  C_6
REMARK    7  A    between atoms: C_7  and  C_8
REMARK    8  A    between atoms: C_11  and  S_12
REMARK    9  A    between atoms: S_12  and  C_13
REMARK   10  A    between atoms: C_13  and  C_14
REMARK                            x       y       z     vdW  Elec       q    Type
REMARK                         _______ _______ _______ _____ _____    ______ ____
ROOT
ATOM      1  C   UNL     1       4.340   5.523  17.059  0.00  0.00    +0.000 A 
ATOM      2  C   UNL     1       3.329   6.039  17.878  0.00  0.00    +0.000 A 
ATOM      3  C   UNL     1       2.340   5.198  18.405  0.00  0.00    +0.000 A 
ATOM      4  C   UNL     1       2.337   3.833  18.104  0.00  0.00    +0.000 A 
ATOM      5  C   UNL     1       3.330   3.323  17.265  0.00  0.00    +0.000 A 
ATOM      6  C   UNL     1       4.320   4.162  16.744  0.00  0.00    +0.000 A 
ENDROOT
BRANCH   1   7
ATOM      7  C   UNL     1       5.444   6.417  16.526  0.00  0.00    +0.000 C 
BRANCH   7   8
ATOM      8  C   UNL     1       6.849   6.156  17.139  0.00  0.00    +0.000 C 
BRANCH   8   9
ATOM      9  N   UNL     1       7.753   7.297  16.884  0.00  0.00    +0.000 NA
ATOM     10  H   UNL     1       8.689   7.056  17.216  0.00  0.00    +0.000 HD
BRANCH   9  12
ATOM     11  C   UNL     1       8.494   9.222  18.208  0.00  0.00    +0.000 C 
ATOM     12  C   UNL     1       7.319   8.536  17.529  0.00  0.00    +0.000 C 
ENDBRANCH   9  12
ENDBRANCH   8   9
BRANCH   8  13
ATOM     13  C   UNL     1       6.719   5.829  18.647  0.00  0.00    +0.000 C 
ATOM     14  C   UNL     1       8.040   5.584  19.366  0.00  0.00    +0.000 C 
ENDBRANCH   8  13
ENDBRANCH   7   8
ENDBRANCH   1   7
BRANCH   4  15
ATOM     15  S   UNL     1       1.159   2.714  18.845  0.00  0.00    +0.000 S 
BRANCH  15  16
ATOM     16  C   UNL     1       0.939   3.486  20.481  0.00  0.00    +0.000 C 
ATOM     17  C   UNL     1       1.908   2.867  21.476  0.00  0.00    +0.000 C 
ENDBRANCH  15  16
ENDBRANCH   4  15
TORSDOF 7
ENDMDL
MODEL 6
REMARK VINA RESULT:      -5.8      1.511      1.904
REMARK  Name = 
REMARK  10 active torsions:
REMARK  status: ('A' for Active; 'I' for Inactive)
REMARK    1  A    between atoms: C_1  and  C_2
REMARK    2  A    between atoms: C_2  and  N_3
REMARK    3  A    between atoms: N_3  and  C_4
REMARK    4  A    between atoms: C_4  and  C_5
REMARK    5  A    between atoms: C_4  and  C_7
REMARK    6  A    between atoms: C_5  and  C_6
REMARK    7  A    between atoms: C_7  and  C_8
REMARK    8  A    between atoms: C_11  and  S_12
REMARK    9  A    between atoms: S_12  and  C_13
REMARK   10  A    between atoms: C_13  and  C_14
REMARK                            x       y       z     vdW  Elec       q    Type
REMARK                         _______ _______ _______ _____ _____    ______ ____
ROOT
ATOM      1  C   UNL     1       5.437   4.998  18.885  0.00  0.00    +0.000 A 
ATOM      2  C   UNL     1       4.417   5.700  18.232  0.00  0.00    +0.000 A 
ATOM      3  C   UNL     1       3.170   5.101  18.007  0.00  0.00    +0.000 A 
ATOM      4  C   UNL     1       2.934   3.785  18.413  0.00  0.00    +0.000 A 
ATOM      5  C   UNL     1       3.960   3.076  19.039  0.00  0.00    +0.000 A 
ATOM      6  C   UNL     1       5.202   3.675  19.270  0.00  0.00    +0.000 A 
ENDROOT
BRANCH   1   7
ATOM      7  C   UNL     1       6.771   5.656  19.180  0.00  0.00    +0.000 C 
BRANCH   7   8
ATOM      8  C   UNL     1       7.710   5.811  17.950  0.00  0.00    +0.000 C 
BRANCH   8   9
ATOM      9  N   UNL     1       7.599   4.641  17.054  0.00  0.00    +0.000 NA
ATOM     10  H   UNL     1       8.524   4.218  16.949  0.00  0.00    +0.000 HD
BRANCH   9  12
ATOM     11  C   UNL     1       6.006   3.960  15.321  0.00  0.00    +0.000 C 
ATOM     12  C   UNL     1       7.067   4.970  15.732  0.00  0.00    +0.000 C 
ENDBRANCH   9  12
ENDBRANCH   8   9
BRANCH   8  13
ATOM     13  C   UNL     1       7.415   7.145  17.220  0.00  0.00    +0.000 C 
ATOM     14  C   UNL     1       8.046   8.378  17.857  0.00  0.00    +0.000 C 
ENDBRANCH   8  13
ENDBRANCH   7   8
ENDBRANCH   1   7
BRANCH   4  15
ATOM     15  S   UNL     1       1.326   3.027  18.240  0.00  0.00    +0.000 S 
BRANCH  15  16
ATOM     16  C   UNL     1       0.811   2.920  19.985  0.00  0.00    +0.000 C 
ATOM     17  C   UNL     1       1.057   4.252  20.676  0.00  0.00    +0.000 C 
ENDBRANCH  15  16
ENDBRANCH   4  15
TORSDOF 7
ENDMDL
MODEL 7
REMARK VINA RESULT:      -5.8      1.638      2.189
REMARK  Name = 
REMARK  10 active torsions:
REMARK  status: ('A' for Active; 'I' for Inactive)
REMARK    1  A    between atoms: C_1  and  C_2
REMARK    2  A    between atoms: C_2  and  N_3
REMARK    3  A    between atoms: N_3  and  C_4
REMARK    4  A    between atoms: C_4  and  C_5
REMARK    5  A    between atoms: C_4  and  C_7
REMARK    6  A    between atoms: C_5  and  C_6
REMARK    7  A    between atoms: C_7  and  C_8
REMARK    8  A    between atoms: C_11  and  S_12
REMARK    9  A    between atoms: S_12  and  C_13
REMARK   10  A    between atoms: C_13  and  C_14
REMARK                            x       y       z     vdW  Elec       q    Type
REMARK                         _______ _______ _______ _____ _____    ______ ____
ROOT
ATOM      1  C   UNL     1       4.341   5.928  17.130  0.00  0.00    +0.000 A 
ATOM      2  C   UNL     1       3.342   6.399  17.990  0.00  0.00    +0.000 A 
ATOM      3  C   UNL     1       2.376   5.525  18.506  0.00  0.00    +0.000 A 
ATOM      4  C   UNL     1       2.385   4.172  18.153  0.00  0.00    +0.000 A 
ATOM      5  C   UNL     1       3.365   3.709  17.274  0.00  0.00    +0.000 A 
ATOM      6  C   UNL     1       4.333   4.580  16.763  0.00  0.00    +0.000 A 
ENDROOT
BRANCH   1   7
ATOM      7  C   UNL     1       5.421   6.858  16.608  0.00  0.00    +0.000 C 
BRANCH   7   8
ATOM      8  C   UNL     1       6.738   6.861  17.436  0.00  0.00    +0.000 C 
BRANCH   8   9
ATOM      9  N   UNL     1       7.590   5.710  17.072  0.00  0.00    +0.000 NA
ATOM     10  H   UNL     1       7.192   5.252  16.249  0.00  0.00    +0.000 HD
BRANCH   9  12
ATOM     11  C   UNL     1       7.246   5.312  19.466  0.00  0.00    +0.000 C 
ATOM     12  C   UNL     1       7.728   4.728  18.148  0.00  0.00    +0.000 C 
ENDBRANCH   9  12
ENDBRANCH   8   9
BRANCH   8  13
ATOM     13  C   UNL     1       7.469   8.215  17.266  0.00  0.00    +0.000 C 
ATOM     14  C   UNL     1       8.428   8.572  18.396  0.00  0.00    +0.000 C 
ENDBRANCH   8  13
ENDBRANCH   7   8
ENDBRANCH   1   7
BRANCH   4  15
ATOM     15  S   UNL     1       1.238   3.010  18.876  0.00  0.00    +0.000 S 
BRANCH  15  16
ATOM     16  C   UNL     1       1.059   3.706  20.551  0.00  0.00    +0.000 C 
ATOM     17  C   UNL     1       1.579   2.713  21.578  0.00  0.00    +0.000 C 
ENDBRANCH  15  16
ENDBRANCH   4  15
TORSDOF 7
ENDMDL
MODEL 8
REMARK VINA RESULT:      -5.8      0.941      1.542
REMARK  Name = 
REMARK  10 active torsions:
REMARK  status: ('A' for Active; 'I' for Inactive)
REMARK    1  A    between atoms: C_1  and  C_2
REMARK    2  A    between atoms: C_2  and  N_3
REMARK    3  A    between atoms: N_3  and  C_4
REMARK    4  A    between atoms: C_4  and  C_5
REMARK    5  A    between atoms: C_4  and  C_7
REMARK    6  A    between atoms: C_5  and  C_6
REMARK    7  A    between atoms: C_7  and  C_8
REMARK    8  A    between atoms: C_11  and  S_12
REMARK    9  A    between atoms: S_12  and  C_13
REMARK   10  A    between atoms: C_13  and  C_14
REMARK                            x       y       z     vdW  Elec       q    Type
REMARK                         _______ _______ _______ _____ _____    ______ ____
ROOT
ATOM      1  C   UNL     1       4.048   5.789  17.310  0.00  0.00    +0.000 A 
ATOM      2  C   UNL     1       3.755   4.420  17.329  0.00  0.00    +0.000 A 
ATOM      3  C   UNL     1       2.801   3.908  18.219  0.00  0.00    +0.000 A 
ATOM      4  C   UNL     1       2.144   4.754  19.116  0.00  0.00    +0.000 A 
ATOM      5  C   UNL     1       2.457   6.114  19.116  0.00  0.00    +0.000 A 
ATOM      6  C   UNL     1       3.404   6.627  18.223  0.00  0.00    +0.000 A 
ENDROOT
BRANCH   1   7
ATOM      7  C   UNL     1       5.041   6.359  16.314  0.00  0.00    +0.000 C 
BRANCH   7   8
ATOM      8  C   UNL     1       6.455   5.714  16.358  0.00  0.00    +0.000 C 
BRANCH   8   9
ATOM      9  N   UNL     1       6.899   5.332  15.001  0.00  0.00    +0.000 NA
ATOM     10  H   UNL     1       6.553   6.024  14.334  0.00  0.00    +0.000 HD
BRANCH   9  12
ATOM     11  C   UNL     1       6.398   3.898  13.078  0.00  0.00    +0.000 C 
ATOM     12  C   UNL     1       6.445   4.002  14.595  0.00  0.00    +0.000 C 
ENDBRANCH   9  12
ENDBRANCH   8   9
BRANCH   8  13
ATOM     13  C   UNL     1       7.453   6.667  17.061  0.00  0.00    +0.000 C 
ATOM     14  C   UNL     1       7.701   6.363  18.534  0.00  0.00    +0.000 C 
ENDBRANCH   8  13
ENDBRANCH   7   8
ENDBRANCH   1   7
BRANCH   4  15
ATOM     15  S   UNL     1       0.847   4.155  20.188  0.00  0.00    +0.000 S 
BRANCH  15  16
ATOM     16  C   UNL     1       1.495   2.506  20.616  0.00  0.00    +0.000 C 
ATOM     17  C   UNL     1       2.529   2.632  21.725  0.00  0.00    +0.000 C 
ENDBRANCH  15  16
ENDBRANCH   4  15
TORSDOF 7
ENDMDL
MODEL 9
REMARK VINA RESULT:      -5.8      3.290      6.027
REMARK  Name = 
REMARK  10 active torsions:
REMARK  status: ('A' for Active; 'I' for Inactive)
REMARK    1  A    between atoms: C_1  and  C_2
REMARK    2  A    between atoms: C_2  and  N_3
REMARK    3  A    between atoms: N_3  and  C_4
REMARK    4  A    between atoms: C_4  and  C_5
REMARK    5  A    between atoms: C_4  and  C_7
REMARK    6  A    between atoms: C_5  and  C_6
REMARK    7  A    between atoms: C_7  and  C_8
REMARK    8  A    between atoms: C_11  and  S_12
REMARK    9  A    between atoms: S_12  and  C_13
REMARK   10  A    between atoms: C_13  and  C_14
REMARK                            x       y       z     vdW  Elec       q    Type
REMARK                         _______ _______ _______ _____ _____    ______ ____
ROOT
ATOM      1  C   UNL     1       2.938   5.576  19.521  0.00  0.00    +0.000 A 
ATOM      2  C   UNL     1       2.821   6.478  18.457  0.00  0.00    +0.000 A 
ATOM      3  C   UNL     1       3.918   6.752  17.631  0.00  0.00    +0.000 A 
ATOM      4  C   UNL     1       5.154   6.144  17.870  0.00  0.00    +0.000 A 
ATOM      5  C   UNL     1       5.278   5.265  18.947  0.00  0.00    +0.000 A 
ATOM      6  C   UNL     1       4.181   4.987  19.769  0.00  0.00    +0.000 A 
ENDROOT
BRANCH   1   7
ATOM      7  C   UNL     1       1.741   5.234  20.388  0.00  0.00    +0.000 C 
BRANCH   7   8
ATOM      8  C   UNL     1       0.931   3.991  19.923  0.00  0.00    +0.000 C 
BRANCH   8   9
ATOM      9  N   UNL     1       1.299   3.609  18.544  0.00  0.00    +0.000 NA
ATOM     10  H   UNL     1       0.511   3.811  17.925  0.00  0.00    +0.000 HD
BRANCH   9  12
ATOM     11  C   UNL     1       3.075   2.070  17.846  0.00  0.00    +0.000 C 
ATOM     12  C   UNL     1       1.668   2.200  18.411  0.00  0.00    +0.000 C 
ENDBRANCH   9  12
ENDBRANCH   8   9
BRANCH   8  13
ATOM     13  C   UNL     1       1.117   2.828  20.929  0.00  0.00    +0.000 C 
ATOM     14  C   UNL     1       2.202   3.053  21.976  0.00  0.00    +0.000 C 
ENDBRANCH   8  13
ENDBRANCH   7   8
ENDBRANCH   1   7
BRANCH   4  15
ATOM     15  S   UNL     1       6.543   6.386  16.774  0.00  0.00    +0.000 S 
BRANCH  15  16
ATOM     16  C   UNL     1       7.779   7.056  17.935  0.00  0.00    +0.000 C 
ATOM     17  C   UNL     1       7.908   8.558  17.737  0.00  0.00    +0.000 C 
ENDBRANCH  15  16
ENDBRANCH   4  15
TORSDOF 7
ENDMDL
