MODEL 1
REMARK VINA RESULT:      -8.6      0.000      0.000
REMARK  Name = 
REMARK  8 active torsions:
REMARK  status: ('A' for Active; 'I' for Inactive)
REMARK    1  A    between atoms: N_1  and  S_2
REMARK    2  A    between atoms: S_2  and  C_5
REMARK    3  A    between atoms: C_10  and  C_11
REMARK    4  A    between atoms: C_14  and  C_15
REMARK    5  A    between atoms: N_17  and  C_18
REMARK    6  A    between atoms: C_18  and  C_19
REMARK    7  A    between atoms: C_19  and  N_20
REMARK    8  A    between atoms: C_21  and  C_23
REMARK                            x       y       z     vdW  Elec       q    Type
REMARK                         _______ _______ _______ _____ _____    ______ ____
ROOT
ATOM      1  C   UNL     1       2.969   6.682  18.574  0.00  0.00    +0.000 A 
ATOM      2  C   UNL     1       2.445   7.929  18.202  0.00  0.00    +0.000 A 
ATOM      3  C   UNL     1       1.573   8.649  19.024  0.00  0.00    +0.000 A 
ATOM      4  C   UNL     1       1.286   8.201  20.309  0.00  0.00    +0.000 A 
ATOM      5  C   UNL     1       1.891   7.025  20.754  0.00  0.00    +0.000 A 
ATOM      6  C   UNL     1       2.702   6.275  19.893  0.00  0.00    +0.000 A 
ENDROOT
BRANCH   1  12
ATOM      7  C   UNL     1       3.578   4.426  17.426  0.00  0.00    +0.000 A 
ATOM      8  C   UNL     1       4.410   3.731  16.518  0.00  0.00    +0.000 A 
ATOM      9  C   UNL     1       5.446   4.367  15.850  0.00  0.00    +0.000 A 
ATOM     10  C   UNL     1       5.659   5.716  16.065  0.00  0.00    +0.000 A 
ATOM     11  C   UNL     1       4.823   6.420  16.935  0.00  0.00    +0.000 A 
ATOM     12  C   UNL     1       3.752   5.816  17.648  0.00  0.00    +0.000 A 
BRANCH   7  13
ATOM     13  S   UNL     1       2.344   3.403  18.221  0.00  0.00    +0.000 S 
ATOM     14  O   UNL     1       1.006   3.796  17.864  0.00  0.00    +0.000 OA
ATOM     15  O   UNL     1       2.709   3.238  19.610  0.00  0.00    +0.000 OA
BRANCH  13  16
ATOM     16  N   UNL     1       2.682   1.889  17.529  0.00  0.00    +0.000 NA
ATOM     17  H   UNL     1       3.481   1.987  16.901  0.00  0.00    +0.000 HD
ATOM     18  H   UNL     1       1.873   1.550  17.005  0.00  0.00    +0.000 HD
ENDBRANCH  13  16
ENDBRANCH   7  13
ENDBRANCH   1  12
BRANCH   4  19
ATOM     19  C   UNL     1       0.363   9.020  21.144  0.00  0.00    +0.000 C 
ATOM     20  O   UNL     1      -0.657   8.522  21.631  0.00  0.00    +0.000 OA
ATOM     21  N   UNL     1       0.700  10.341  21.343  0.00  0.00    +0.000 N 
ATOM     22  H   UNL     1       1.606  10.691  21.077  0.00  0.00    +0.000 HD
BRANCH  21  23
ATOM     23  C   UNL     1      -0.123  11.215  22.148  0.00  0.00    +0.000 C 
BRANCH  23  24
ATOM     24  C   UNL     1      -0.540  12.468  21.377  0.00  0.00    +0.000 C 
BRANCH  24  25
ATOM     25  N   UNL     1      -1.563  12.194  20.387  0.00  0.00    +0.000 N 
ATOM     26  C   UNL     1      -1.231  11.893  19.084  0.00  0.00    +0.000 C 
ATOM     27  O   UNL     1      -0.077  11.834  18.678  0.00  0.00    +0.000 OA
ATOM     28  H   UNL     1      -2.507  12.050  20.720  0.00  0.00    +0.000 HD
BRANCH  26  29
ATOM     29  C   UNL     1      -2.361  11.616  18.158  0.00  0.00    +0.000 A 
ATOM     30  C   UNL     1      -3.668  11.821  18.623  0.00  0.00    +0.000 A 
ATOM     31  C   UNL     1      -4.760  11.537  17.801  0.00  0.00    +0.000 A 
ATOM     32  C   UNL     1      -4.549  11.036  16.516  0.00  0.00    +0.000 A 
ATOM     33  C   UNL     1      -3.248  10.825  16.058  0.00  0.00    +0.000 A 
ATOM     34 CL   UNL     1      -2.995  10.187  14.479  0.00  0.00    +0.000 Cl
ATOM     35  C   UNL     1      -2.150  11.113  16.869  0.00  0.00    +0.000 A 
ENDBRANCH  26  29
ENDBRANCH  24  25
ENDBRANCH  23  24
ENDBRANCH  21  23
ENDBRANCH   4  19
TORSDOF 8
ENDMDL
MODEL 2
REMARK VINA RESULT:      -8.5      0.954      1.298
REMARK  Name = 
REMARK  8 active torsions:
REMARK  status: ('A' for Active; 'I' for Inactive)
REMARK    1  A    between atoms: N_1  and  S_2
REMARK    2  A    between atoms: S_2  and  C_5
REMARK    3  A    between atoms: C_10  and  C_11
REMARK    4  A    between atoms: C_14  and  C_15
REMARK    5  A    between atoms: N_17  and  C_18
REMARK    6  A    between atoms: C_18  and  C_19
REMARK    7  A    between atoms: C_19  and  N_20
REMARK    8  A    between atoms: C_21  and  C_23
REMARK                            x       y       z     vdW  Elec       q    Type
REMARK                         _______ _______ _______ _____ _____    ______ ____
ROOT
ATOM      1  C   UNL     1       2.916   6.855  18.319  0.00  0.00    +0.000 A 
ATOM      2  C   UNL     1       2.481   6.676  19.641  0.00  0.00    +0.000 A 
ATOM      3  C   UNL     1       1.790   7.668  20.341  0.00  0.00    +0.000 A 
ATOM      4  C   UNL     1       1.399   8.840  19.701  0.00  0.00    +0.000 A 
ATOM      5  C   UNL     1       1.710   8.994  18.349  0.00  0.00    +0.000 A 
ATOM      6  C   UNL     1       2.468   8.025  17.681  0.00  0.00    +0.000 A 
ENDROOT
BRANCH   1  12
ATOM      7  C   UNL     1       3.598   4.495  17.458  0.00  0.00    +0.000 A 
ATOM      8  C   UNL     1       4.540   3.698  16.767  0.00  0.00    +0.000 A 
ATOM      9  C   UNL     1       5.713   4.238  16.260  0.00  0.00    +0.000 A 
ATOM     10  C   UNL     1       5.958   5.589  16.419  0.00  0.00    +0.000 A 
ATOM     11  C   UNL     1       5.018   6.391  17.070  0.00  0.00    +0.000 A 
ATOM     12  C   UNL     1       3.805   5.889  17.614  0.00  0.00    +0.000 A 
BRANCH   7  13
ATOM     13  S   UNL     1       2.186   3.587  18.080  0.00  0.00    +0.000 S 
ATOM     14  O   UNL     1       0.952   4.044  17.496  0.00  0.00    +0.000 OA
ATOM     15  O   UNL     1       2.312   3.468  19.515  0.00  0.00    +0.000 OA
BRANCH  13  16
ATOM     16  N   UNL     1       2.528   2.025  17.509  0.00  0.00    +0.000 NA
ATOM     17  H   UNL     1       3.005   1.503  18.246  0.00  0.00    +0.000 HD
ATOM     18  H   UNL     1       3.124   2.072  16.680  0.00  0.00    +0.000 HD
ENDBRANCH  13  16
ENDBRANCH   7  13
ENDBRANCH   1  12
BRANCH   4  19
ATOM     19  C   UNL     1       0.650   9.854  20.496  0.00  0.00    +0.000 C 
ATOM     20  O   UNL     1      -0.374   9.541  21.112  0.00  0.00    +0.000 OA
ATOM     21  N   UNL     1       1.150  11.137  20.509  0.00  0.00    +0.000 N 
ATOM     22  H   UNL     1       2.063  11.342  20.137  0.00  0.00    +0.000 HD
BRANCH  21  23
ATOM     23  C   UNL     1       0.503  12.189  21.260  0.00  0.00    +0.000 C 
BRANCH  23  24
ATOM     24  C   UNL     1      -0.001  13.308  20.348  0.00  0.00    +0.000 C 
BRANCH  24  25
ATOM     25  N   UNL     1      -0.934  12.828  19.348  0.00  0.00    +0.000 N 
ATOM     26  C   UNL     1      -2.198  12.404  19.697  0.00  0.00    +0.000 C 
ATOM     27  O   UNL     1      -2.615  12.405  20.849  0.00  0.00    +0.000 OA
ATOM     28  H   UNL     1      -0.698  12.984  18.377  0.00  0.00    +0.000 HD
BRANCH  26  29
ATOM     29  C   UNL     1      -3.075  11.945  18.588  0.00  0.00    +0.000 A 
ATOM     30  C   UNL     1      -4.462  11.956  18.790  0.00  0.00    +0.000 A 
ATOM     31  C   UNL     1      -5.322  11.496  17.791  0.00  0.00    +0.000 A 
ATOM     32  C   UNL     1      -4.798  11.015  16.591  0.00  0.00    +0.000 A 
ATOM     33  C   UNL     1      -3.416  10.998  16.395  0.00  0.00    +0.000 A 
ATOM     34 CL   UNL     1      -2.774  10.383  14.921  0.00  0.00    +0.000 Cl
ATOM     35  C   UNL     1      -2.549  11.461  17.384  0.00  0.00    +0.000 A 
ENDBRANCH  26  29
ENDBRANCH  24  25
ENDBRANCH  23  24
ENDBRANCH  21  23
ENDBRANCH   4  19
TORSDOF 8
ENDMDL
MODEL 3
REMARK VINA RESULT:      -8.3      0.980      1.282
REMARK  Name = 
REMARK  8 active torsions:
REMARK  status: ('A' for Active; 'I' for Inactive)
REMARK    1  A    between atoms: N_1  and  S_2
REMARK    2  A    between atoms: S_2  and  C_5
REMARK    3  A    between atoms: C_10  and  C_11
REMARK    4  A    between atoms: C_14  and  C_15
REMARK    5  A    between atoms: N_17  and  C_18
REMARK    6  A    between atoms: C_18  and  C_19
REMARK    7  A    between atoms: C_19  and  N_20
REMARK    8  A    between atoms: C_21  and  C_23
REMARK                            x       y       z     vdW  Elec       q    Type
REMARK                         _______ _______ _______ _____ _____    ______ ____
ROOT
ATOM      1  C   UNL     1       3.157   6.642  18.393  0.00  0.00    +0.000 A 
ATOM      2  C   UNL     1       2.629   7.908  18.098  0.00  0.00    +0.000 A 
ATOM      3  C   UNL     1       1.742   8.566  18.953  0.00  0.00    +0.000 A 
ATOM      4  C   UNL     1       1.441   8.032  20.202  0.00  0.00    +0.000 A 
ATOM      5  C   UNL     1       2.049   6.833  20.576  0.00  0.00    +0.000 A 
ATOM      6  C   UNL     1       2.877   6.147  19.680  0.00  0.00    +0.000 A 
ENDROOT
BRANCH   1  12
ATOM      7  C   UNL     1       4.063   4.431  17.360  0.00  0.00    +0.000 A 
ATOM      8  C   UNL     1       4.877   3.810  16.383  0.00  0.00    +0.000 A 
ATOM      9  C   UNL     1       5.631   4.556  15.488  0.00  0.00    +0.000 A 
ATOM     10  C   UNL     1       5.573   5.936  15.542  0.00  0.00    +0.000 A 
ATOM     11  C   UNL     1       4.747   6.558  16.481  0.00  0.00    +0.000 A 
ATOM     12  C   UNL     1       3.960   5.844  17.423  0.00  0.00    +0.000 A 
BRANCH   7  13
ATOM     13  S   UNL     1       3.223   3.287  18.449  0.00  0.00    +0.000 S 
ATOM     14  O   UNL     1       1.792   3.351  18.299  0.00  0.00    +0.000 OA
ATOM     15  O   UNL     1       3.823   3.376  19.761  0.00  0.00    +0.000 OA
BRANCH  13  16
ATOM     16  N   UNL     1       3.779   1.799  17.847  0.00  0.00    +0.000 NA
ATOM     17  H   UNL     1       4.798   1.784  17.899  0.00  0.00    +0.000 HD
ATOM     18  H   UNL     1       3.481   1.675  16.877  0.00  0.00    +0.000 HD
ENDBRANCH  13  16
ENDBRANCH   7  13
ENDBRANCH   1  12
BRANCH   4  19
ATOM     19  C   UNL     1       0.501   8.789  21.077  0.00  0.00    +0.000 C 
ATOM     20  O   UNL     1      -0.512   8.248  21.530  0.00  0.00    +0.000 OA
ATOM     21  N   UNL     1       0.816  10.102  21.350  0.00  0.00    +0.000 N 
ATOM     22  H   UNL     1       1.717  10.481  21.109  0.00  0.00    +0.000 HD
BRANCH  21  23
ATOM     23  C   UNL     1      -0.025  10.916  22.199  0.00  0.00    +0.000 C 
BRANCH  23  24
ATOM     24  C   UNL     1      -0.560  12.141  21.456  0.00  0.00    +0.000 C 
BRANCH  24  25
ATOM     25  N   UNL     1      -1.487  11.786  20.399  0.00  0.00    +0.000 N 
ATOM     26  C   UNL     1      -1.050  11.566  19.111  0.00  0.00    +0.000 C 
ATOM     27  O   UNL     1       0.125  11.650  18.774  0.00  0.00    +0.000 OA
ATOM     28  H   UNL     1      -2.426  11.527  20.671  0.00  0.00    +0.000 HD
BRANCH  26  29
ATOM     29  C   UNL     1      -2.086  11.194  18.112  0.00  0.00    +0.000 A 
ATOM     30  C   UNL     1      -1.754  10.250  17.130  0.00  0.00    +0.000 A 
ATOM     31  C   UNL     1      -2.682   9.900  16.148  0.00  0.00    +0.000 A 
ATOM     32  C   UNL     1      -3.941  10.500  16.138  0.00  0.00    +0.000 A 
ATOM     33  C   UNL     1      -4.267  11.445  17.112  0.00  0.00    +0.000 A 
ATOM     34 CL   UNL     1      -5.815  12.198  17.082  0.00  0.00    +0.000 Cl
ATOM     35  C   UNL     1      -3.349  11.797  18.101  0.00  0.00    +0.000 A 
ENDBRANCH  26  29
ENDBRANCH  24  25
ENDBRANCH  23  24
ENDBRANCH  21  23
ENDBRANCH   4  19
TORSDOF 8
ENDMDL
MODEL 4
REMARK VINA RESULT:      -8.2      2.199      2.723
REMARK  Name = 
REMARK  8 active torsions:
REMARK  status: ('A' for Active; 'I' for Inactive)
REMARK    1  A    between atoms: N_1  and  S_2
REMARK    2  A    between atoms: S_2  and  C_5
REMARK    3  A    between atoms: C_10  and  C_11
REMARK    4  A    between atoms: C_14  and  C_15
REMARK    5  A    between atoms: N_17  and  C_18
REMARK    6  A    between atoms: C_18  and  C_19
REMARK    7  A    between atoms: C_19  and  N_20
REMARK    8  A    between atoms: C_21  and  C_23
REMARK                            x       y       z     vdW  Elec       q    Type
REMARK                         _______ _______ _______ _____ _____    ______ ____
ROOT
ATOM      1  C   UNL     1       2.381   6.352  18.841  0.00  0.00    +0.000 A 
ATOM      2  C   UNL     1       2.335   7.347  17.854  0.00  0.00    +0.000 A 
ATOM      3  C   UNL     1       1.890   8.645  18.120  0.00  0.00    +0.000 A 
ATOM      4  C   UNL     1       1.586   9.032  19.422  0.00  0.00    +0.000 A 
ATOM      5  C   UNL     1       1.740   8.097  20.446  0.00  0.00    +0.000 A 
ATOM      6  C   UNL     1       2.115   6.780  20.154  0.00  0.00    +0.000 A 
ENDROOT
BRANCH   1  12
ATOM      7  C   UNL     1       3.955   4.345  18.323  0.00  0.00    +0.000 A 
ATOM      8  C   UNL     1       4.084   2.964  18.043  0.00  0.00    +0.000 A 
ATOM      9  C   UNL     1       2.973   2.140  17.933  0.00  0.00    +0.000 A 
ATOM     10  C   UNL     1       1.713   2.678  18.119  0.00  0.00    +0.000 A 
ATOM     11  C   UNL     1       1.577   4.033  18.429  0.00  0.00    +0.000 A 
ATOM     12  C   UNL     1       2.679   4.922  18.547  0.00  0.00    +0.000 A 
BRANCH   7  13
ATOM     13  S   UNL     1       5.509   5.232  18.362  0.00  0.00    +0.000 S 
ATOM     14  O   UNL     1       5.854   5.657  19.694  0.00  0.00    +0.000 OA
ATOM     15  O   UNL     1       5.525   6.178  17.270  0.00  0.00    +0.000 OA
BRANCH  13  16
ATOM     16  N   UNL     1       6.589   4.018  17.868  0.00  0.00    +0.000 NA
ATOM     17  H   UNL     1       7.312   3.912  18.580  0.00  0.00    +0.000 HD
ATOM     18  H   UNL     1       7.019   4.269  16.975  0.00  0.00    +0.000 HD
ENDBRANCH  13  16
ENDBRANCH   7  13
ENDBRANCH   1  12
BRANCH   4  19
ATOM     19  C   UNL     1       1.132  10.434  19.645  0.00  0.00    +0.000 C 
ATOM     20  O   UNL     1       0.890  11.178  18.690  0.00  0.00    +0.000 OA
ATOM     21  N   UNL     1       0.999  10.851  20.952  0.00  0.00    +0.000 N 
ATOM     22  H   UNL     1       1.045  10.193  21.714  0.00  0.00    +0.000 HD
BRANCH  21  23
ATOM     23  C   UNL     1       0.553  12.187  21.274  0.00  0.00    +0.000 C 
BRANCH  23  24
ATOM     24  C   UNL     1      -0.935  12.218  21.623  0.00  0.00    +0.000 C 
BRANCH  24  25
ATOM     25  N   UNL     1      -1.780  12.008  20.464  0.00  0.00    +0.000 N 
ATOM     26  C   UNL     1      -3.092  12.429  20.453  0.00  0.00    +0.000 C 
ATOM     27  O   UNL     1      -3.626  12.999  21.397  0.00  0.00    +0.000 OA
ATOM     28  H   UNL     1      -1.331  11.713  19.607  0.00  0.00    +0.000 HD
BRANCH  26  29
ATOM     29  C   UNL     1      -3.861  12.174  19.206  0.00  0.00    +0.000 A 
ATOM     30  C   UNL     1      -5.246  12.392  19.223  0.00  0.00    +0.000 A 
ATOM     31  C   UNL     1      -6.013  12.128  18.087  0.00  0.00    +0.000 A 
ATOM     32  C   UNL     1      -5.401  11.636  16.935  0.00  0.00    +0.000 A 
ATOM     33  C   UNL     1      -4.023  11.413  16.922  0.00  0.00    +0.000 A 
ATOM     34 CL   UNL     1      -3.277  10.785  15.504  0.00  0.00    +0.000 Cl
ATOM     35  C   UNL     1      -3.247  11.679  18.049  0.00  0.00    +0.000 A 
ENDBRANCH  26  29
ENDBRANCH  24  25
ENDBRANCH  23  24
ENDBRANCH  21  23
ENDBRANCH   4  19
TORSDOF 8
ENDMDL
MODEL 5
REMARK VINA RESULT:      -8.1      3.615      9.380
REMARK  Name = 
REMARK  8 active torsions:
REMARK  status: ('A' for Active; 'I' for Inactive)
REMARK    1  A    between atoms: N_1  and  S_2
REMARK    2  A    between atoms: S_2  and  C_5
REMARK    3  A    between atoms: C_10  and  C_11
REMARK    4  A    between atoms: C_14  and  C_15
REMARK    5  A    between atoms: N_17  and  C_18
REMARK    6  A    between atoms: C_18  and  C_19
REMARK    7  A    between atoms: C_19  and  N_20
REMARK    8  A    between atoms: C_21  and  C_23
REMARK                            x       y       z     vdW  Elec       q    Type
REMARK                         _______ _______ _______ _____ _____    ______ ____
ROOT
ATOM      1  C   UNL     1       0.806   9.298  18.918  0.00  0.00    +0.000 A 
ATOM      2  C   UNL     1       1.053   8.662  20.144  0.00  0.00    +0.000 A 
ATOM      3  C   UNL     1       1.906   7.561  20.257  0.00  0.00    +0.000 A 
ATOM      4  C   UNL     1       2.645   7.127  19.160  0.00  0.00    +0.000 A 
ATOM      5  C   UNL     1       2.514   7.819  17.956  0.00  0.00    +0.000 A 
ATOM      6  C   UNL     1       1.599   8.873  17.838  0.00  0.00    +0.000 A 
ENDROOT
BRANCH   1  12
ATOM      7  C   UNL     1      -0.120  11.725  19.087  0.00  0.00    +0.000 A 
ATOM      8  C   UNL     1      -1.198  12.614  18.866  0.00  0.00    +0.000 A 
ATOM      9  C   UNL     1      -2.407  12.172  18.347  0.00  0.00    +0.000 A 
ATOM     10  C   UNL     1      -2.555  10.836  18.023  0.00  0.00    +0.000 A 
ATOM     11  C   UNL     1      -1.485   9.957  18.206  0.00  0.00    +0.000 A 
ATOM     12  C   UNL     1      -0.230  10.354  18.740  0.00  0.00    +0.000 A 
BRANCH   7  13
ATOM     13  S   UNL     1       1.322  12.491  19.818  0.00  0.00    +0.000 S 
ATOM     14  O   UNL     1       2.434  12.528  18.904  0.00  0.00    +0.000 OA
ATOM     15  O   UNL     1       1.495  11.965  21.154  0.00  0.00    +0.000 OA
BRANCH  13  16
ATOM     16  N   UNL     1       0.757  14.072  20.072  0.00  0.00    +0.000 NA
ATOM     17  H   UNL     1      -0.027  14.245  19.442  0.00  0.00    +0.000 HD
ATOM     18  H   UNL     1       1.501  14.748  19.888  0.00  0.00    +0.000 HD
ENDBRANCH  13  16
ENDBRANCH   7  13
ENDBRANCH   1  12
BRANCH   4  19
ATOM     19  C   UNL     1       3.550   5.958  19.347  0.00  0.00    +0.000 C 
ATOM     20  O   UNL     1       3.235   5.030  20.097  0.00  0.00    +0.000 OA
ATOM     21  N   UNL     1       4.738   5.966  18.649  0.00  0.00    +0.000 N 
ATOM     22  H   UNL     1       4.911   6.645  17.925  0.00  0.00    +0.000 HD
BRANCH  21  23
ATOM     23  C   UNL     1       5.679   4.873  18.752  0.00  0.00    +0.000 C 
BRANCH  23  24
ATOM     24  C   UNL     1       7.007   5.204  18.071  0.00  0.00    +0.000 C 
BRANCH  24  25
ATOM     25  N   UNL     1       7.054   4.743  16.697  0.00  0.00    +0.000 N 
ATOM     26  C   UNL     1       6.317   5.363  15.712  0.00  0.00    +0.000 C 
ATOM     27  O   UNL     1       5.589   6.326  15.919  0.00  0.00    +0.000 OA
ATOM     28  H   UNL     1       7.777   4.079  16.454  0.00  0.00    +0.000 HD
BRANCH  26  29
ATOM     29  C   UNL     1       6.453   4.815  14.337  0.00  0.00    +0.000 A 
ATOM     30  C   UNL     1       7.658   5.027  13.652  0.00  0.00    +0.000 A 
ATOM     31  C   UNL     1       7.815   4.565  12.344  0.00  0.00    +0.000 A 
ATOM     32  C   UNL     1       6.765   3.898  11.713  0.00  0.00    +0.000 A 
ATOM     33  C   UNL     1       5.564   3.694  12.394  0.00  0.00    +0.000 A 
ATOM     34 CL   UNL     1       4.264   2.889  11.602  0.00  0.00    +0.000 Cl
ATOM     35  C   UNL     1       5.399   4.146  13.703  0.00  0.00    +0.000 A 
ENDBRANCH  26  29
ENDBRANCH  24  25
ENDBRANCH  23  24
ENDBRANCH  21  23
ENDBRANCH   4  19
TORSDOF 8
ENDMDL
MODEL 6
REMARK VINA RESULT:      -8.1      2.473      3.177
REMARK  Name = 
REMARK  8 active torsions:
REMARK  status: ('A' for Active; 'I' for Inactive)
REMARK    1  A    between atoms: N_1  and  S_2
REMARK    2  A    between atoms: S_2  and  C_5
REMARK    3  A    between atoms: C_10  and  C_11
REMARK    4  A    between atoms: C_14  and  C_15
REMARK    5  A    between atoms: N_17  and  C_18
REMARK    6  A    between atoms: C_18  and  C_19
REMARK    7  A    between atoms: C_19  and  N_20
REMARK    8  A    between atoms: C_21  and  C_23
REMARK                            x       y       z     vdW  Elec       q    Type
REMARK                         _______ _______ _______ _____ _____    ______ ____
ROOT
ATOM      1  C   UNL     1       4.162   5.554  17.132  0.00  0.00    +0.000 A 
ATOM      2  C   UNL     1       3.345   4.736  17.926  0.00  0.00    +0.000 A 
ATOM      3  C   UNL     1       2.581   5.242  18.982  0.00  0.00    +0.000 A 
ATOM      4  C   UNL     1       2.512   6.613  19.207  0.00  0.00    +0.000 A 
ATOM      5  C   UNL     1       3.218   7.463  18.354  0.00  0.00    +0.000 A 
ATOM      6  C   UNL     1       4.038   6.938  17.348  0.00  0.00    +0.000 A 
ENDROOT
BRANCH   1  12
ATOM      7  C   UNL     1       6.496   4.742  16.313  0.00  0.00    +0.000 A 
ATOM      8  C   UNL     1       7.286   4.242  15.252  0.00  0.00    +0.000 A 
ATOM      9  C   UNL     1       6.757   4.049  13.983  0.00  0.00    +0.000 A 
ATOM     10  C   UNL     1       5.424   4.335  13.757  0.00  0.00    +0.000 A 
ATOM     11  C   UNL     1       4.627   4.797  14.807  0.00  0.00    +0.000 A 
ATOM     12  C   UNL     1       5.118   5.019  16.122  0.00  0.00    +0.000 A 
BRANCH   7  13
ATOM     13  S   UNL     1       7.389   4.971  17.847  0.00  0.00    +0.000 S 
ATOM     14  O   UNL     1       7.511   6.362  18.197  0.00  0.00    +0.000 OA
ATOM     15  O   UNL     1       8.557   4.120  17.829  0.00  0.00    +0.000 OA
BRANCH  13  16
ATOM     16  N   UNL     1       6.345   4.209  18.948  0.00  0.00    +0.000 NA
ATOM     17  H   UNL     1       6.377   4.715  19.834  0.00  0.00    +0.000 HD
ATOM     18  H   UNL     1       6.631   3.239  19.095  0.00  0.00    +0.000 HD
ENDBRANCH  13  16
ENDBRANCH   7  13
ENDBRANCH   1  12
BRANCH   4  19
ATOM     19  C   UNL     1       1.667   7.094  20.337  0.00  0.00    +0.000 C 
ATOM     20  O   UNL     1       1.061   6.293  21.055  0.00  0.00    +0.000 OA
ATOM     21  N   UNL     1       1.599   8.455  20.536  0.00  0.00    +0.000 N 
ATOM     22  H   UNL     1       2.217   9.083  20.048  0.00  0.00    +0.000 HD
BRANCH  21  23
ATOM     23  C   UNL     1       0.817   9.020  21.613  0.00  0.00    +0.000 C 
BRANCH  23  24
ATOM     24  C   UNL     1       0.256  10.394  21.244  0.00  0.00    +0.000 C 
BRANCH  24  25
ATOM     25  N   UNL     1      -0.794  10.313  20.248  0.00  0.00    +0.000 N 
ATOM     26  C   UNL     1      -0.713  11.018  19.067  0.00  0.00    +0.000 C 
ATOM     27  O   UNL     1       0.231  11.744  18.779  0.00  0.00    +0.000 OA
ATOM     28  H   UNL     1      -1.492   9.590  20.364  0.00  0.00    +0.000 HD
BRANCH  26  29
ATOM     29  C   UNL     1      -1.840  10.850  18.113  0.00  0.00    +0.000 A 
ATOM     30  C   UNL     1      -1.674   9.967  17.036  0.00  0.00    +0.000 A 
ATOM     31  C   UNL     1      -2.692   9.808  16.094  0.00  0.00    +0.000 A 
ATOM     32  C   UNL     1      -3.874  10.537  16.219  0.00  0.00    +0.000 A 
ATOM     33  C   UNL     1      -4.035  11.420  17.287  0.00  0.00    +0.000 A 
ATOM     34 CL   UNL     1      -5.488  12.333  17.425  0.00  0.00    +0.000 Cl
ATOM     35  C   UNL     1      -3.027  11.582  18.238  0.00  0.00    +0.000 A 
ENDBRANCH  26  29
ENDBRANCH  24  25
ENDBRANCH  23  24
ENDBRANCH  21  23
ENDBRANCH   4  19
TORSDOF 8
ENDMDL
MODEL 7
REMARK VINA RESULT:      -8.1      3.083      4.089
REMARK  Name = 
REMARK  8 active torsions:
REMARK  status: ('A' for Active; 'I' for Inactive)
REMARK    1  A    between atoms: N_1  and  S_2
REMARK    2  A    between atoms: S_2  and  C_5
REMARK    3  A    between atoms: C_10  and  C_11
REMARK    4  A    between atoms: C_14  and  C_15
REMARK    5  A    between atoms: N_17  and  C_18
REMARK    6  A    between atoms: C_18  and  C_19
REMARK    7  A    between atoms: C_19  and  N_20
REMARK    8  A    between atoms: C_21  and  C_23
REMARK                            x       y       z     vdW  Elec       q    Type
REMARK                         _______ _______ _______ _____ _____    ______ ____
ROOT
ATOM      1  C   UNL     1       2.186   6.401  19.215  0.00  0.00    +0.000 A 
ATOM      2  C   UNL     1       2.353   7.340  18.186  0.00  0.00    +0.000 A 
ATOM      3  C   UNL     1       1.945   8.671  18.315  0.00  0.00    +0.000 A 
ATOM      4  C   UNL     1       1.462   9.144  19.530  0.00  0.00    +0.000 A 
ATOM      5  C   UNL     1       1.400   8.263  20.610  0.00  0.00    +0.000 A 
ATOM      6  C   UNL     1       1.741   6.915  20.446  0.00  0.00    +0.000 A 
ENDROOT
BRANCH   1  12
ATOM      7  C   UNL     1       3.679   4.332  18.699  0.00  0.00    +0.000 A 
ATOM      8  C   UNL     1       3.773   2.927  18.559  0.00  0.00    +0.000 A 
ATOM      9  C   UNL     1       2.662   2.108  18.706  0.00  0.00    +0.000 A 
ATOM     10  C   UNL     1       1.440   2.677  19.014  0.00  0.00    +0.000 A 
ATOM     11  C   UNL     1       1.344   4.060  19.187  0.00  0.00    +0.000 A 
ATOM     12  C   UNL     1       2.446   4.944  19.041  0.00  0.00    +0.000 A 
BRANCH   7  13
ATOM     13  S   UNL     1       5.216   5.201  18.409  0.00  0.00    +0.000 S 
ATOM     14  O   UNL     1       5.699   5.852  19.599  0.00  0.00    +0.000 OA
ATOM     15  O   UNL     1       5.101   5.939  17.172  0.00  0.00    +0.000 OA
BRANCH  13  16
ATOM     16  N   UNL     1       6.250   3.911  18.021  0.00  0.00    +0.000 NA
ATOM     17  H   UNL     1       6.302   3.280  18.821  0.00  0.00    +0.000 HD
ATOM     18  H   UNL     1       7.184   4.261  17.797  0.00  0.00    +0.000 HD
ENDBRANCH  13  16
ENDBRANCH   7  13
ENDBRANCH   1  12
BRANCH   4  19
ATOM     19  C   UNL     1       1.059  10.577  19.611  0.00  0.00    +0.000 C 
ATOM     20  O   UNL     1       0.677  11.065  20.679  0.00  0.00    +0.000 OA
ATOM     21  N   UNL     1       1.133  11.317  18.451  0.00  0.00    +0.000 N 
ATOM     22  H   UNL     1       1.593  10.953  17.632  0.00  0.00    +0.000 HD
BRANCH  21  23
ATOM     23  C   UNL     1       0.777  12.717  18.427  0.00  0.00    +0.000 C 
BRANCH  23  24
ATOM     24  C   UNL     1      -0.726  12.915  18.225  0.00  0.00    +0.000 C 
BRANCH  24  25
ATOM     25  N   UNL     1      -1.441  13.047  19.479  0.00  0.00    +0.000 N 
ATOM     26  C   UNL     1      -2.585  12.321  19.727  0.00  0.00    +0.000 C 
ATOM     27  O   UNL     1      -3.069  11.529  18.926  0.00  0.00    +0.000 OA
ATOM     28  H   UNL     1      -0.978  13.543  20.229  0.00  0.00    +0.000 HD
BRANCH  26  29
ATOM     29  C   UNL     1      -3.228  12.525  21.052  0.00  0.00    +0.000 A 
ATOM     30  C   UNL     1      -2.424  12.456  22.199  0.00  0.00    +0.000 A 
ATOM     31  C   UNL     1      -2.992  12.602  23.465  0.00  0.00    +0.000 A 
ATOM     32  C   UNL     1      -4.366  12.807  23.591  0.00  0.00    +0.000 A 
ATOM     33  C   UNL     1      -5.166  12.868  22.448  0.00  0.00    +0.000 A 
ATOM     34 CL   UNL     1      -6.864  13.100  22.610  0.00  0.00    +0.000 Cl
ATOM     35  C   UNL     1      -4.607  12.729  21.178  0.00  0.00    +0.000 A 
ENDBRANCH  26  29
ENDBRANCH  24  25
ENDBRANCH  23  24
ENDBRANCH  21  23
ENDBRANCH   4  19
TORSDOF 8
ENDMDL
MODEL 8
REMARK VINA RESULT:      -8.0      4.137      5.314
REMARK  Name = 
REMARK  8 active torsions:
REMARK  status: ('A' for Active; 'I' for Inactive)
REMARK    1  A    between atoms: N_1  and  S_2
REMARK    2  A    between atoms: S_2  and  C_5
REMARK    3  A    between atoms: C_10  and  C_11
REMARK    4  A    between atoms: C_14  and  C_15
REMARK    5  A    between atoms: N_17  and  C_18
REMARK    6  A    between atoms: C_18  and  C_19
REMARK    7  A    between atoms: C_19  and  N_20
REMARK    8  A    between atoms: C_21  and  C_23
REMARK                            x       y       z     vdW  Elec       q    Type
REMARK                         _______ _______ _______ _____ _____    ______ ____
ROOT
ATOM      1  C   UNL     1       2.297   6.110  19.113  0.00  0.00    +0.000 A 
ATOM      2  C   UNL     1       2.355   7.207  18.240  0.00  0.00    +0.000 A 
ATOM      3  C   UNL     1       1.866   8.469  18.591  0.00  0.00    +0.000 A 
ATOM      4  C   UNL     1       1.407   8.712  19.881  0.00  0.00    +0.000 A 
ATOM      5  C   UNL     1       1.452   7.672  20.810  0.00  0.00    +0.000 A 
ATOM      6  C   UNL     1       1.874   6.393  20.424  0.00  0.00    +0.000 A 
ENDROOT
BRANCH   1  12
ATOM      7  C   UNL     1       3.933   4.224  18.378  0.00  0.00    +0.000 A 
ATOM      8  C   UNL     1       4.110   2.874  17.994  0.00  0.00    +0.000 A 
ATOM      9  C   UNL     1       3.033   2.006  17.879  0.00  0.00    +0.000 A 
ATOM     10  C   UNL     1       1.761   2.467  18.162  0.00  0.00    +0.000 A 
ATOM     11  C   UNL     1       1.579   3.789  18.574  0.00  0.00    +0.000 A 
ATOM     12  C   UNL     1       2.645   4.720  18.703  0.00  0.00    +0.000 A 
BRANCH   7  13
ATOM     13  S   UNL     1       5.444   5.181  18.407  0.00  0.00    +0.000 S 
ATOM     14  O   UNL     1       5.794   5.597  19.740  0.00  0.00    +0.000 OA
ATOM     15  O   UNL     1       5.397   6.147  17.332  0.00  0.00    +0.000 OA
BRANCH  13  16
ATOM     16  N   UNL     1       6.569   4.028  17.870  0.00  0.00    +0.000 NA
ATOM     17  H   UNL     1       6.065   3.195  17.565  0.00  0.00    +0.000 HD
ATOM     18  H   UNL     1       7.214   3.784  18.624  0.00  0.00    +0.000 HD
ENDBRANCH  13  16
ENDBRANCH   7  13
ENDBRANCH   1  12
BRANCH   4  19
ATOM     19  C   UNL     1       0.914  10.082  20.200  0.00  0.00    +0.000 C 
ATOM     20  O   UNL     1       1.013  10.995  19.375  0.00  0.00    +0.000 OA
ATOM     21  N   UNL     1       0.351  10.274  21.443  0.00  0.00    +0.000 N 
ATOM     22  H   UNL     1       0.133   9.493  22.040  0.00  0.00    +0.000 HD
BRANCH  21  23
ATOM     23  C   UNL     1      -0.169  11.562  21.842  0.00  0.00    +0.000 C 
BRANCH  23  24
ATOM     24  C   UNL     1      -1.290  11.424  22.872  0.00  0.00    +0.000 C 
BRANCH  24  25
ATOM     25  N   UNL     1      -1.757  12.709  23.357  0.00  0.00    +0.000 N 
ATOM     26  C   UNL     1      -3.098  12.950  23.558  0.00  0.00    +0.000 C 
ATOM     27  O   UNL     1      -3.973  12.118  23.349  0.00  0.00    +0.000 OA
ATOM     28  H   UNL     1      -1.063  13.352  23.715  0.00  0.00    +0.000 HD
BRANCH  26  29
ATOM     29  C   UNL     1      -3.461  14.298  24.070  0.00  0.00    +0.000 A 
ATOM     30  C   UNL     1      -4.760  14.771  23.835  0.00  0.00    +0.000 A 
ATOM     31  C   UNL     1      -5.133  16.046  24.263  0.00  0.00    +0.000 A 
ATOM     32  C   UNL     1      -4.206  16.856  24.919  0.00  0.00    +0.000 A 
ATOM     33  C   UNL     1      -2.911  16.387  25.146  0.00  0.00    +0.000 A 
ATOM     34 CL   UNL     1      -1.765  17.399  25.936  0.00  0.00    +0.000 Cl
ATOM     35  C   UNL     1      -2.531  15.112  24.727  0.00  0.00    +0.000 A 
ENDBRANCH  26  29
ENDBRANCH  24  25
ENDBRANCH  23  24
ENDBRANCH  21  23
ENDBRANCH   4  19
TORSDOF 8
ENDMDL
MODEL 9
REMARK VINA RESULT:      -8.0      2.946      3.710
REMARK  Name = 
REMARK  8 active torsions:
REMARK  status: ('A' for Active; 'I' for Inactive)
REMARK    1  A    between atoms: N_1  and  S_2
REMARK    2  A    between atoms: S_2  and  C_5
REMARK    3  A    between atoms: C_10  and  C_11
REMARK    4  A    between atoms: C_14  and  C_15
REMARK    5  A    between atoms: N_17  and  C_18
REMARK    6  A    between atoms: C_18  and  C_19
REMARK    7  A    between atoms: C_19  and  N_20
REMARK    8  A    between atoms: C_21  and  C_23
REMARK                            x       y       z     vdW  Elec       q    Type
REMARK                         _______ _______ _______ _____ _____    ______ ____
ROOT
ATOM      1  C   UNL     1       2.939   6.856  18.298  0.00  0.00    +0.000 A 
ATOM      2  C   UNL     1       2.529   6.673  19.628  0.00  0.00    +0.000 A 
ATOM      3  C   UNL     1       1.842   7.659  20.341  0.00  0.00    +0.000 A 
ATOM      4  C   UNL     1       1.428   8.827  19.708  0.00  0.00    +0.000 A 
ATOM      5  C   UNL     1       1.714   8.984  18.351  0.00  0.00    +0.000 A 
ATOM      6  C   UNL     1       2.469   8.022  17.668  0.00  0.00    +0.000 A 
ENDROOT
BRANCH   1  12
ATOM      7  C   UNL     1       3.637   4.500  17.442  0.00  0.00    +0.000 A 
ATOM      8  C   UNL     1       4.573   3.712  16.731  0.00  0.00    +0.000 A 
ATOM      9  C   UNL     1       5.721   4.268  16.183  0.00  0.00    +0.000 A 
ATOM     10  C   UNL     1       5.945   5.625  16.321  0.00  0.00    +0.000 A 
ATOM     11  C   UNL     1       5.011   6.417  16.992  0.00  0.00    +0.000 A 
ATOM     12  C   UNL     1       3.824   5.899  17.577  0.00  0.00    +0.000 A 
BRANCH   7  13
ATOM     13  S   UNL     1       2.262   3.574  18.115  0.00  0.00    +0.000 S 
ATOM     14  O   UNL     1       1.000   4.021  17.585  0.00  0.00    +0.000 OA
ATOM     15  O   UNL     1       2.449   3.447  19.543  0.00  0.00    +0.000 OA
BRANCH  13  16
ATOM     16  N   UNL     1       2.595   2.018  17.520  0.00  0.00    +0.000 NA
ATOM     17  H   UNL     1       2.229   1.944  16.570  0.00  0.00    +0.000 HD
ATOM     18  H   UNL     1       2.158   1.310  18.114  0.00  0.00    +0.000 HD
ENDBRANCH  13  16
ENDBRANCH   7  13
ENDBRANCH   1  12
BRANCH   4  19
ATOM     19  C   UNL     1       0.684   9.833  20.517  0.00  0.00    +0.000 C 
ATOM     20  O   UNL     1       0.033   9.489  21.508  0.00  0.00    +0.000 OA
ATOM     21  N   UNL     1       0.758  11.147  20.108  0.00  0.00    +0.000 N 
ATOM     22  H   UNL     1       1.414  11.434  19.400  0.00  0.00    +0.000 HD
BRANCH  21  23
ATOM     23  C   UNL     1       0.083  12.199  20.833  0.00  0.00    +0.000 C 
BRANCH  23  24
ATOM     24  C   UNL     1      -1.178  12.667  20.106  0.00  0.00    +0.000 C 
BRANCH  24  25
ATOM     25  N   UNL     1      -2.375  12.492  20.906  0.00  0.00    +0.000 N 
ATOM     26  C   UNL     1      -2.655  13.333  21.961  0.00  0.00    +0.000 C 
ATOM     27  O   UNL     1      -1.934  14.267  22.290  0.00  0.00    +0.000 OA
ATOM     28  H   UNL     1      -3.080  11.857  20.557  0.00  0.00    +0.000 HD
BRANCH  26  29
ATOM     29  C   UNL     1      -3.916  13.069  22.704  0.00  0.00    +0.000 A 
ATOM     30  C   UNL     1      -3.828  12.707  24.056  0.00  0.00    +0.000 A 
ATOM     31  C   UNL     1      -4.983  12.411  24.782  0.00  0.00    +0.000 A 
ATOM     32  C   UNL     1      -6.229  12.467  24.157  0.00  0.00    +0.000 A 
ATOM     33  C   UNL     1      -6.314  12.821  22.809  0.00  0.00    +0.000 A 
ATOM     34 CL   UNL     1      -7.852  12.867  22.037  0.00  0.00    +0.000 Cl
ATOM     35  C   UNL     1      -5.166  13.124  22.077  0.00  0.00    +0.000 A 
ENDBRANCH  26  29
ENDBRANCH  24  25
ENDBRANCH  23  24
ENDBRANCH  21  23
ENDBRANCH   4  19
TORSDOF 8
ENDMDL
