MODEL 1
REMARK VINA RESULT:      -6.7      0.000      0.000
REMARK  Name = 
REMARK  5 active torsions:
REMARK  status: ('A' for Active; 'I' for Inactive)
REMARK    1  A    between atoms: C_1  and  C_2
REMARK    2  A    between atoms: C_2  and  C_4
REMARK    3  A    between atoms: N_7  and  C_8
REMARK    4  A    between atoms: C_8  and  C_9
REMARK    5  A    between atoms: C_16  and  C_17
REMARK                            x       y       z     vdW  Elec       q    Type
REMARK                         _______ _______ _______ _____ _____    ______ ____
ROOT
ATOM      1  C   UNL     1       3.097   4.405  19.225  0.00  0.00    +0.000 A 
ATOM      2  S   UNL     1       4.299   3.236  18.856  0.00  0.00    +0.000 S 
ATOM      3  C   UNL     1       4.883   4.219  17.577  0.00  0.00    +0.000 A 
ATOM      4  N   UNL     1       5.931   3.820  16.824  0.00  0.00    +0.000 N 
ATOM      5  N   UNL     1       4.235   5.344  17.415  0.00  0.00    +0.000 NA
ATOM      6  C   UNL     1       3.202   5.460  18.331  0.00  0.00    +0.000 A 
ATOM      7  C   UNL     1       2.353   6.680  18.253  0.00  0.00    +0.000 C 
ATOM      8  H   UNL     1       6.465   3.026  17.152  0.00  0.00    +0.000 HD
ENDROOT
BRANCH   1  10
ATOM      9  C   UNL     1       0.817   3.581  20.027  0.00  0.00    +0.000 C 
ATOM     10  C   UNL     1       2.149   4.237  20.317  0.00  0.00    +0.000 C 
ATOM     11  O   UNL     1       2.396   4.599  21.468  0.00  0.00    +0.000 OA
ENDBRANCH   1  10
BRANCH   4  12
ATOM     12  C   UNL     1       6.730   4.850  16.181  0.00  0.00    +0.000 C 
BRANCH  12  13
ATOM     13  C   UNL     1       6.773   4.666  14.681  0.00  0.00    +0.000 A 
ATOM     14  C   UNL     1       7.703   5.344  13.879  0.00  0.00    +0.000 A 
ATOM     15  C   UNL     1       7.759   5.114  12.503  0.00  0.00    +0.000 A 
ATOM     16  C   UNL     1       6.900   4.188  11.915  0.00  0.00    +0.000 A 
ATOM     17  C   UNL     1       5.992   3.483  12.703  0.00  0.00    +0.000 A 
ATOM     18  C   UNL     1       5.932   3.719  14.078  0.00  0.00    +0.000 A 
ENDBRANCH  12  13
ENDBRANCH   4  12
TORSDOF 3
ENDMDL
MODEL 2
REMARK VINA RESULT:      -6.7      0.320      1.208
REMARK  Name = 
REMARK  5 active torsions:
REMARK  status: ('A' for Active; 'I' for Inactive)
REMARK    1  A    between atoms: C_1  and  C_2
REMARK    2  A    between atoms: C_2  and  C_4
REMARK    3  A    between atoms: N_7  and  C_8
REMARK    4  A    between atoms: C_8  and  C_9
REMARK    5  A    between atoms: C_16  and  C_17
REMARK                            x       y       z     vdW  Elec       q    Type
REMARK                         _______ _______ _______ _____ _____    ______ ____
ROOT
ATOM      1  C   UNL     1       2.990   4.259  19.283  0.00  0.00    +0.000 A 
ATOM      2  S   UNL     1       3.969   3.014  18.621  0.00  0.00    +0.000 S 
ATOM      3  C   UNL     1       4.618   4.112  17.475  0.00  0.00    +0.000 A 
ATOM      4  N   UNL     1       5.541   3.706  16.577  0.00  0.00    +0.000 N 
ATOM      5  N   UNL     1       4.145   5.329  17.558  0.00  0.00    +0.000 NA
ATOM      6  C   UNL     1       3.202   5.429  18.568  0.00  0.00    +0.000 A 
ATOM      7  C   UNL     1       2.551   6.752  18.767  0.00  0.00    +0.000 C 
ATOM      8  H   UNL     1       5.964   2.797  16.721  0.00  0.00    +0.000 HD
ENDROOT
BRANCH   1  10
ATOM      9  C   UNL     1       0.925   3.100  20.237  0.00  0.00    +0.000 C 
ATOM     10  C   UNL     1       2.098   4.040  20.412  0.00  0.00    +0.000 C 
ATOM     11  O   UNL     1       2.270   4.582  21.504  0.00  0.00    +0.000 OA
ENDBRANCH   1  10
BRANCH   4  12
ATOM     12  C   UNL     1       6.450   4.707  16.044  0.00  0.00    +0.000 C 
BRANCH  12  13
ATOM     13  C   UNL     1       6.689   4.510  14.564  0.00  0.00    +0.000 A 
ATOM     14  C   UNL     1       5.925   3.612  13.804  0.00  0.00    +0.000 A 
ATOM     15  C   UNL     1       6.129   3.490  12.428  0.00  0.00    +0.000 A 
ATOM     16  C   UNL     1       7.084   4.279  11.792  0.00  0.00    +0.000 A 
ATOM     17  C   UNL     1       7.829   5.198  12.527  0.00  0.00    +0.000 A 
ATOM     18  C   UNL     1       7.630   5.315  13.904  0.00  0.00    +0.000 A 
ENDBRANCH  12  13
ENDBRANCH   4  12
TORSDOF 3
ENDMDL
MODEL 3
REMARK VINA RESULT:      -6.5      5.740      6.988
REMARK  Name = 
REMARK  5 active torsions:
REMARK  status: ('A' for Active; 'I' for Inactive)
REMARK    1  A    between atoms: C_1  and  C_2
REMARK    2  A    between atoms: C_2  and  C_4
REMARK    3  A    between atoms: N_7  and  C_8
REMARK    4  A    between atoms: C_8  and  C_9
REMARK    5  A    between atoms: C_16  and  C_17
REMARK                            x       y       z     vdW  Elec       q    Type
REMARK                         _______ _______ _______ _____ _____    ______ ____
ROOT
ATOM      1  C   UNL     1       6.191   5.486  17.765  0.00  0.00    +0.000 A 
ATOM      2  S   UNL     1       7.430   5.890  18.882  0.00  0.00    +0.000 S 
ATOM      3  C   UNL     1       7.682   7.388  18.085  0.00  0.00    +0.000 A 
ATOM      4  N   UNL     1       8.616   8.256  18.529  0.00  0.00    +0.000 N 
ATOM      5  N   UNL     1       6.909   7.590  17.049  0.00  0.00    +0.000 NA
ATOM      6  C   UNL     1       6.067   6.510  16.838  0.00  0.00    +0.000 A 
ATOM      7  C   UNL     1       5.144   6.581  15.672  0.00  0.00    +0.000 C 
ATOM      8  H   UNL     1       9.024   8.078  19.437  0.00  0.00    +0.000 HD
ENDROOT
BRANCH   1  10
ATOM      9  C   UNL     1       4.851   3.831  19.173  0.00  0.00    +0.000 C 
ATOM     10  C   UNL     1       5.440   4.241  17.842  0.00  0.00    +0.000 C 
ATOM     11  O   UNL     1       5.258   3.518  16.862  0.00  0.00    +0.000 OA
ENDBRANCH   1  10
BRANCH   4  12
ATOM     12  C   UNL     1       8.423   9.665  18.228  0.00  0.00    +0.000 C 
BRANCH  12  13
ATOM     13  C   UNL     1       9.503  10.520  18.852  0.00  0.00    +0.000 A 
ATOM     14  C   UNL     1      10.546  11.068  18.089  0.00  0.00    +0.000 A 
ATOM     15  C   UNL     1      11.499  11.900  18.680  0.00  0.00    +0.000 A 
ATOM     16  C   UNL     1      11.409  12.212  20.034  0.00  0.00    +0.000 A 
ATOM     17  C   UNL     1      10.361  11.702  20.798  0.00  0.00    +0.000 A 
ATOM     18  C   UNL     1       9.413  10.864  20.209  0.00  0.00    +0.000 A 
ENDBRANCH  12  13
ENDBRANCH   4  12
TORSDOF 3
ENDMDL
MODEL 4
REMARK VINA RESULT:      -6.5      1.971      3.405
REMARK  Name = 
REMARK  5 active torsions:
REMARK  status: ('A' for Active; 'I' for Inactive)
REMARK    1  A    between atoms: C_1  and  C_2
REMARK    2  A    between atoms: C_2  and  C_4
REMARK    3  A    between atoms: N_7  and  C_8
REMARK    4  A    between atoms: C_8  and  C_9
REMARK    5  A    between atoms: C_16  and  C_17
REMARK                            x       y       z     vdW  Elec       q    Type
REMARK                         _______ _______ _______ _____ _____    ______ ____
ROOT
ATOM      1  C   UNL     1       2.702   3.803  18.803  0.00  0.00    +0.000 A 
ATOM      2  S   UNL     1       3.845   2.609  18.341  0.00  0.00    +0.000 S 
ATOM      3  C   UNL     1       4.480   3.660  17.143  0.00  0.00    +0.000 A 
ATOM      4  N   UNL     1       5.509   3.270  16.359  0.00  0.00    +0.000 N 
ATOM      5  N   UNL     1       3.889   4.825  17.071  0.00  0.00    +0.000 NA
ATOM      6  C   UNL     1       2.860   4.919  17.995  0.00  0.00    +0.000 A 
ATOM      7  C   UNL     1       2.073   6.181  18.014  0.00  0.00    +0.000 C 
ATOM      8  H   UNL     1       6.002   2.427  16.623  0.00  0.00    +0.000 HD
ENDROOT
BRANCH   1  10
ATOM      9  C   UNL     1       2.072   4.135  21.255  0.00  0.00    +0.000 C 
ATOM     10  C   UNL     1       1.744   3.597  19.880  0.00  0.00    +0.000 C 
ATOM     11  O   UNL     1       0.674   3.012  19.709  0.00  0.00    +0.000 OA
ENDBRANCH   1  10
BRANCH   4  12
ATOM     12  C   UNL     1       6.359   4.307  15.799  0.00  0.00    +0.000 C 
BRANCH  12  13
ATOM     13  C   UNL     1       6.940   5.193  16.878  0.00  0.00    +0.000 A 
ATOM     14  C   UNL     1       7.538   4.662  18.030  0.00  0.00    +0.000 A 
ATOM     15  C   UNL     1       8.117   5.501  18.984  0.00  0.00    +0.000 A 
ATOM     16  C   UNL     1       8.124   6.879  18.788  0.00  0.00    +0.000 A 
ATOM     17  C   UNL     1       7.563   7.421  17.634  0.00  0.00    +0.000 A 
ATOM     18  C   UNL     1       6.978   6.583  16.683  0.00  0.00    +0.000 A 
ENDBRANCH  12  13
ENDBRANCH   4  12
TORSDOF 3
ENDMDL
MODEL 5
REMARK VINA RESULT:      -6.5      5.758      7.048
REMARK  Name = 
REMARK  5 active torsions:
REMARK  status: ('A' for Active; 'I' for Inactive)
REMARK    1  A    between atoms: C_1  and  C_2
REMARK    2  A    between atoms: C_2  and  C_4
REMARK    3  A    between atoms: N_7  and  C_8
REMARK    4  A    between atoms: C_8  and  C_9
REMARK    5  A    between atoms: C_16  and  C_17
REMARK                            x       y       z     vdW  Elec       q    Type
REMARK                         _______ _______ _______ _____ _____    ______ ____
ROOT
ATOM      1  C   UNL     1       6.231   5.529  17.763  0.00  0.00    +0.000 A 
ATOM      2  S   UNL     1       7.488   5.943  18.855  0.00  0.00    +0.000 S 
ATOM      3  C   UNL     1       7.698   7.451  18.066  0.00  0.00    +0.000 A 
ATOM      4  N   UNL     1       8.628   8.331  18.496  0.00  0.00    +0.000 N 
ATOM      5  N   UNL     1       6.898   7.650  17.049  0.00  0.00    +0.000 NA
ATOM      6  C   UNL     1       6.069   6.558  16.848  0.00  0.00    +0.000 A 
ATOM      7  C   UNL     1       5.119   6.624  15.705  0.00  0.00    +0.000 C 
ATOM      8  H   UNL     1       9.059   8.152  19.393  0.00  0.00    +0.000 HD
ENDROOT
BRANCH   1  10
ATOM      9  C   UNL     1       4.898   3.869  19.173  0.00  0.00    +0.000 C 
ATOM     10  C   UNL     1       5.502   4.271  17.846  0.00  0.00    +0.000 C 
ATOM     11  O   UNL     1       5.350   3.531  16.874  0.00  0.00    +0.000 OA
ENDBRANCH   1  10
BRANCH   4  12
ATOM     12  C   UNL     1       8.405   9.739  18.212  0.00  0.00    +0.000 C 
BRANCH  12  13
ATOM     13  C   UNL     1       9.466  10.609  18.847  0.00  0.00    +0.000 A 
ATOM     14  C   UNL     1       9.429  10.948  20.209  0.00  0.00    +0.000 A 
ATOM     15  C   UNL     1      10.451  11.706  20.782  0.00  0.00    +0.000 A 
ATOM     16  C   UNL     1      11.533  12.117  20.008  0.00  0.00    +0.000 A 
ATOM     17  C   UNL     1      11.601  11.762  18.663  0.00  0.00    +0.000 A 
ATOM     18  C   UNL     1      10.576  11.009  18.087  0.00  0.00    +0.000 A 
ENDBRANCH  12  13
ENDBRANCH   4  12
TORSDOF 3
ENDMDL
MODEL 6
REMARK VINA RESULT:      -6.5      4.845      7.595
REMARK  Name = 
REMARK  5 active torsions:
REMARK  status: ('A' for Active; 'I' for Inactive)
REMARK    1  A    between atoms: C_1  and  C_2
REMARK    2  A    between atoms: C_2  and  C_4
REMARK    3  A    between atoms: N_7  and  C_8
REMARK    4  A    between atoms: C_8  and  C_9
REMARK    5  A    between atoms: C_16  and  C_17
REMARK                            x       y       z     vdW  Elec       q    Type
REMARK                         _______ _______ _______ _____ _____    ______ ____
ROOT
ATOM      1  C   UNL     1       3.255   3.680  19.892  0.00  0.00    +0.000 A 
ATOM      2  S   UNL     1       3.765   5.204  19.289  0.00  0.00    +0.000 S 
ATOM      3  C   UNL     1       2.435   5.970  20.055  0.00  0.00    +0.000 A 
ATOM      4  N   UNL     1       2.257   7.305  19.955  0.00  0.00    +0.000 N 
ATOM      5  N   UNL     1       1.647   5.160  20.715  0.00  0.00    +0.000 NA
ATOM      6  C   UNL     1       2.085   3.850  20.618  0.00  0.00    +0.000 A 
ATOM      7  C   UNL     1       1.271   2.805  21.297  0.00  0.00    +0.000 C 
ATOM      8  H   UNL     1       3.021   7.850  19.576  0.00  0.00    +0.000 HD
ENDROOT
BRANCH   1  10
ATOM      9  C   UNL     1       3.544   1.574  18.477  0.00  0.00    +0.000 C 
ATOM     10  C   UNL     1       3.985   2.448  19.631  0.00  0.00    +0.000 C 
ATOM     11  O   UNL     1       4.953   2.099  20.307  0.00  0.00    +0.000 OA
ENDBRANCH   1  10
BRANCH   4  12
ATOM     12  C   UNL     1       1.522   7.968  21.019  0.00  0.00    +0.000 C 
BRANCH  12  13
ATOM     13  C   UNL     1       0.805   9.200  20.515  0.00  0.00    +0.000 A 
ATOM     14  C   UNL     1       0.841   9.577  19.164  0.00  0.00    +0.000 A 
ATOM     15  C   UNL     1       0.124  10.688  18.715  0.00  0.00    +0.000 A 
ATOM     16  C   UNL     1      -0.654  11.423  19.606  0.00  0.00    +0.000 A 
ATOM     17  C   UNL     1      -0.725  11.043  20.944  0.00  0.00    +0.000 A 
ATOM     18  C   UNL     1      -0.003   9.936  21.395  0.00  0.00    +0.000 A 
ENDBRANCH  12  13
ENDBRANCH   4  12
TORSDOF 3
ENDMDL
MODEL 7
REMARK VINA RESULT:      -6.5      4.846      7.628
REMARK  Name = 
REMARK  5 active torsions:
REMARK  status: ('A' for Active; 'I' for Inactive)
REMARK    1  A    between atoms: C_1  and  C_2
REMARK    2  A    between atoms: C_2  and  C_4
REMARK    3  A    between atoms: N_7  and  C_8
REMARK    4  A    between atoms: C_8  and  C_9
REMARK    5  A    between atoms: C_16  and  C_17
REMARK                            x       y       z     vdW  Elec       q    Type
REMARK                         _______ _______ _______ _____ _____    ______ ____
ROOT
ATOM      1  C   UNL     1       3.257   3.694  19.893  0.00  0.00    +0.000 A 
ATOM      2  S   UNL     1       3.748   5.225  19.291  0.00  0.00    +0.000 S 
ATOM      3  C   UNL     1       2.418   5.976  20.072  0.00  0.00    +0.000 A 
ATOM      4  N   UNL     1       2.226   7.309  19.978  0.00  0.00    +0.000 N 
ATOM      5  N   UNL     1       1.643   5.157  20.737  0.00  0.00    +0.000 NA
ATOM      6  C   UNL     1       2.093   3.851  20.631  0.00  0.00    +0.000 A 
ATOM      7  C   UNL     1       1.295   2.796  21.314  0.00  0.00    +0.000 C 
ATOM      8  H   UNL     1       2.982   7.863  19.594  0.00  0.00    +0.000 HD
ENDROOT
BRANCH   1  10
ATOM      9  C   UNL     1       3.542   1.588  18.479  0.00  0.00    +0.000 C 
ATOM     10  C   UNL     1       3.996   2.470  19.621  0.00  0.00    +0.000 C 
ATOM     11  O   UNL     1       4.981   2.134  20.279  0.00  0.00    +0.000 OA
ENDBRANCH   1  10
BRANCH   4  12
ATOM     12  C   UNL     1       1.495   7.962  21.051  0.00  0.00    +0.000 C 
BRANCH  12  13
ATOM     13  C   UNL     1       0.724   9.162  20.549  0.00  0.00    +0.000 A 
ATOM     14  C   UNL     1      -0.082   9.933  21.401  0.00  0.00    +0.000 A 
ATOM     15  C   UNL     1      -0.739  11.069  20.924  0.00  0.00    +0.000 A 
ATOM     16  C   UNL     1      -0.583  11.460  19.597  0.00  0.00    +0.000 A 
ATOM     17  C   UNL     1       0.239  10.723  18.746  0.00  0.00    +0.000 A 
ATOM     18  C   UNL     1       0.891   9.583  19.221  0.00  0.00    +0.000 A 
ENDBRANCH  12  13
ENDBRANCH   4  12
TORSDOF 3
ENDMDL
MODEL 8
REMARK VINA RESULT:      -6.5      1.632      2.049
REMARK  Name = 
REMARK  5 active torsions:
REMARK  status: ('A' for Active; 'I' for Inactive)
REMARK    1  A    between atoms: C_1  and  C_2
REMARK    2  A    between atoms: C_2  and  C_4
REMARK    3  A    between atoms: N_7  and  C_8
REMARK    4  A    between atoms: C_8  and  C_9
REMARK    5  A    between atoms: C_16  and  C_17
REMARK                            x       y       z     vdW  Elec       q    Type
REMARK                         _______ _______ _______ _____ _____    ______ ____
ROOT
ATOM      1  C   UNL     1       2.662   3.318  18.792  0.00  0.00    +0.000 A 
ATOM      2  S   UNL     1       2.675   4.392  17.453  0.00  0.00    +0.000 S 
ATOM      3  C   UNL     1       4.390   4.378  17.439  0.00  0.00    +0.000 A 
ATOM      4  N   UNL     1       5.078   5.095  16.525  0.00  0.00    +0.000 N 
ATOM      5  N   UNL     1       4.936   3.634  18.367  0.00  0.00    +0.000 NA
ATOM      6  C   UNL     1       3.969   3.037  19.160  0.00  0.00    +0.000 A 
ATOM      7  C   UNL     1       4.439   2.179  20.281  0.00  0.00    +0.000 C 
ATOM      8  H   UNL     1       4.557   5.484  15.750  0.00  0.00    +0.000 HD
ENDROOT
BRANCH   1  10
ATOM      9  C   UNL     1       1.112   3.227  20.819  0.00  0.00    +0.000 C 
ATOM     10  C   UNL     1       1.430   2.829  19.394  0.00  0.00    +0.000 C 
ATOM     11  O   UNL     1       0.633   2.116  18.783  0.00  0.00    +0.000 OA
ENDBRANCH   1  10
BRANCH   4  12
ATOM     12  C   UNL     1       6.413   4.638  16.176  0.00  0.00    +0.000 C 
BRANCH  12  13
ATOM     13  C   UNL     1       6.593   4.540  14.678  0.00  0.00    +0.000 A 
ATOM     14  C   UNL     1       7.584   5.269  14.003  0.00  0.00    +0.000 A 
ATOM     15  C   UNL     1       7.766   5.118  12.627  0.00  0.00    +0.000 A 
ATOM     16  C   UNL     1       6.976   4.221  11.913  0.00  0.00    +0.000 A 
ATOM     17  C   UNL     1       6.010   3.465  12.574  0.00  0.00    +0.000 A 
ATOM     18  C   UNL     1       5.823   3.621  13.948  0.00  0.00    +0.000 A 
ENDBRANCH  12  13
ENDBRANCH   4  12
TORSDOF 3
ENDMDL
MODEL 9
REMARK VINA RESULT:      -6.4      1.213      1.269
REMARK  Name = 
REMARK  5 active torsions:
REMARK  status: ('A' for Active; 'I' for Inactive)
REMARK    1  A    between atoms: C_1  and  C_2
REMARK    2  A    between atoms: C_2  and  C_4
REMARK    3  A    between atoms: N_7  and  C_8
REMARK    4  A    between atoms: C_8  and  C_9
REMARK    5  A    between atoms: C_16  and  C_17
REMARK                            x       y       z     vdW  Elec       q    Type
REMARK                         _______ _______ _______ _____ _____    ______ ____
ROOT
ATOM      1  C   UNL     1       2.449   3.659  19.110  0.00  0.00    +0.000 A 
ATOM      2  S   UNL     1       3.074   2.593  17.920  0.00  0.00    +0.000 S 
ATOM      3  C   UNL     1       3.923   3.888  17.182  0.00  0.00    +0.000 A 
ATOM      4  N   UNL     1       4.686   3.679  16.088  0.00  0.00    +0.000 N 
ATOM      5  N   UNL     1       3.758   5.048  17.765  0.00  0.00    +0.000 NA
ATOM      6  C   UNL     1       2.907   4.943  18.853  0.00  0.00    +0.000 A 
ATOM      7  C   UNL     1       2.600   6.191  19.603  0.00  0.00    +0.000 C 
ATOM      8  H   UNL     1       4.884   2.719  15.834  0.00  0.00    +0.000 HD
ENDROOT
BRANCH   1  10
ATOM      9  C   UNL     1       2.128   3.150  21.591  0.00  0.00    +0.000 C 
ATOM     10  C   UNL     1       1.575   3.211  20.184  0.00  0.00    +0.000 C 
ATOM     11  O   UNL     1       0.402   2.892  19.991  0.00  0.00    +0.000 OA
ENDBRANCH   1  10
BRANCH   4  12
ATOM     12  C   UNL     1       5.786   4.598  15.848  0.00  0.00    +0.000 C 
BRANCH  12  13
ATOM     13  C   UNL     1       6.280   4.513  14.422  0.00  0.00    +0.000 A 
ATOM     14  C   UNL     1       7.386   5.254  13.976  0.00  0.00    +0.000 A 
ATOM     15  C   UNL     1       7.856   5.115  12.669  0.00  0.00    +0.000 A 
ATOM     16  C   UNL     1       7.243   4.218  11.798  0.00  0.00    +0.000 A 
ATOM     17  C   UNL     1       6.164   3.452  12.235  0.00  0.00    +0.000 A 
ATOM     18  C   UNL     1       5.689   3.596  13.539  0.00  0.00    +0.000 A 
ENDBRANCH  12  13
ENDBRANCH   4  12
TORSDOF 3
ENDMDL
