MODEL 1
REMARK VINA RESULT:      -6.5      0.000      0.000
REMARK  Name = 
REMARK  2 active torsions:
REMARK  status: ('A' for Active; 'I' for Inactive)
REMARK    1  A    between atoms: C_2  and  C_11
REMARK    2  A    between atoms: N_3  and  C_4
REMARK                            x       y       z     vdW  Elec       q    Type
REMARK                         _______ _______ _______ _____ _____    ______ ____
ROOT
ATOM      1  O   UNL     1       5.919   4.256  19.285  0.00  0.00    +0.000 OA
ATOM      2  C   UNL     1       4.805   4.089  18.796  0.00  0.00    +0.000 C 
ATOM      3  N   UNL     1       4.518   4.082  17.446  0.00  0.00    +0.000 N 
ATOM      4  H   UNL     1       3.542   4.016  17.185  0.00  0.00    +0.000 HD
ENDROOT
BRANCH   3   5
ATOM      5  C   UNL     1       5.418   4.348  16.391  0.00  0.00    +0.000 A 
ATOM      6  C   UNL     1       6.602   5.072  16.546  0.00  0.00    +0.000 A 
ATOM      7  C   UNL     1       7.415   5.349  15.443  0.00  0.00    +0.000 A 
ATOM      8  C   UNL     1       7.043   4.901  14.179  0.00  0.00    +0.000 A 
ATOM      9 BR   UNL     1       8.119   5.317  12.682  0.00  0.00    +0.000 Br
ATOM     10  C   UNL     1       5.880   4.155  14.012  0.00  0.00    +0.000 A 
ATOM     11  C   UNL     1       5.076   3.868  15.120  0.00  0.00    +0.000 A 
ENDBRANCH   3   5
BRANCH   2  12
ATOM     12  C   UNL     1       3.662   3.874  19.739  0.00  0.00    +0.000 A 
ATOM     13  C   UNL     1       3.662   2.630  20.403  0.00  0.00    +0.000 A 
ATOM     14  C   UNL     1       2.684   2.308  21.345  0.00  0.00    +0.000 A 
ATOM     15  C   UNL     1       1.683   3.224  21.642  0.00  0.00    +0.000 A 
ATOM     16  C   UNL     1       1.664   4.462  20.997  0.00  0.00    +0.000 A 
ATOM     17  C   UNL     1       2.647   4.794  20.050  0.00  0.00    +0.000 A 
ATOM     18 BR   UNL     1       2.512   6.548  19.324  0.00  0.00    +0.000 Br
ENDBRANCH   2  12
TORSDOF 2
ENDMDL
MODEL 2
REMARK VINA RESULT:      -6.5      4.220      7.621
REMARK  Name = 
REMARK  2 active torsions:
REMARK  status: ('A' for Active; 'I' for Inactive)
REMARK    1  A    between atoms: C_2  and  C_11
REMARK    2  A    between atoms: N_3  and  C_4
REMARK                            x       y       z     vdW  Elec       q    Type
REMARK                         _______ _______ _______ _____ _____    ______ ____
ROOT
ATOM      1  O   UNL     1       1.804   5.749  20.652  0.00  0.00    +0.000 OA
ATOM      2  C   UNL     1       2.223   6.400  19.699  0.00  0.00    +0.000 C 
ATOM      3  N   UNL     1       2.068   7.762  19.532  0.00  0.00    +0.000 N 
ATOM      4  H   UNL     1       2.393   8.155  18.657  0.00  0.00    +0.000 HD
ENDROOT
BRANCH   3   5
ATOM      5  C   UNL     1       1.336   8.635  20.364  0.00  0.00    +0.000 A 
ATOM      6  C   UNL     1       1.327   8.553  21.758  0.00  0.00    +0.000 A 
ATOM      7  C   UNL     1       0.530   9.416  22.515  0.00  0.00    +0.000 A 
ATOM      8  C   UNL     1      -0.263  10.365  21.877  0.00  0.00    +0.000 A 
ATOM      9 BR   UNL     1      -1.377  11.499  22.900  0.00  0.00    +0.000 Br
ATOM     10  C   UNL     1      -0.245  10.478  20.490  0.00  0.00    +0.000 A 
ATOM     11  C   UNL     1       0.565   9.623  19.736  0.00  0.00    +0.000 A 
ENDBRANCH   3   5
BRANCH   2  12
ATOM     12  C   UNL     1       2.965   5.660  18.629  0.00  0.00    +0.000 A 
ATOM     13  C   UNL     1       4.095   6.329  18.114  0.00  0.00    +0.000 A 
ATOM     14  C   UNL     1       4.910   5.740  17.145  0.00  0.00    +0.000 A 
ATOM     15  C   UNL     1       4.609   4.471  16.669  0.00  0.00    +0.000 A 
ATOM     16  C   UNL     1       3.495   3.791  17.165  0.00  0.00    +0.000 A 
ATOM     17  C   UNL     1       2.673   4.375  18.142  0.00  0.00    +0.000 A 
ATOM     18 BR   UNL     1       1.244   3.279  18.758  0.00  0.00    +0.000 Br
ENDBRANCH   2  12
TORSDOF 2
ENDMDL
MODEL 3
REMARK VINA RESULT:      -6.4      4.975      6.966
REMARK  Name = 
REMARK  2 active torsions:
REMARK  status: ('A' for Active; 'I' for Inactive)
REMARK    1  A    between atoms: C_2  and  C_11
REMARK    2  A    between atoms: N_3  and  C_4
REMARK                            x       y       z     vdW  Elec       q    Type
REMARK                         _______ _______ _______ _____ _____    ______ ____
ROOT
ATOM      1  O   UNL     1       2.353   7.451  19.885  0.00  0.00    +0.000 OA
ATOM      2  C   UNL     1       2.355   7.312  18.666  0.00  0.00    +0.000 C 
ATOM      3  N   UNL     1       2.020   8.288  17.749  0.00  0.00    +0.000 N 
ATOM      4  H   UNL     1       1.985   8.010  16.776  0.00  0.00    +0.000 HD
ENDROOT
BRANCH   3   5
ATOM      5  C   UNL     1       1.535   9.582  18.035  0.00  0.00    +0.000 A 
ATOM      6  C   UNL     1       2.348  10.715  18.116  0.00  0.00    +0.000 A 
ATOM      7  C   UNL     1       1.805  11.956  18.463  0.00  0.00    +0.000 A 
ATOM      8  C   UNL     1       0.445  12.066  18.733  0.00  0.00    +0.000 A 
ATOM      9 BR   UNL     1      -0.279  13.734  19.249  0.00  0.00    +0.000 Br
ATOM     10  C   UNL     1      -0.384  10.952  18.631  0.00  0.00    +0.000 A 
ATOM     11  C   UNL     1       0.160   9.715  18.269  0.00  0.00    +0.000 A 
ENDBRANCH   3   5
BRANCH   2  12
ATOM     12  C   UNL     1       2.754   5.973  18.124  0.00  0.00    +0.000 A 
ATOM     13  C   UNL     1       1.766   4.972  18.219  0.00  0.00    +0.000 A 
ATOM     14  C   UNL     1       1.980   3.688  17.714  0.00  0.00    +0.000 A 
ATOM     15  C   UNL     1       3.189   3.379  17.104  0.00  0.00    +0.000 A 
ATOM     16  C   UNL     1       4.181   4.356  17.000  0.00  0.00    +0.000 A 
ATOM     17  C   UNL     1       3.972   5.650  17.502  0.00  0.00    +0.000 A 
ATOM     18 BR   UNL     1       5.399   6.874  17.208  0.00  0.00    +0.000 Br
ENDBRANCH   2  12
TORSDOF 2
ENDMDL
MODEL 4
REMARK VINA RESULT:      -6.4      0.383      1.138
REMARK  Name = 
REMARK  2 active torsions:
REMARK  status: ('A' for Active; 'I' for Inactive)
REMARK    1  A    between atoms: C_2  and  C_11
REMARK    2  A    between atoms: N_3  and  C_4
REMARK                            x       y       z     vdW  Elec       q    Type
REMARK                         _______ _______ _______ _____ _____    ______ ____
ROOT
ATOM      1  O   UNL     1       5.875   3.984  19.075  0.00  0.00    +0.000 OA
ATOM      2  C   UNL     1       4.718   4.010  18.669  0.00  0.00    +0.000 C 
ATOM      3  N   UNL     1       4.336   4.181  17.354  0.00  0.00    +0.000 N 
ATOM      4  H   UNL     1       3.343   4.265  17.172  0.00  0.00    +0.000 HD
ENDROOT
BRANCH   3   5
ATOM      5  C   UNL     1       5.185   4.442  16.257  0.00  0.00    +0.000 A 
ATOM      6  C   UNL     1       5.362   3.562  15.187  0.00  0.00    +0.000 A 
ATOM      7  C   UNL     1       6.266   3.861  14.163  0.00  0.00    +0.000 A 
ATOM      8  C   UNL     1       6.997   5.044  14.209  0.00  0.00    +0.000 A 
ATOM      9 BR   UNL     1       8.254   5.424  12.850  0.00  0.00    +0.000 Br
ATOM     10  C   UNL     1       6.813   5.944  15.255  0.00  0.00    +0.000 A 
ATOM     11  C   UNL     1       5.897   5.648  16.269  0.00  0.00    +0.000 A 
ENDBRANCH   3   5
BRANCH   2  12
ATOM     12  C   UNL     1       3.626   3.841  19.682  0.00  0.00    +0.000 A 
ATOM     13  C   UNL     1       3.618   2.599  20.349  0.00  0.00    +0.000 A 
ATOM     14  C   UNL     1       2.688   2.318  21.351  0.00  0.00    +0.000 A 
ATOM     15  C   UNL     1       1.744   3.273  21.704  0.00  0.00    +0.000 A 
ATOM     16  C   UNL     1       1.734   4.509  21.056  0.00  0.00    +0.000 A 
ATOM     17  C   UNL     1       2.669   4.801  20.050  0.00  0.00    +0.000 A 
ATOM     18 BR   UNL     1       2.558   6.557  19.326  0.00  0.00    +0.000 Br
ENDBRANCH   2  12
TORSDOF 2
ENDMDL
MODEL 5
REMARK VINA RESULT:      -6.4      4.856      7.271
REMARK  Name = 
REMARK  2 active torsions:
REMARK  status: ('A' for Active; 'I' for Inactive)
REMARK    1  A    between atoms: C_2  and  C_11
REMARK    2  A    between atoms: N_3  and  C_4
REMARK                            x       y       z     vdW  Elec       q    Type
REMARK                         _______ _______ _______ _____ _____    ______ ____
ROOT
ATOM      1  O   UNL     1       2.455   7.317  19.551  0.00  0.00    +0.000 OA
ATOM      2  C   UNL     1       2.695   7.450  18.355  0.00  0.00    +0.000 C 
ATOM      3  N   UNL     1       2.328   8.534  17.583  0.00  0.00    +0.000 N 
ATOM      4  H   UNL     1       2.518   8.475  16.590  0.00  0.00    +0.000 HD
ENDROOT
BRANCH   3   5
ATOM      5  C   UNL     1       1.546   9.635  17.993  0.00  0.00    +0.000 A 
ATOM      6  C   UNL     1       2.080  10.871  18.362  0.00  0.00    +0.000 A 
ATOM      7  C   UNL     1       1.247  11.898  18.816  0.00  0.00    +0.000 A 
ATOM      8  C   UNL     1      -0.126  11.689  18.901  0.00  0.00    +0.000 A 
ATOM      9 BR   UNL     1      -1.246  13.062  19.560  0.00  0.00    +0.000 Br
ATOM     10  C   UNL     1      -0.677  10.472  18.512  0.00  0.00    +0.000 A 
ATOM     11  C   UNL     1       0.158   9.452  18.045  0.00  0.00    +0.000 A 
ENDBRANCH   3   5
BRANCH   2  12
ATOM     12  C   UNL     1       3.448   6.349  17.673  0.00  0.00    +0.000 A 
ATOM     13  C   UNL     1       4.611   6.757  16.987  0.00  0.00    +0.000 A 
ATOM     14  C   UNL     1       5.437   5.834  16.345  0.00  0.00    +0.000 A 
ATOM     15  C   UNL     1       5.116   4.483  16.373  0.00  0.00    +0.000 A 
ATOM     16  C   UNL     1       3.969   4.058  17.046  0.00  0.00    +0.000 A 
ATOM     17  C   UNL     1       3.135   4.980  17.697  0.00  0.00    +0.000 A 
ATOM     18 BR   UNL     1       1.658   4.220  18.627  0.00  0.00    +0.000 Br
ENDBRANCH   2  12
TORSDOF 2
ENDMDL
MODEL 6
REMARK VINA RESULT:      -6.4      4.261      7.701
REMARK  Name = 
REMARK  2 active torsions:
REMARK  status: ('A' for Active; 'I' for Inactive)
REMARK    1  A    between atoms: C_2  and  C_11
REMARK    2  A    between atoms: N_3  and  C_4
REMARK                            x       y       z     vdW  Elec       q    Type
REMARK                         _______ _______ _______ _____ _____    ______ ____
ROOT
ATOM      1  O   UNL     1       2.255   8.448  17.333  0.00  0.00    +0.000 OA
ATOM      2  C   UNL     1       2.640   7.620  18.154  0.00  0.00    +0.000 C 
ATOM      3  N   UNL     1       2.256   7.571  19.479  0.00  0.00    +0.000 N 
ATOM      4  H   UNL     1       2.716   6.883  20.063  0.00  0.00    +0.000 HD
ENDROOT
BRANCH   3   5
ATOM      5  C   UNL     1       1.434   8.498  20.153  0.00  0.00    +0.000 A 
ATOM      6  C   UNL     1       0.895   9.638  19.552  0.00  0.00    +0.000 A 
ATOM      7  C   UNL     1       0.137  10.544  20.300  0.00  0.00    +0.000 A 
ATOM      8  C   UNL     1      -0.081  10.313  21.654  0.00  0.00    +0.000 A 
ATOM      9 BR   UNL     1      -1.064  11.565  22.674  0.00  0.00    +0.000 Br
ATOM     10  C   UNL     1       0.427   9.169  22.263  0.00  0.00    +0.000 A 
ATOM     11  C   UNL     1       1.172   8.257  21.509  0.00  0.00    +0.000 A 
ENDBRANCH   3   5
BRANCH   2  12
ATOM     12  C   UNL     1       3.603   6.574  17.681  0.00  0.00    +0.000 A 
ATOM     13  C   UNL     1       4.893   7.049  17.368  0.00  0.00    +0.000 A 
ATOM     14  C   UNL     1       5.908   6.183  16.959  0.00  0.00    +0.000 A 
ATOM     15  C   UNL     1       5.652   4.822  16.852  0.00  0.00    +0.000 A 
ATOM     16  C   UNL     1       4.381   4.331  17.157  0.00  0.00    +0.000 A 
ATOM     17  C   UNL     1       3.357   5.196  17.572  0.00  0.00    +0.000 A 
ATOM     18 BR   UNL     1       1.712   4.349  18.018  0.00  0.00    +0.000 Br
ENDBRANCH   2  12
TORSDOF 2
ENDMDL
MODEL 7
REMARK VINA RESULT:      -6.3      3.152      6.860
REMARK  Name = 
REMARK  2 active torsions:
REMARK  status: ('A' for Active; 'I' for Inactive)
REMARK    1  A    between atoms: C_2  and  C_11
REMARK    2  A    between atoms: N_3  and  C_4
REMARK                            x       y       z     vdW  Elec       q    Type
REMARK                         _______ _______ _______ _____ _____    ______ ____
ROOT
ATOM      1  O   UNL     1       4.589   5.722  19.402  0.00  0.00    +0.000 OA
ATOM      2  C   UNL     1       4.382   6.079  18.246  0.00  0.00    +0.000 C 
ATOM      3  N   UNL     1       3.460   7.029  17.856  0.00  0.00    +0.000 N 
ATOM      4  H   UNL     1       3.336   7.165  16.860  0.00  0.00    +0.000 HD
ENDROOT
BRANCH   3   5
ATOM      5  C   UNL     1       2.533   7.695  18.686  0.00  0.00    +0.000 A 
ATOM      6  C   UNL     1       1.920   8.904  18.349  0.00  0.00    +0.000 A 
ATOM      7  C   UNL     1       1.057   9.538  19.249  0.00  0.00    +0.000 A 
ATOM      8  C   UNL     1       0.807   8.962  20.490  0.00  0.00    +0.000 A 
ATOM      9 BR   UNL     1      -0.322   9.844  21.724  0.00  0.00    +0.000 Br
ATOM     10  C   UNL     1       1.389   7.744  20.831  0.00  0.00    +0.000 A 
ATOM     11  C   UNL     1       2.240   7.106  19.923  0.00  0.00    +0.000 A 
ENDBRANCH   3   5
BRANCH   2  12
ATOM     12  C   UNL     1       5.197   5.433  17.167  0.00  0.00    +0.000 A 
ATOM     13  C   UNL     1       4.548   4.391  16.472  0.00  0.00    +0.000 A 
ATOM     14  C   UNL     1       5.167   3.728  15.411  0.00  0.00    +0.000 A 
ATOM     15  C   UNL     1       6.450   4.094  15.024  0.00  0.00    +0.000 A 
ATOM     16  C   UNL     1       7.110   5.122  15.698  0.00  0.00    +0.000 A 
ATOM     17  C   UNL     1       6.492   5.796  16.764  0.00  0.00    +0.000 A 
ATOM     18 BR   UNL     1       7.505   7.219  17.519  0.00  0.00    +0.000 Br
ENDBRANCH   2  12
TORSDOF 2
ENDMDL
MODEL 8
REMARK VINA RESULT:      -6.3      4.939      7.330
REMARK  Name = 
REMARK  2 active torsions:
REMARK  status: ('A' for Active; 'I' for Inactive)
REMARK    1  A    between atoms: C_2  and  C_11
REMARK    2  A    between atoms: N_3  and  C_4
REMARK                            x       y       z     vdW  Elec       q    Type
REMARK                         _______ _______ _______ _____ _____    ______ ____
ROOT
ATOM      1  O   UNL     1       2.432   7.332  19.587  0.00  0.00    +0.000 OA
ATOM      2  C   UNL     1       2.662   7.469  18.390  0.00  0.00    +0.000 C 
ATOM      3  N   UNL     1       2.309   8.566  17.629  0.00  0.00    +0.000 N 
ATOM      4  H   UNL     1       2.489   8.509  16.634  0.00  0.00    +0.000 HD
ENDROOT
BRANCH   3   5
ATOM      5  C   UNL     1       1.552   9.678  18.053  0.00  0.00    +0.000 A 
ATOM      6  C   UNL     1       0.165   9.656  18.215  0.00  0.00    +0.000 A 
ATOM      7  C   UNL     1      -0.526  10.815  18.582  0.00  0.00    +0.000 A 
ATOM      8  C   UNL     1       0.171  12.002  18.787  0.00  0.00    +0.000 A 
ATOM      9 BR   UNL     1      -0.770  13.579  19.234  0.00  0.00    +0.000 Br
ATOM     10  C   UNL     1       1.557  12.034  18.656  0.00  0.00    +0.000 A 
ATOM     11  C   UNL     1       2.246  10.870  18.303  0.00  0.00    +0.000 A 
ENDBRANCH   3   5
BRANCH   2  12
ATOM     12  C   UNL     1       3.387   6.358  17.694  0.00  0.00    +0.000 A 
ATOM     13  C   UNL     1       4.519   6.757  16.952  0.00  0.00    +0.000 A 
ATOM     14  C   UNL     1       5.319   5.825  16.289  0.00  0.00    +0.000 A 
ATOM     15  C   UNL     1       5.002   4.474  16.352  0.00  0.00    +0.000 A 
ATOM     16  C   UNL     1       3.886   4.058  17.080  0.00  0.00    +0.000 A 
ATOM     17  C   UNL     1       3.078   4.990  17.752  0.00  0.00    +0.000 A 
ATOM     18 BR   UNL     1       1.644   4.242  18.756  0.00  0.00    +0.000 Br
ENDBRANCH   2  12
TORSDOF 2
ENDMDL
MODEL 9
REMARK VINA RESULT:      -6.3      4.179      7.624
REMARK  Name = 
REMARK  2 active torsions:
REMARK  status: ('A' for Active; 'I' for Inactive)
REMARK    1  A    between atoms: C_2  and  C_11
REMARK    2  A    between atoms: N_3  and  C_4
REMARK                            x       y       z     vdW  Elec       q    Type
REMARK                         _______ _______ _______ _____ _____    ______ ____
ROOT
ATOM      1  O   UNL     1       2.041   5.881  20.381  0.00  0.00    +0.000 OA
ATOM      2  C   UNL     1       2.405   6.538  19.410  0.00  0.00    +0.000 C 
ATOM      3  N   UNL     1       2.119   7.871  19.195  0.00  0.00    +0.000 N 
ATOM      4  H   UNL     1       2.414   8.265  18.310  0.00  0.00    +0.000 HD
ENDROOT
BRANCH   3   5
ATOM      5  C   UNL     1       1.294   8.695  19.989  0.00  0.00    +0.000 A 
ATOM      6  C   UNL     1       0.505   9.727  19.476  0.00  0.00    +0.000 A 
ATOM      7  C   UNL     1      -0.242  10.543  20.331  0.00  0.00    +0.000 A 
ATOM      8  C   UNL     1      -0.200  10.328  21.705  0.00  0.00    +0.000 A 
ATOM      9 BR   UNL     1      -1.172  11.462  22.863  0.00  0.00    +0.000 Br
ATOM     10  C   UNL     1       0.561   9.287  22.230  0.00  0.00    +0.000 A 
ATOM     11  C   UNL     1       1.295   8.464  21.371  0.00  0.00    +0.000 A 
ENDBRANCH   3   5
BRANCH   2  12
ATOM     12  C   UNL     1       3.230   5.839  18.373  0.00  0.00    +0.000 A 
ATOM     13  C   UNL     1       4.383   6.537  17.957  0.00  0.00    +0.000 A 
ATOM     14  C   UNL     1       5.270   5.988  17.030  0.00  0.00    +0.000 A 
ATOM     15  C   UNL     1       5.023   4.729  16.499  0.00  0.00    +0.000 A 
ATOM     16  C   UNL     1       3.888   4.021  16.897  0.00  0.00    +0.000 A 
ATOM     17  C   UNL     1       2.992   4.565  17.832  0.00  0.00    +0.000 A 
ATOM     18 BR   UNL     1       1.541   3.433  18.316  0.00  0.00    +0.000 Br
ENDBRANCH   2  12
TORSDOF 2
ENDMDL
