MODEL 1
REMARK VINA RESULT:      -7.1      0.000      0.000
REMARK  Name = 
REMARK  6 active torsions:
REMARK  status: ('A' for Active; 'I' for Inactive)
REMARK    1  A    between atoms: C_1  and  C_2
REMARK    2  A    between atoms: C_2  and  C_3
REMARK    3  A    between atoms: C_8  and  C_10
REMARK    4  A    between atoms: C_10  and  C_11
REMARK    5  A    between atoms: C_11  and  C_12
REMARK    6  A    between atoms: C_11  and  C_13
REMARK                            x       y       z     vdW  Elec       q    Type
REMARK                         _______ _______ _______ _____ _____    ______ ____
ROOT
ATOM      1  C   UNL     1       1.068   9.422  19.220  0.00  0.00    +0.000 A 
ATOM      2  N   UNL     1       1.342   9.647  17.951  0.00  0.00    +0.000 NA
ATOM      3  N   UNL     1       2.232   8.717  17.445  0.00  0.00    +0.000 NA
ATOM      4  C   UNL     1       2.542   7.796  18.332  0.00  0.00    +0.000 A 
ATOM      5  N   UNL     1       3.398   6.753  18.046  0.00  0.00    +0.000 N 
ATOM      6  C   UNL     1       3.505   5.570  18.747  0.00  0.00    +0.000 C 
ATOM      7  O   UNL     1       2.851   5.275  19.748  0.00  0.00    +0.000 OA
ATOM      8  S   UNL     1       1.883   8.059  19.877  0.00  0.00    +0.000 S 
ATOM      9  H   UNL     1       3.808   6.851  17.129  0.00  0.00    +0.000 HD
ENDROOT
BRANCH   6  10
ATOM     10  C   UNL     1       4.552   4.583  18.176  0.00  0.00    +0.000 C 
ATOM     11  C   UNL     1       5.767   4.437  19.122  0.00  0.00    +0.000 C 
ATOM     12  N   UNL     1       6.884   4.275  18.239  0.00  0.00    +0.000 N 
ATOM     13  C   UNL     1       6.637   4.778  16.986  0.00  0.00    +0.000 C 
ATOM     14  O   UNL     1       7.432   4.815  16.066  0.00  0.00    +0.000 OA
ATOM     15  C   UNL     1       5.212   5.276  16.956  0.00  0.00    +0.000 C 
ATOM     16  H   UNL     1       7.805   3.930  18.494  0.00  0.00    +0.000 HD
BRANCH  10  17
ATOM     17  C   UNL     1       3.890   3.202  17.811  0.00  0.00    +0.000 C 
ATOM     18  C   UNL     1       2.494   3.343  17.182  0.00  0.00    +0.000 C 
ATOM     19  C   UNL     1       3.807   2.194  18.966  0.00  0.00    +0.000 C 
ENDBRANCH  10  17
ENDBRANCH   6  10
BRANCH   1  21
ATOM     20  C   UNL     1      -0.920  10.919  19.198  0.00  0.00    +0.000 C 
ATOM     21  C   UNL     1       0.134  10.236  20.054  0.00  0.00    +0.000 C 
ENDBRANCH   1  21
TORSDOF 3
ENDMDL
MODEL 2
REMARK VINA RESULT:      -6.8      1.283      1.490
REMARK  Name = 
REMARK  6 active torsions:
REMARK  status: ('A' for Active; 'I' for Inactive)
REMARK    1  A    between atoms: C_1  and  C_2
REMARK    2  A    between atoms: C_2  and  C_3
REMARK    3  A    between atoms: C_8  and  C_10
REMARK    4  A    between atoms: C_10  and  C_11
REMARK    5  A    between atoms: C_11  and  C_12
REMARK    6  A    between atoms: C_11  and  C_13
REMARK                            x       y       z     vdW  Elec       q    Type
REMARK                         _______ _______ _______ _____ _____    ______ ____
ROOT
ATOM      1  C   UNL     1       0.645   9.430  20.679  0.00  0.00    +0.000 A 
ATOM      2  N   UNL     1       0.809   9.869  19.448  0.00  0.00    +0.000 NA
ATOM      3  N   UNL     1       1.607   9.019  18.703  0.00  0.00    +0.000 NA
ATOM      4  C   UNL     1       1.957   7.947  19.380  0.00  0.00    +0.000 A 
ATOM      5  N   UNL     1       2.736   6.950  18.835  0.00  0.00    +0.000 N 
ATOM      6  C   UNL     1       2.856   5.658  19.306  0.00  0.00    +0.000 C 
ATOM      7  O   UNL     1       2.285   5.209  20.300  0.00  0.00    +0.000 OA
ATOM      8  S   UNL     1       1.457   7.951  21.006  0.00  0.00    +0.000 S 
ATOM      9  H   UNL     1       3.064   7.197  17.913  0.00  0.00    +0.000 HD
ENDROOT
BRANCH   6  10
ATOM     10  C   UNL     1       3.802   4.760  18.472  0.00  0.00    +0.000 C 
ATOM     11  C   UNL     1       4.898   4.120  19.353  0.00  0.00    +0.000 C 
ATOM     12  N   UNL     1       6.054   4.082  18.506  0.00  0.00    +0.000 N 
ATOM     13  C   UNL     1       5.987   5.001  17.489  0.00  0.00    +0.000 C 
ATOM     14  O   UNL     1       6.855   5.211  16.663  0.00  0.00    +0.000 OA
ATOM     15  C   UNL     1       4.653   5.701  17.580  0.00  0.00    +0.000 C 
ATOM     16  H   UNL     1       6.893   3.530  18.661  0.00  0.00    +0.000 HD
BRANCH  10  17
ATOM     17  C   UNL     1       2.988   3.700  17.639  0.00  0.00    +0.000 C 
ATOM     18  C   UNL     1       1.491   4.032  17.525  0.00  0.00    +0.000 C 
ATOM     19  C   UNL     1       3.132   2.248  18.117  0.00  0.00    +0.000 C 
ENDBRANCH  10  17
ENDBRANCH   6  10
BRANCH   1  21
ATOM     20  C   UNL     1       0.036   9.463  23.092  0.00  0.00    +0.000 C 
ATOM     21  C   UNL     1      -0.171  10.108  21.730  0.00  0.00    +0.000 C 
ENDBRANCH   1  21
TORSDOF 3
ENDMDL
MODEL 3
REMARK VINA RESULT:      -6.8      2.030      2.840
REMARK  Name = 
REMARK  6 active torsions:
REMARK  status: ('A' for Active; 'I' for Inactive)
REMARK    1  A    between atoms: C_1  and  C_2
REMARK    2  A    between atoms: C_2  and  C_3
REMARK    3  A    between atoms: C_8  and  C_10
REMARK    4  A    between atoms: C_10  and  C_11
REMARK    5  A    between atoms: C_11  and  C_12
REMARK    6  A    between atoms: C_11  and  C_13
REMARK                            x       y       z     vdW  Elec       q    Type
REMARK                         _______ _______ _______ _____ _____    ______ ____
ROOT
ATOM      1  C   UNL     1       1.124   9.675  19.234  0.00  0.00    +0.000 A 
ATOM      2  N   UNL     1       1.042   9.026  20.378  0.00  0.00    +0.000 NA
ATOM      3  N   UNL     1       1.680   7.801  20.320  0.00  0.00    +0.000 NA
ATOM      4  C   UNL     1       2.268   7.603  19.161  0.00  0.00    +0.000 A 
ATOM      5  N   UNL     1       2.983   6.458  18.880  0.00  0.00    +0.000 N 
ATOM      6  C   UNL     1       3.916   6.304  17.875  0.00  0.00    +0.000 C 
ATOM      7  O   UNL     1       4.240   7.175  17.067  0.00  0.00    +0.000 OA
ATOM      8  S   UNL     1       1.985   8.826  18.013  0.00  0.00    +0.000 S 
ATOM      9  H   UNL     1       2.910   5.783  19.626  0.00  0.00    +0.000 HD
ENDROOT
BRANCH   6  10
ATOM     10  C   UNL     1       4.562   4.899  17.815  0.00  0.00    +0.000 C 
ATOM     11  C   UNL     1       3.539   3.823  17.386  0.00  0.00    +0.000 C 
ATOM     12  N   UNL     1       3.916   2.659  18.134  0.00  0.00    +0.000 N 
ATOM     13  C   UNL     1       4.638   2.972  19.258  0.00  0.00    +0.000 C 
ATOM     14  O   UNL     1       5.036   2.179  20.091  0.00  0.00    +0.000 OA
ATOM     15  C   UNL     1       4.848   4.467  19.276  0.00  0.00    +0.000 C 
ATOM     16  H   UNL     1       3.619   1.705  17.950  0.00  0.00    +0.000 HD
BRANCH  10  17
ATOM     17  C   UNL     1       5.855   4.907  16.916  0.00  0.00    +0.000 C 
ATOM     18  C   UNL     1       5.773   3.943  15.722  0.00  0.00    +0.000 C 
ATOM     19  C   UNL     1       7.170   4.648  17.665  0.00  0.00    +0.000 C 
ENDBRANCH  10  17
ENDBRANCH   6  10
BRANCH   1  21
ATOM     20  C   UNL     1       1.649  12.062  18.764  0.00  0.00    +0.000 C 
ATOM     21  C   UNL     1       0.552  11.029  18.971  0.00  0.00    +0.000 C 
ENDBRANCH   1  21
TORSDOF 3
ENDMDL
MODEL 4
REMARK VINA RESULT:      -6.8      3.802      5.618
REMARK  Name = 
REMARK  6 active torsions:
REMARK  status: ('A' for Active; 'I' for Inactive)
REMARK    1  A    between atoms: C_1  and  C_2
REMARK    2  A    between atoms: C_2  and  C_3
REMARK    3  A    between atoms: C_8  and  C_10
REMARK    4  A    between atoms: C_10  and  C_11
REMARK    5  A    between atoms: C_11  and  C_12
REMARK    6  A    between atoms: C_11  and  C_13
REMARK                            x       y       z     vdW  Elec       q    Type
REMARK                         _______ _______ _______ _____ _____    ______ ____
ROOT
ATOM      1  C   UNL     1       7.270   7.003  18.010  0.00  0.00    +0.000 A 
ATOM      2  N   UNL     1       7.908   6.061  18.673  0.00  0.00    +0.000 NA
ATOM      3  N   UNL     1       7.040   5.103  19.165  0.00  0.00    +0.000 NA
ATOM      4  C   UNL     1       5.796   5.328  18.801  0.00  0.00    +0.000 A 
ATOM      5  N   UNL     1       4.759   4.493  19.158  0.00  0.00    +0.000 N 
ATOM      6  C   UNL     1       3.520   4.425  18.553  0.00  0.00    +0.000 C 
ATOM      7  O   UNL     1       3.156   5.116  17.601  0.00  0.00    +0.000 OA
ATOM      8  S   UNL     1       5.567   6.781  17.947  0.00  0.00    +0.000 S 
ATOM      9  H   UNL     1       5.065   3.771  19.792  0.00  0.00    +0.000 HD
ENDROOT
BRANCH   6  10
ATOM     10  C   UNL     1       2.564   3.378  19.174  0.00  0.00    +0.000 C 
ATOM     11  C   UNL     1       1.120   3.921  19.277  0.00  0.00    +0.000 C 
ATOM     12  N   UNL     1       0.615   3.350  20.491  0.00  0.00    +0.000 N 
ATOM     13  C   UNL     1       1.618   2.984  21.353  0.00  0.00    +0.000 C 
ATOM     14  O   UNL     1       1.463   2.524  22.469  0.00  0.00    +0.000 OA
ATOM     15  C   UNL     1       2.939   3.252  20.673  0.00  0.00    +0.000 C 
ATOM     16  H   UNL     1      -0.361   3.299  20.769  0.00  0.00    +0.000 HD
BRANCH  10  17
ATOM     17  C   UNL     1       2.649   2.006  18.405  0.00  0.00    +0.000 C 
ATOM     18  C   UNL     1       3.827   1.127  18.857  0.00  0.00    +0.000 C 
ATOM     19  C   UNL     1       2.682   2.119  16.874  0.00  0.00    +0.000 C 
ENDBRANCH  10  17
ENDBRANCH   6  10
BRANCH   1  21
ATOM     20  C   UNL     1       8.451   9.165  18.364  0.00  0.00    +0.000 C 
ATOM     21  C   UNL     1       7.917   8.173  17.343  0.00  0.00    +0.000 C 
ENDBRANCH   1  21
TORSDOF 3
ENDMDL
MODEL 5
REMARK VINA RESULT:      -6.7      0.934      1.324
REMARK  Name = 
REMARK  6 active torsions:
REMARK  status: ('A' for Active; 'I' for Inactive)
REMARK    1  A    between atoms: C_1  and  C_2
REMARK    2  A    between atoms: C_2  and  C_3
REMARK    3  A    between atoms: C_8  and  C_10
REMARK    4  A    between atoms: C_10  and  C_11
REMARK    5  A    between atoms: C_11  and  C_12
REMARK    6  A    between atoms: C_11  and  C_13
REMARK                            x       y       z     vdW  Elec       q    Type
REMARK                         _______ _______ _______ _____ _____    ______ ____
ROOT
ATOM      1  C   UNL     1       0.998   9.562  19.406  0.00  0.00    +0.000 A 
ATOM      2  N   UNL     1       1.331   9.702  18.139  0.00  0.00    +0.000 NA
ATOM      3  N   UNL     1       2.138   8.667  17.704  0.00  0.00    +0.000 NA
ATOM      4  C   UNL     1       2.328   7.760  18.638  0.00  0.00    +0.000 A 
ATOM      5  N   UNL     1       3.084   6.627  18.425  0.00  0.00    +0.000 N 
ATOM      6  C   UNL     1       3.051   5.471  19.179  0.00  0.00    +0.000 C 
ATOM      7  O   UNL     1       2.341   5.288  20.167  0.00  0.00    +0.000 OA
ATOM      8  S   UNL     1       1.653   8.156  20.147  0.00  0.00    +0.000 S 
ATOM      9  H   UNL     1       3.529   6.643  17.520  0.00  0.00    +0.000 HD
ENDROOT
BRANCH   6  10
ATOM     10  C   UNL     1       4.012   4.362  18.686  0.00  0.00    +0.000 C 
ATOM     11  C   UNL     1       5.464   4.627  19.143  0.00  0.00    +0.000 C 
ATOM     12  N   UNL     1       6.268   4.153  18.055  0.00  0.00    +0.000 N 
ATOM     13  C   UNL     1       5.575   4.115  16.871  0.00  0.00    +0.000 C 
ATOM     14  O   UNL     1       6.035   3.803  15.788  0.00  0.00    +0.000 OA
ATOM     15  C   UNL     1       4.151   4.530  17.151  0.00  0.00    +0.000 C 
ATOM     16  H   UNL     1       7.264   3.956  18.086  0.00  0.00    +0.000 HD
BRANCH  10  17
ATOM     17  C   UNL     1       3.490   2.935  19.099  0.00  0.00    +0.000 C 
ATOM     18  C   UNL     1       4.415   2.211  20.090  0.00  0.00    +0.000 C 
ATOM     19  C   UNL     1       3.189   1.988  17.929  0.00  0.00    +0.000 C 
ENDBRANCH  10  17
ENDBRANCH   6  10
BRANCH   1  21
ATOM     20  C   UNL     1      -0.049  10.041  21.613  0.00  0.00    +0.000 C 
ATOM     21  C   UNL     1       0.125  10.500  20.173  0.00  0.00    +0.000 C 
ENDBRANCH   1  21
TORSDOF 3
ENDMDL
MODEL 6
REMARK VINA RESULT:      -6.6      2.985      4.032
REMARK  Name = 
REMARK  6 active torsions:
REMARK  status: ('A' for Active; 'I' for Inactive)
REMARK    1  A    between atoms: C_1  and  C_2
REMARK    2  A    between atoms: C_2  and  C_3
REMARK    3  A    between atoms: C_8  and  C_10
REMARK    4  A    between atoms: C_10  and  C_11
REMARK    5  A    between atoms: C_11  and  C_12
REMARK    6  A    between atoms: C_11  and  C_13
REMARK                            x       y       z     vdW  Elec       q    Type
REMARK                         _______ _______ _______ _____ _____    ______ ____
ROOT
ATOM      1  C   UNL     1       0.996  10.613  20.841  0.00  0.00    +0.000 A 
ATOM      2  N   UNL     1       0.979  10.164  22.080  0.00  0.00    +0.000 NA
ATOM      3  N   UNL     1       1.151   8.793  22.131  0.00  0.00    +0.000 NA
ATOM      4  C   UNL     1       1.352   8.274  20.939  0.00  0.00    +0.000 A 
ATOM      5  N   UNL     1       1.567   6.926  20.747  0.00  0.00    +0.000 N 
ATOM      6  C   UNL     1       2.134   6.341  19.633  0.00  0.00    +0.000 C 
ATOM      7  O   UNL     1       2.524   6.945  18.634  0.00  0.00    +0.000 OA
ATOM      8  S   UNL     1       1.220   9.385  19.659  0.00  0.00    +0.000 S 
ATOM      9  H   UNL     1       1.456   6.406  21.605  0.00  0.00    +0.000 HD
ENDROOT
BRANCH   6  10
ATOM     10  C   UNL     1       2.254   4.800  19.714  0.00  0.00    +0.000 C 
ATOM     11  C   UNL     1       0.914   4.109  19.375  0.00  0.00    +0.000 C 
ATOM     12  N   UNL     1       0.882   2.961  20.233  0.00  0.00    +0.000 N 
ATOM     13  C   UNL     1       1.690   3.108  21.332  0.00  0.00    +0.000 C 
ATOM     14  O   UNL     1       1.806   2.307  22.241  0.00  0.00    +0.000 OA
ATOM     15  C   UNL     1       2.403   4.433  21.213  0.00  0.00    +0.000 C 
ATOM     16  H   UNL     1       0.270   2.156  20.135  0.00  0.00    +0.000 HD
BRANCH  10  17
ATOM     17  C   UNL     1       3.453   4.277  18.835  0.00  0.00    +0.000 C 
ATOM     18  C   UNL     1       3.003   3.630  17.515  0.00  0.00    +0.000 C 
ATOM     19  C   UNL     1       4.413   3.316  19.550  0.00  0.00    +0.000 C 
ENDBRANCH  10  17
ENDBRANCH   6  10
BRANCH   1  21
ATOM     20  C   UNL     1       0.787  12.196  18.932  0.00  0.00    +0.000 C 
ATOM     21  C   UNL     1       0.851  12.045  20.444  0.00  0.00    +0.000 C 
ENDBRANCH   1  21
TORSDOF 3
ENDMDL
MODEL 7
REMARK VINA RESULT:      -6.6      3.997      5.556
REMARK  Name = 
REMARK  6 active torsions:
REMARK  status: ('A' for Active; 'I' for Inactive)
REMARK    1  A    between atoms: C_1  and  C_2
REMARK    2  A    between atoms: C_2  and  C_3
REMARK    3  A    between atoms: C_8  and  C_10
REMARK    4  A    between atoms: C_10  and  C_11
REMARK    5  A    between atoms: C_11  and  C_12
REMARK    6  A    between atoms: C_11  and  C_13
REMARK                            x       y       z     vdW  Elec       q    Type
REMARK                         _______ _______ _______ _____ _____    ______ ____
ROOT
ATOM      1  C   UNL     1       7.692   7.401  18.089  0.00  0.00    +0.000 A 
ATOM      2  N   UNL     1       8.329   6.635  18.951  0.00  0.00    +0.000 NA
ATOM      3  N   UNL     1       7.527   5.606  19.412  0.00  0.00    +0.000 NA
ATOM      4  C   UNL     1       6.346   5.602  18.834  0.00  0.00    +0.000 A 
ATOM      5  N   UNL     1       5.386   4.655  19.121  0.00  0.00    +0.000 N 
ATOM      6  C   UNL     1       4.291   4.340  18.342  0.00  0.00    +0.000 C 
ATOM      7  O   UNL     1       4.005   4.874  17.269  0.00  0.00    +0.000 OA
ATOM      8  S   UNL     1       6.072   6.915  17.788  0.00  0.00    +0.000 S 
ATOM      9  H   UNL     1       5.675   4.052  19.876  0.00  0.00    +0.000 HD
ENDROOT
BRANCH   6  10
ATOM     10  C   UNL     1       3.394   3.222  18.925  0.00  0.00    +0.000 C 
ATOM     11  C   UNL     1       3.414   1.958  18.035  0.00  0.00    +0.000 C 
ATOM     12  N   UNL     1       2.083   1.438  18.132  0.00  0.00    +0.000 N 
ATOM     13  C   UNL     1       1.172   2.396  18.501  0.00  0.00    +0.000 C 
ATOM     14  O   UNL     1      -0.029   2.232  18.605  0.00  0.00    +0.000 OA
ATOM     15  C   UNL     1       1.923   3.681  18.750  0.00  0.00    +0.000 C 
ATOM     16  H   UNL     1       1.783   0.503  17.868  0.00  0.00    +0.000 HD
BRANCH  10  17
ATOM     17  C   UNL     1       3.766   2.921  20.425  0.00  0.00    +0.000 C 
ATOM     18  C   UNL     1       4.631   1.662  20.598  0.00  0.00    +0.000 C 
ATOM     19  C   UNL     1       2.572   2.831  21.386  0.00  0.00    +0.000 C 
ENDBRANCH  10  17
ENDBRANCH   6  10
BRANCH   1  21
ATOM     20  C   UNL     1       8.649   9.679  18.391  0.00  0.00    +0.000 C 
ATOM     21  C   UNL     1       8.280   8.588  17.398  0.00  0.00    +0.000 C 
ENDBRANCH   1  21
TORSDOF 3
ENDMDL
MODEL 8
REMARK VINA RESULT:      -6.6      2.614      3.081
REMARK  Name = 
REMARK  6 active torsions:
REMARK  status: ('A' for Active; 'I' for Inactive)
REMARK    1  A    between atoms: C_1  and  C_2
REMARK    2  A    between atoms: C_2  and  C_3
REMARK    3  A    between atoms: C_8  and  C_10
REMARK    4  A    between atoms: C_10  and  C_11
REMARK    5  A    between atoms: C_11  and  C_12
REMARK    6  A    between atoms: C_11  and  C_13
REMARK                            x       y       z     vdW  Elec       q    Type
REMARK                         _______ _______ _______ _____ _____    ______ ____
ROOT
ATOM      1  C   UNL     1       0.527  10.699  21.137  0.00  0.00    +0.000 A 
ATOM      2  N   UNL     1       0.865  10.218  22.315  0.00  0.00    +0.000 NA
ATOM      3  N   UNL     1       1.314   8.913  22.227  0.00  0.00    +0.000 NA
ATOM      4  C   UNL     1       1.355   8.486  20.983  0.00  0.00    +0.000 A 
ATOM      5  N   UNL     1       1.789   7.221  20.649  0.00  0.00    +0.000 N 
ATOM      6  C   UNL     1       2.209   6.805  19.402  0.00  0.00    +0.000 C 
ATOM      7  O   UNL     1       2.248   7.511  18.394  0.00  0.00    +0.000 OA
ATOM      8  S   UNL     1       0.733   9.585  19.844  0.00  0.00    +0.000 S 
ATOM      9  H   UNL     1       1.971   6.663  21.470  0.00  0.00    +0.000 HD
ENDROOT
BRANCH   6  10
ATOM     10  C   UNL     1       2.650   5.323  19.340  0.00  0.00    +0.000 C 
ATOM     11  C   UNL     1       4.109   5.145  19.819  0.00  0.00    +0.000 C 
ATOM     12  N   UNL     1       4.627   4.097  18.989  0.00  0.00    +0.000 N 
ATOM     13  C   UNL     1       3.929   3.966  17.815  0.00  0.00    +0.000 C 
ATOM     14  O   UNL     1       4.191   3.191  16.915  0.00  0.00    +0.000 OA
ATOM     15  C   UNL     1       2.785   4.951  17.840  0.00  0.00    +0.000 C 
ATOM     16  H   UNL     1       5.471   3.559  19.161  0.00  0.00    +0.000 HD
BRANCH  10  17
ATOM     17  C   UNL     1       1.635   4.397  20.109  0.00  0.00    +0.000 C 
ATOM     18  C   UNL     1       2.246   3.720  21.347  0.00  0.00    +0.000 C 
ATOM     19  C   UNL     1       0.954   3.322  19.250  0.00  0.00    +0.000 C 
ENDBRANCH  10  17
ENDBRANCH   6  10
BRANCH   1  21
ATOM     20  C   UNL     1      -0.766  12.605  22.081  0.00  0.00    +0.000 C 
ATOM     21  C   UNL     1       0.017  12.080  20.888  0.00  0.00    +0.000 C 
ENDBRANCH   1  21
TORSDOF 3
ENDMDL
MODEL 9
REMARK VINA RESULT:      -6.6      1.656      2.073
REMARK  Name = 
REMARK  6 active torsions:
REMARK  status: ('A' for Active; 'I' for Inactive)
REMARK    1  A    between atoms: C_1  and  C_2
REMARK    2  A    between atoms: C_2  and  C_3
REMARK    3  A    between atoms: C_8  and  C_10
REMARK    4  A    between atoms: C_10  and  C_11
REMARK    5  A    between atoms: C_11  and  C_12
REMARK    6  A    between atoms: C_11  and  C_13
REMARK                            x       y       z     vdW  Elec       q    Type
REMARK                         _______ _______ _______ _____ _____    ______ ____
ROOT
ATOM      1  C   UNL     1       0.550   9.882  20.869  0.00  0.00    +0.000 A 
ATOM      2  N   UNL     1       0.773  10.232  19.618  0.00  0.00    +0.000 NA
ATOM      3  N   UNL     1       1.525   9.286  18.947  0.00  0.00    +0.000 NA
ATOM      4  C   UNL     1       1.783   8.236  19.696  0.00  0.00    +0.000 A 
ATOM      5  N   UNL     1       2.502   7.155  19.231  0.00  0.00    +0.000 N 
ATOM      6  C   UNL     1       2.520   5.890  19.781  0.00  0.00    +0.000 C 
ATOM      7  O   UNL     1       1.896   5.542  20.785  0.00  0.00    +0.000 OA
ATOM      8  S   UNL     1       1.248   8.373  21.304  0.00  0.00    +0.000 S 
ATOM      9  H   UNL     1       2.867   7.323  18.306  0.00  0.00    +0.000 HD
ENDROOT
BRANCH   6  10
ATOM     10  C   UNL     1       3.418   4.879  19.027  0.00  0.00    +0.000 C 
ATOM     11  C   UNL     1       3.821   3.694  19.934  0.00  0.00    +0.000 C 
ATOM     12  N   UNL     1       5.156   3.373  19.522  0.00  0.00    +0.000 N 
ATOM     13  C   UNL     1       5.781   4.428  18.906  0.00  0.00    +0.000 C 
ATOM     14  O   UNL     1       6.931   4.439  18.509  0.00  0.00    +0.000 OA
ATOM     15  C   UNL     1       4.792   5.565  18.813  0.00  0.00    +0.000 C 
ATOM     16  H   UNL     1       5.658   2.515  19.732  0.00  0.00    +0.000 HD
BRANCH  10  17
ATOM     17  C   UNL     1       2.747   4.420  17.679  0.00  0.00    +0.000 C 
ATOM     18  C   UNL     1       1.676   3.334  17.870  0.00  0.00    +0.000 C 
ATOM     19  C   UNL     1       3.725   3.956  16.590  0.00  0.00    +0.000 C 
ENDBRANCH  10  17
ENDBRANCH   6  10
BRANCH   1  21
ATOM     20  C   UNL     1      -0.491   9.885  23.130  0.00  0.00    +0.000 C 
ATOM     21  C   UNL     1      -0.240  10.677  21.856  0.00  0.00    +0.000 C 
ENDBRANCH   1  21
TORSDOF 3
ENDMDL
