MODEL 1
REMARK VINA RESULT:      -7.1      0.000      0.000
REMARK  Name = 
REMARK  18 active torsions:
REMARK  status: ('A' for Active; 'I' for Inactive)
REMARK    1  A    between atoms: C_1  and  C_2
REMARK    2  A    between atoms: C_2  and  C_3
REMARK    3  A    between atoms: C_4  and  C_5
REMARK    4  A    between atoms: C_5  and  C_6
REMARK    5  A    between atoms: C_7  and  C_8
REMARK    6  A    between atoms: C_8  and  C_9
REMARK    7  A    between atoms: C_10  and  C_11
REMARK    8  A    between atoms: C_11  and  C_12
REMARK    9  A    between atoms: C_13  and  C_14
REMARK   10  A    between atoms: C_14  and  C_15
REMARK   11  A    between atoms: C_16  and  C_17
REMARK   12  A    between atoms: C_17  and  C_18
REMARK   13  A    between atoms: C_19  and  C_20
REMARK   14  A    between atoms: C_20  and  C_21
REMARK   15  A    between atoms: C_21  and  C_22
REMARK   16  A    between atoms: N_24  and  S_25
REMARK   17  A    between atoms: S_25  and  C_28
REMARK   18  A    between atoms: C_28  and  C_29
REMARK                            x       y       z     vdW  Elec       q    Type
REMARK                         _______ _______ _______ _____ _____    ______ ____
ROOT
ATOM      1  C   UNL     1       1.830   9.854  18.178  0.00  0.00    +0.000 C 
ATOM      2  C   UNL     1       1.062  10.364  19.158  0.00  0.00    +0.000 C 
ENDROOT
BRANCH   1   3
ATOM      3  C   UNL     1       1.942   8.478  17.574  0.00  0.00    +0.000 C 
BRANCH   3   5
ATOM      4  C   UNL     1       3.910   6.866  17.646  0.00  0.00    +0.000 C 
ATOM      5  C   UNL     1       2.905   7.534  18.233  0.00  0.00    +0.000 C 
BRANCH   4   6
ATOM      6  C   UNL     1       4.357   7.066  16.231  0.00  0.00    +0.000 C 
BRANCH   6   8
ATOM      7  C   UNL     1       6.669   6.062  16.522  0.00  0.00    +0.000 C 
ATOM      8  C   UNL     1       5.480   6.117  15.912  0.00  0.00    +0.000 C 
BRANCH   7   9
ATOM      9  C   UNL     1       7.088   6.925  17.661  0.00  0.00    +0.000 C 
BRANCH   9  11
ATOM     10  C   UNL     1       7.000   5.177  19.455  0.00  0.00    +0.000 C 
ATOM     11  C   UNL     1       7.686   6.101  18.765  0.00  0.00    +0.000 C 
BRANCH  10  12
ATOM     12  C   UNL     1       5.540   4.919  19.267  0.00  0.00    +0.000 C 
BRANCH  12  14
ATOM     13  C   UNL     1       4.047   3.073  18.495  0.00  0.00    +0.000 C 
ATOM     14  C   UNL     1       5.239   3.480  18.964  0.00  0.00    +0.000 C 
BRANCH  13  15
ATOM     15  C   UNL     1       2.931   4.011  18.155  0.00  0.00    +0.000 C 
BRANCH  15  17
ATOM     16  C   UNL     1       0.892   3.453  19.452  0.00  0.00    +0.000 C 
ATOM     17  C   UNL     1       1.564   3.412  18.287  0.00  0.00    +0.000 C 
BRANCH  16  19
ATOM     18  C   UNL     1       2.035   3.161  21.692  0.00  0.00    +0.000 C 
ATOM     19  C   UNL     1       1.464   4.124  20.673  0.00  0.00    +0.000 C 
ENDBRANCH  16  19
ENDBRANCH  15  17
ENDBRANCH  13  15
ENDBRANCH  12  14
ENDBRANCH  10  12
ENDBRANCH   9  11
ENDBRANCH   7   9
ENDBRANCH   6   8
ENDBRANCH   4   6
ENDBRANCH   3   5
ENDBRANCH   1   3
BRANCH   2  20
ATOM     20  C   UNL     1      -0.058   9.715  19.928  0.00  0.00    +0.000 C 
BRANCH  20  21
ATOM     21  C   UNL     1       0.330   9.249  21.331  0.00  0.00    +0.000 C 
BRANCH  21  22
ATOM     22  C   UNL     1      -0.055  10.251  22.420  0.00  0.00    +0.000 C 
ATOM     23  O   UNL     1       0.149  10.079  23.611  0.00  0.00    +0.000 OA
ATOM     24  N   UNL     1      -0.629  11.438  21.936  0.00  0.00    +0.000 N 
ATOM     25  H   UNL     1      -0.824  11.525  20.941  0.00  0.00    +0.000 HD
BRANCH  24  26
ATOM     26  S   UNL     1      -1.550  12.524  22.807  0.00  0.00    +0.000 S 
ATOM     27  O   UNL     1      -2.525  11.667  23.456  0.00  0.00    +0.000 OA
ATOM     28  O   UNL     1      -0.627  13.309  23.599  0.00  0.00    +0.000 OA
BRANCH  26  29
ATOM     29  C   UNL     1      -2.410  13.573  21.603  0.00  0.00    +0.000 C 
BRANCH  29  30
ATOM     30  C   UNL     1      -2.175  13.025  20.206  0.00  0.00    +0.000 A 
ATOM     31  C   UNL     1      -1.067  13.440  19.447  0.00  0.00    +0.000 A 
ATOM     32  C   UNL     1      -0.849  12.936  18.160  0.00  0.00    +0.000 A 
ATOM     33  C   UNL     1      -1.732  12.013  17.607  0.00  0.00    +0.000 A 
ATOM     34  C   UNL     1      -2.836  11.589  18.347  0.00  0.00    +0.000 A 
ATOM     35  C   UNL     1      -3.055  12.090  19.636  0.00  0.00    +0.000 A 
ENDBRANCH  29  30
ENDBRANCH  26  29
ENDBRANCH  24  26
ENDBRANCH  21  22
ENDBRANCH  20  21
ENDBRANCH   2  20
TORSDOF 17
ENDMDL
MODEL 2
REMARK VINA RESULT:      -7.0      3.970     10.287
REMARK  Name = 
REMARK  18 active torsions:
REMARK  status: ('A' for Active; 'I' for Inactive)
REMARK    1  A    between atoms: C_1  and  C_2
REMARK    2  A    between atoms: C_2  and  C_3
REMARK    3  A    between atoms: C_4  and  C_5
REMARK    4  A    between atoms: C_5  and  C_6
REMARK    5  A    between atoms: C_7  and  C_8
REMARK    6  A    between atoms: C_8  and  C_9
REMARK    7  A    between atoms: C_10  and  C_11
REMARK    8  A    between atoms: C_11  and  C_12
REMARK    9  A    between atoms: C_13  and  C_14
REMARK   10  A    between atoms: C_14  and  C_15
REMARK   11  A    between atoms: C_16  and  C_17
REMARK   12  A    between atoms: C_17  and  C_18
REMARK   13  A    between atoms: C_19  and  C_20
REMARK   14  A    between atoms: C_20  and  C_21
REMARK   15  A    between atoms: C_21  and  C_22
REMARK   16  A    between atoms: N_24  and  S_25
REMARK   17  A    between atoms: S_25  and  C_28
REMARK   18  A    between atoms: C_28  and  C_29
REMARK                            x       y       z     vdW  Elec       q    Type
REMARK                         _______ _______ _______ _____ _____    ______ ____
ROOT
ATOM      1  C   UNL     1       1.491  11.192  18.641  0.00  0.00    +0.000 C 
ATOM      2  C   UNL     1       2.030  10.170  17.951  0.00  0.00    +0.000 C 
ENDROOT
BRANCH   1   3
ATOM      3  C   UNL     1       0.555  11.253  19.821  0.00  0.00    +0.000 C 
BRANCH   3   5
ATOM      4  C   UNL     1      -1.765  10.471  19.130  0.00  0.00    +0.000 C 
ATOM      5  C   UNL     1      -0.612  10.311  19.798  0.00  0.00    +0.000 C 
BRANCH   4   6
ATOM      6  C   UNL     1      -2.037  11.566  18.145  0.00  0.00    +0.000 C 
BRANCH   6   8
ATOM      7  C   UNL     1      -3.719  11.080  16.309  0.00  0.00    +0.000 C 
ATOM      8  C   UNL     1      -2.496  10.976  16.839  0.00  0.00    +0.000 C 
BRANCH   7   9
ATOM      9  C   UNL     1      -4.854  11.832  16.914  0.00  0.00    +0.000 C 
BRANCH   9  11
ATOM     10  C   UNL     1      -5.923  11.400  19.139  0.00  0.00    +0.000 C 
ATOM     11  C   UNL     1      -5.591  10.981  17.909  0.00  0.00    +0.000 C 
BRANCH  10  12
ATOM     12  C   UNL     1      -5.523  12.727  19.698  0.00  0.00    +0.000 C 
BRANCH  12  14
ATOM     13  C   UNL     1      -4.695  12.821  22.051  0.00  0.00    +0.000 C 
ATOM     14  C   UNL     1      -5.721  12.815  21.184  0.00  0.00    +0.000 C 
BRANCH  13  15
ATOM     15  C   UNL     1      -3.259  12.817  21.630  0.00  0.00    +0.000 C 
BRANCH  15  17
ATOM     16  C   UNL     1      -1.171  12.509  22.931  0.00  0.00    +0.000 C 
ATOM     17  C   UNL     1      -2.358  12.023  22.526  0.00  0.00    +0.000 C 
BRANCH  16  19
ATOM     18  C   UNL     1      -0.938  14.944  23.580  0.00  0.00    +0.000 C 
ATOM     19  C   UNL     1      -0.697  13.881  22.530  0.00  0.00    +0.000 C 
ENDBRANCH  16  19
ENDBRANCH  15  17
ENDBRANCH  13  15
ENDBRANCH  12  14
ENDBRANCH  10  12
ENDBRANCH   9  11
ENDBRANCH   7   9
ENDBRANCH   6   8
ENDBRANCH   4   6
ENDBRANCH   3   5
ENDBRANCH   1   3
BRANCH   2  20
ATOM     20  C   UNL     1       1.948   8.690  18.219  0.00  0.00    +0.000 C 
BRANCH  20  21
ATOM     21  C   UNL     1       2.966   7.853  17.445  0.00  0.00    +0.000 C 
BRANCH  21  22
ATOM     22  C   UNL     1       3.381   6.582  18.187  0.00  0.00    +0.000 C 
ATOM     23  O   UNL     1       3.159   6.376  19.369  0.00  0.00    +0.000 OA
ATOM     24  N   UNL     1       4.006   5.619  17.377  0.00  0.00    +0.000 N 
ATOM     25  H   UNL     1       4.213   5.846  16.407  0.00  0.00    +0.000 HD
BRANCH  24  26
ATOM     26  S   UNL     1       4.962   4.353  17.896  0.00  0.00    +0.000 S 
ATOM     27  O   UNL     1       5.935   4.229  16.825  0.00  0.00    +0.000 OA
ATOM     28  O   UNL     1       5.392   4.681  19.238  0.00  0.00    +0.000 OA
BRANCH  26  29
ATOM     29  C   UNL     1       3.917   2.871  17.903  0.00  0.00    +0.000 C 
BRANCH  29  30
ATOM     30  C   UNL     1       2.988   2.921  19.105  0.00  0.00    +0.000 A 
ATOM     31  C   UNL     1       3.444   2.555  20.383  0.00  0.00    +0.000 A 
ATOM     32  C   UNL     1       2.590   2.602  21.490  0.00  0.00    +0.000 A 
ATOM     33  C   UNL     1       1.268   3.011  21.342  0.00  0.00    +0.000 A 
ATOM     34  C   UNL     1       0.800   3.379  20.081  0.00  0.00    +0.000 A 
ATOM     35  C   UNL     1       1.653   3.335  18.971  0.00  0.00    +0.000 A 
ENDBRANCH  29  30
ENDBRANCH  26  29
ENDBRANCH  24  26
ENDBRANCH  21  22
ENDBRANCH  20  21
ENDBRANCH   2  20
TORSDOF 17
ENDMDL
MODEL 3
REMARK VINA RESULT:      -6.9      4.579     10.337
REMARK  Name = 
REMARK  18 active torsions:
REMARK  status: ('A' for Active; 'I' for Inactive)
REMARK    1  A    between atoms: C_1  and  C_2
REMARK    2  A    between atoms: C_2  and  C_3
REMARK    3  A    between atoms: C_4  and  C_5
REMARK    4  A    between atoms: C_5  and  C_6
REMARK    5  A    between atoms: C_7  and  C_8
REMARK    6  A    between atoms: C_8  and  C_9
REMARK    7  A    between atoms: C_10  and  C_11
REMARK    8  A    between atoms: C_11  and  C_12
REMARK    9  A    between atoms: C_13  and  C_14
REMARK   10  A    between atoms: C_14  and  C_15
REMARK   11  A    between atoms: C_16  and  C_17
REMARK   12  A    between atoms: C_17  and  C_18
REMARK   13  A    between atoms: C_19  and  C_20
REMARK   14  A    between atoms: C_20  and  C_21
REMARK   15  A    between atoms: C_21  and  C_22
REMARK   16  A    between atoms: N_24  and  S_25
REMARK   17  A    between atoms: S_25  and  C_28
REMARK   18  A    between atoms: C_28  and  C_29
REMARK                            x       y       z     vdW  Elec       q    Type
REMARK                         _______ _______ _______ _____ _____    ______ ____
ROOT
ATOM      1  C   UNL     1       1.916   6.913  20.596  0.00  0.00    +0.000 C 
ATOM      2  C   UNL     1       2.608   6.619  19.481  0.00  0.00    +0.000 C 
ENDROOT
BRANCH   1   3
ATOM      3  C   UNL     1       0.843   7.927  20.901  0.00  0.00    +0.000 C 
BRANCH   3   5
ATOM      4  C   UNL     1       0.580  10.037  22.298  0.00  0.00    +0.000 C 
ATOM      5  C   UNL     1       1.075   8.807  22.095  0.00  0.00    +0.000 C 
BRANCH   4   6
ATOM      6  C   UNL     1      -0.438  10.704  21.425  0.00  0.00    +0.000 C 
BRANCH   6   8
ATOM      7  C   UNL     1      -1.538  12.633  22.652  0.00  0.00    +0.000 C 
ATOM      8  C   UNL     1      -0.600  12.142  21.835  0.00  0.00    +0.000 C 
BRANCH   7   9
ATOM      9  C   UNL     1      -2.590  11.827  23.330  0.00  0.00    +0.000 C 
BRANCH   9  11
ATOM     10  C   UNL     1      -4.802  13.003  23.247  0.00  0.00    +0.000 C 
ATOM     11  C   UNL     1      -3.664  12.712  23.895  0.00  0.00    +0.000 C 
BRANCH  10  12
ATOM     12  C   UNL     1      -5.098  12.553  21.853  0.00  0.00    +0.000 C 
BRANCH  12  14
ATOM     13  C   UNL     1      -4.297  13.059  19.543  0.00  0.00    +0.000 C 
ATOM     14  C   UNL     1      -4.495  13.453  20.813  0.00  0.00    +0.000 C 
BRANCH  13  15
ATOM     15  C   UNL     1      -4.721  11.723  19.018  0.00  0.00    +0.000 C 
BRANCH  15  17
ATOM     16  C   UNL     1      -3.838  10.722  16.928  0.00  0.00    +0.000 C 
ATOM     17  C   UNL     1      -4.661  11.603  17.525  0.00  0.00    +0.000 C 
BRANCH  16  19
ATOM     18  C   UNL     1      -1.504  10.218  17.767  0.00  0.00    +0.000 C 
ATOM     19  C   UNL     1      -2.956   9.796  17.723  0.00  0.00    +0.000 C 
ENDBRANCH  16  19
ENDBRANCH  15  17
ENDBRANCH  13  15
ENDBRANCH  12  14
ENDBRANCH  10  12
ENDBRANCH   9  11
ENDBRANCH   7   9
ENDBRANCH   6   8
ENDBRANCH   4   6
ENDBRANCH   3   5
ENDBRANCH   1   3
BRANCH   2  20
ATOM     20  C   UNL     1       2.448   7.167  18.087  0.00  0.00    +0.000 C 
BRANCH  20  21
ATOM     21  C   UNL     1       3.692   7.865  17.539  0.00  0.00    +0.000 C 
BRANCH  21  22
ATOM     22  C   UNL     1       4.684   6.897  16.893  0.00  0.00    +0.000 C 
ATOM     23  O   UNL     1       4.801   6.739  15.689  0.00  0.00    +0.000 OA
ATOM     24  N   UNL     1       5.511   6.223  17.807  0.00  0.00    +0.000 N 
ATOM     25  H   UNL     1       5.353   6.348  18.804  0.00  0.00    +0.000 HD
BRANCH  24  26
ATOM     26  S   UNL     1       6.366   4.818  17.525  0.00  0.00    +0.000 S 
ATOM     27  O   UNL     1       7.325   5.226  16.513  0.00  0.00    +0.000 OA
ATOM     28  O   UNL     1       6.824   4.344  18.814  0.00  0.00    +0.000 OA
BRANCH  26  29
ATOM     29  C   UNL     1       5.210   3.634  16.783  0.00  0.00    +0.000 C 
BRANCH  29  30
ATOM     30  C   UNL     1       4.026   3.442  17.715  0.00  0.00    +0.000 A 
ATOM     31  C   UNL     1       2.711   3.635  17.257  0.00  0.00    +0.000 A 
ATOM     32  C   UNL     1       1.619   3.457  18.114  0.00  0.00    +0.000 A 
ATOM     33  C   UNL     1       1.819   3.088  19.441  0.00  0.00    +0.000 A 
ATOM     34  C   UNL     1       3.117   2.891  19.911  0.00  0.00    +0.000 A 
ATOM     35  C   UNL     1       4.212   3.066  19.055  0.00  0.00    +0.000 A 
ENDBRANCH  29  30
ENDBRANCH  26  29
ENDBRANCH  24  26
ENDBRANCH  21  22
ENDBRANCH  20  21
ENDBRANCH   2  20
TORSDOF 17
ENDMDL
MODEL 4
REMARK VINA RESULT:      -6.8      4.278     10.099
REMARK  Name = 
REMARK  18 active torsions:
REMARK  status: ('A' for Active; 'I' for Inactive)
REMARK    1  A    between atoms: C_1  and  C_2
REMARK    2  A    between atoms: C_2  and  C_3
REMARK    3  A    between atoms: C_4  and  C_5
REMARK    4  A    between atoms: C_5  and  C_6
REMARK    5  A    between atoms: C_7  and  C_8
REMARK    6  A    between atoms: C_8  and  C_9
REMARK    7  A    between atoms: C_10  and  C_11
REMARK    8  A    between atoms: C_11  and  C_12
REMARK    9  A    between atoms: C_13  and  C_14
REMARK   10  A    between atoms: C_14  and  C_15
REMARK   11  A    between atoms: C_16  and  C_17
REMARK   12  A    between atoms: C_17  and  C_18
REMARK   13  A    between atoms: C_19  and  C_20
REMARK   14  A    between atoms: C_20  and  C_21
REMARK   15  A    between atoms: C_21  and  C_22
REMARK   16  A    between atoms: N_24  and  S_25
REMARK   17  A    between atoms: S_25  and  C_28
REMARK   18  A    between atoms: C_28  and  C_29
REMARK                            x       y       z     vdW  Elec       q    Type
REMARK                         _______ _______ _______ _____ _____    ______ ____
ROOT
ATOM      1  C   UNL     1       1.475   7.561  21.058  0.00  0.00    +0.000 C 
ATOM      2  C   UNL     1       2.207   7.051  20.051  0.00  0.00    +0.000 C 
ENDROOT
BRANCH   1   3
ATOM      3  C   UNL     1       0.275   8.473  21.096  0.00  0.00    +0.000 C 
BRANCH   3   5
ATOM      4  C   UNL     1       0.772  10.934  20.686  0.00  0.00    +0.000 C 
ATOM      5  C   UNL     1       0.530   9.895  21.500  0.00  0.00    +0.000 C 
BRANCH   4   6
ATOM      6  C   UNL     1       0.676  10.890  19.193  0.00  0.00    +0.000 C 
BRANCH   6   8
ATOM      7  C   UNL     1      -1.835  11.127  18.914  0.00  0.00    +0.000 C 
ATOM      8  C   UNL     1      -0.699  10.435  18.783  0.00  0.00    +0.000 C 
BRANCH   7   9
ATOM      9  C   UNL     1      -1.940  12.503  19.475  0.00  0.00    +0.000 C 
BRANCH   9  11
ATOM     10  C   UNL     1      -3.429  12.638  21.487  0.00  0.00    +0.000 C 
ATOM     11  C   UNL     1      -3.263  12.704  20.157  0.00  0.00    +0.000 C 
BRANCH  10  12
ATOM     12  C   UNL     1      -2.339  12.270  22.439  0.00  0.00    +0.000 C 
BRANCH  12  14
ATOM     13  C   UNL     1      -0.897  14.154  23.218  0.00  0.00    +0.000 C 
ATOM     14  C   UNL     1      -1.988  13.385  23.381  0.00  0.00    +0.000 C 
BRANCH  13  15
ATOM     15  C   UNL     1       0.033  14.029  22.052  0.00  0.00    +0.000 C 
BRANCH  15  17
ATOM     16  C   UNL     1       1.468  15.551  20.720  0.00  0.00    +0.000 C 
ATOM     17  C   UNL     1       1.010  15.159  21.922  0.00  0.00    +0.000 C 
BRANCH  16  19
ATOM     18  C   UNL     1      -0.126  15.629  18.755  0.00  0.00    +0.000 C 
ATOM     19  C   UNL     1       1.006  14.897  19.444  0.00  0.00    +0.000 C 
ENDBRANCH  16  19
ENDBRANCH  15  17
ENDBRANCH  13  15
ENDBRANCH  12  14
ENDBRANCH  10  12
ENDBRANCH   9  11
ENDBRANCH   7   9
ENDBRANCH   6   8
ENDBRANCH   4   6
ENDBRANCH   3   5
ENDBRANCH   1   3
BRANCH   2  20
ATOM     20  C   UNL     1       1.985   7.151  18.565  0.00  0.00    +0.000 C 
BRANCH  20  21
ATOM     21  C   UNL     1       3.133   7.807  17.800  0.00  0.00    +0.000 C 
BRANCH  21  22
ATOM     22  C   UNL     1       4.281   6.842  17.503  0.00  0.00    +0.000 C 
ATOM     23  O   UNL     1       5.362   7.182  17.049  0.00  0.00    +0.000 OA
ATOM     24  N   UNL     1       4.016   5.506  17.847  0.00  0.00    +0.000 N 
ATOM     25  H   UNL     1       3.088   5.255  18.181  0.00  0.00    +0.000 HD
BRANCH  24  26
ATOM     26  S   UNL     1       4.816   4.155  17.281  0.00  0.00    +0.000 S 
ATOM     27  O   UNL     1       4.890   4.404  15.852  0.00  0.00    +0.000 OA
ATOM     28  O   UNL     1       6.028   4.033  18.063  0.00  0.00    +0.000 OA
BRANCH  26  29
ATOM     29  C   UNL     1       3.725   2.735  17.566  0.00  0.00    +0.000 C 
BRANCH  29  30
ATOM     30  C   UNL     1       2.905   2.980  18.821  0.00  0.00    +0.000 A 
ATOM     31  C   UNL     1       3.466   2.794  20.096  0.00  0.00    +0.000 A 
ATOM     32  C   UNL     1       2.711   3.020  21.252  0.00  0.00    +0.000 A 
ATOM     33  C   UNL     1       1.385   3.432  21.158  0.00  0.00    +0.000 A 
ATOM     34  C   UNL     1       0.813   3.623  19.900  0.00  0.00    +0.000 A 
ATOM     35  C   UNL     1       1.567   3.400  18.741  0.00  0.00    +0.000 A 
ENDBRANCH  29  30
ENDBRANCH  26  29
ENDBRANCH  24  26
ENDBRANCH  21  22
ENDBRANCH  20  21
ENDBRANCH   2  20
TORSDOF 17
ENDMDL
MODEL 5
REMARK VINA RESULT:      -6.8      4.336      9.211
REMARK  Name = 
REMARK  18 active torsions:
REMARK  status: ('A' for Active; 'I' for Inactive)
REMARK    1  A    between atoms: C_1  and  C_2
REMARK    2  A    between atoms: C_2  and  C_3
REMARK    3  A    between atoms: C_4  and  C_5
REMARK    4  A    between atoms: C_5  and  C_6
REMARK    5  A    between atoms: C_7  and  C_8
REMARK    6  A    between atoms: C_8  and  C_9
REMARK    7  A    between atoms: C_10  and  C_11
REMARK    8  A    between atoms: C_11  and  C_12
REMARK    9  A    between atoms: C_13  and  C_14
REMARK   10  A    between atoms: C_14  and  C_15
REMARK   11  A    between atoms: C_16  and  C_17
REMARK   12  A    between atoms: C_17  and  C_18
REMARK   13  A    between atoms: C_19  and  C_20
REMARK   14  A    between atoms: C_20  and  C_21
REMARK   15  A    between atoms: C_21  and  C_22
REMARK   16  A    between atoms: N_24  and  S_25
REMARK   17  A    between atoms: S_25  and  C_28
REMARK   18  A    between atoms: C_28  and  C_29
REMARK                            x       y       z     vdW  Elec       q    Type
REMARK                         _______ _______ _______ _____ _____    ______ ____
ROOT
ATOM      1  C   UNL     1       1.306   3.637  17.707  0.00  0.00    +0.000 C 
ATOM      2  C   UNL     1       2.535   3.898  17.226  0.00  0.00    +0.000 C 
ENDROOT
BRANCH   1   3
ATOM      3  C   UNL     1       0.754   2.525  18.562  0.00  0.00    +0.000 C 
BRANCH   3   5
ATOM      4  C   UNL     1       1.293   3.546  20.830  0.00  0.00    +0.000 C 
ATOM      5  C   UNL     1       1.200   2.499  19.995  0.00  0.00    +0.000 C 
BRANCH   4   6
ATOM      6  C   UNL     1       0.810   4.929  20.522  0.00  0.00    +0.000 C 
BRANCH   6   8
ATOM      7  C   UNL     1       2.410   6.837  20.035  0.00  0.00    +0.000 C 
ATOM      8  C   UNL     1       1.879   5.931  20.863  0.00  0.00    +0.000 C 
BRANCH   7   9
ATOM      9  C   UNL     1       2.011   7.035  18.614  0.00  0.00    +0.000 C 
BRANCH   9  11
ATOM     10  C   UNL     1       2.199   9.332  17.628  0.00  0.00    +0.000 C 
ATOM     11  C   UNL     1       2.771   8.176  17.998  0.00  0.00    +0.000 C 
BRANCH  10  12
ATOM     12  C   UNL     1       0.729   9.589  17.701  0.00  0.00    +0.000 C 
BRANCH  12  14
ATOM     13  C   UNL     1      -0.739  11.086  19.056  0.00  0.00    +0.000 C 
ATOM     14  C   UNL     1       0.319  10.262  18.979  0.00  0.00    +0.000 C 
BRANCH  13  15
ATOM     15  C   UNL     1      -1.657  11.359  17.906  0.00  0.00    +0.000 C 
BRANCH  15  17
ATOM     16  C   UNL     1      -3.446   9.759  17.281  0.00  0.00    +0.000 C 
ATOM     17  C   UNL     1      -2.154  10.128  17.211  0.00  0.00    +0.000 C 
BRANCH  16  19
ATOM     18  C   UNL     1      -5.034  11.730  17.244  0.00  0.00    +0.000 C 
ATOM     19  C   UNL     1      -4.462  10.574  18.037  0.00  0.00    +0.000 C 
ENDBRANCH  16  19
ENDBRANCH  15  17
ENDBRANCH  13  15
ENDBRANCH  12  14
ENDBRANCH  10  12
ENDBRANCH   9  11
ENDBRANCH   7   9
ENDBRANCH   6   8
ENDBRANCH   4   6
ENDBRANCH   3   5
ENDBRANCH   1   3
BRANCH   2  20
ATOM     20  C   UNL     1       3.834   3.184  17.489  0.00  0.00    +0.000 C 
BRANCH  20  21
ATOM     21  C   UNL     1       4.279   3.204  18.951  0.00  0.00    +0.000 C 
BRANCH  21  22
ATOM     22  C   UNL     1       5.298   4.305  19.250  0.00  0.00    +0.000 C 
ATOM     23  O   UNL     1       5.011   5.394  19.718  0.00  0.00    +0.000 OA
ATOM     24  N   UNL     1       6.631   3.945  18.988  0.00  0.00    +0.000 N 
ATOM     25  H   UNL     1       6.825   3.045  18.556  0.00  0.00    +0.000 HD
BRANCH  24  26
ATOM     26  S   UNL     1       7.917   4.986  18.770  0.00  0.00    +0.000 S 
ATOM     27  O   UNL     1       8.103   5.545  20.098  0.00  0.00    +0.000 OA
ATOM     28  O   UNL     1       8.973   4.216  18.150  0.00  0.00    +0.000 OA
BRANCH  26  29
ATOM     29  C   UNL     1       7.350   6.303  17.661  0.00  0.00    +0.000 C 
BRANCH  29  30
ATOM     30  C   UNL     1       6.667   5.681  16.455  0.00  0.00    +0.000 A 
ATOM     31  C   UNL     1       7.235   4.578  15.794  0.00  0.00    +0.000 A 
ATOM     32  C   UNL     1       6.607   4.004  14.684  0.00  0.00    +0.000 A 
ATOM     33  C   UNL     1       5.403   4.519  14.212  0.00  0.00    +0.000 A 
ATOM     34  C   UNL     1       4.824   5.612  14.857  0.00  0.00    +0.000 A 
ATOM     35  C   UNL     1       5.449   6.187  15.970  0.00  0.00    +0.000 A 
ENDBRANCH  29  30
ENDBRANCH  26  29
ENDBRANCH  24  26
ENDBRANCH  21  22
ENDBRANCH  20  21
ENDBRANCH   2  20
TORSDOF 17
ENDMDL
MODEL 6
REMARK VINA RESULT:      -6.7      6.024     10.165
REMARK  Name = 
REMARK  18 active torsions:
REMARK  status: ('A' for Active; 'I' for Inactive)
REMARK    1  A    between atoms: C_1  and  C_2
REMARK    2  A    between atoms: C_2  and  C_3
REMARK    3  A    between atoms: C_4  and  C_5
REMARK    4  A    between atoms: C_5  and  C_6
REMARK    5  A    between atoms: C_7  and  C_8
REMARK    6  A    between atoms: C_8  and  C_9
REMARK    7  A    between atoms: C_10  and  C_11
REMARK    8  A    between atoms: C_11  and  C_12
REMARK    9  A    between atoms: C_13  and  C_14
REMARK   10  A    between atoms: C_14  and  C_15
REMARK   11  A    between atoms: C_16  and  C_17
REMARK   12  A    between atoms: C_17  and  C_18
REMARK   13  A    between atoms: C_19  and  C_20
REMARK   14  A    between atoms: C_20  and  C_21
REMARK   15  A    between atoms: C_21  and  C_22
REMARK   16  A    between atoms: N_24  and  S_25
REMARK   17  A    between atoms: S_25  and  C_28
REMARK   18  A    between atoms: C_28  and  C_29
REMARK                            x       y       z     vdW  Elec       q    Type
REMARK                         _______ _______ _______ _____ _____    ______ ____
ROOT
ATOM      1  C   UNL     1       9.188  11.512  17.952  0.00  0.00    +0.000 C 
ATOM      2  C   UNL     1       8.325  10.515  18.218  0.00  0.00    +0.000 C 
ENDROOT
BRANCH   1   3
ATOM      3  C   UNL     1      10.690  11.569  17.845  0.00  0.00    +0.000 C 
BRANCH   3   5
ATOM      4  C   UNL     1      11.708  12.338  20.047  0.00  0.00    +0.000 C 
ATOM      5  C   UNL     1      11.458  11.397  19.123  0.00  0.00    +0.000 C 
BRANCH   4   6
ATOM      6  C   UNL     1      11.121  13.715  20.044  0.00  0.00    +0.000 C 
BRANCH   6   8
ATOM      7  C   UNL     1       8.875  14.165  21.135  0.00  0.00    +0.000 C 
ATOM      8  C   UNL     1      10.177  13.871  21.205  0.00  0.00    +0.000 C 
BRANCH   7   9
ATOM      9  C   UNL     1       8.109  14.368  19.874  0.00  0.00    +0.000 C 
BRANCH   9  11
ATOM     10  C   UNL     1       6.262  16.033  19.562  0.00  0.00    +0.000 C 
ATOM     11  C   UNL     1       7.554  15.762  19.802  0.00  0.00    +0.000 C 
BRANCH  10  12
ATOM     12  C   UNL     1       5.241  14.988  19.251  0.00  0.00    +0.000 C 
BRANCH  12  14
ATOM     13  C   UNL     1       3.610  15.723  17.510  0.00  0.00    +0.000 C 
ATOM     14  C   UNL     1       4.737  15.070  17.839  0.00  0.00    +0.000 C 
BRANCH  13  15
ATOM     15  C   UNL     1       2.786  16.493  18.493  0.00  0.00    +0.000 C 
BRANCH  15  17
ATOM     16  C   UNL     1       0.890  15.253  19.500  0.00  0.00    +0.000 C 
ATOM     17  C   UNL     1       1.346  16.081  18.544  0.00  0.00    +0.000 C 
BRANCH  16  19
ATOM     18  C   UNL     1       1.443  15.212  21.970  0.00  0.00    +0.000 C 
ATOM     19  C   UNL     1       1.791  14.719  20.582  0.00  0.00    +0.000 C 
ENDBRANCH  16  19
ENDBRANCH  15  17
ENDBRANCH  13  15
ENDBRANCH  12  14
ENDBRANCH  10  12
ENDBRANCH   9  11
ENDBRANCH   7   9
ENDBRANCH   6   8
ENDBRANCH   4   6
ENDBRANCH   3   5
ENDBRANCH   1   3
BRANCH   2  20
ATOM     20  C   UNL     1       8.594   9.045  18.400  0.00  0.00    +0.000 C 
BRANCH  20  21
ATOM     21  C   UNL     1       7.964   8.153  17.331  0.00  0.00    +0.000 C 
BRANCH  21  22
ATOM     22  C   UNL     1       7.224   6.950  17.917  0.00  0.00    +0.000 C 
ATOM     23  O   UNL     1       7.747   6.100  18.620  0.00  0.00    +0.000 OA
ATOM     24  N   UNL     1       5.850   6.918  17.624  0.00  0.00    +0.000 N 
ATOM     25  H   UNL     1       5.461   7.620  16.998  0.00  0.00    +0.000 HD
BRANCH  24  26
ATOM     26  S   UNL     1       4.847   5.587  17.704  0.00  0.00    +0.000 S 
ATOM     27  O   UNL     1       4.887   5.075  16.345  0.00  0.00    +0.000 OA
ATOM     28  O   UNL     1       5.322   4.775  18.803  0.00  0.00    +0.000 OA
BRANCH  26  29
ATOM     29  C   UNL     1       3.175   6.204  18.041  0.00  0.00    +0.000 C 
BRANCH  29  30
ATOM     30  C   UNL     1       2.356   5.099  18.685  0.00  0.00    +0.000 A 
ATOM     31  C   UNL     1       2.046   5.138  20.055  0.00  0.00    +0.000 A 
ATOM     32  C   UNL     1       1.290   4.121  20.650  0.00  0.00    +0.000 A 
ATOM     33  C   UNL     1       0.833   3.048  19.890  0.00  0.00    +0.000 A 
ATOM     34  C   UNL     1       1.131   2.995  18.528  0.00  0.00    +0.000 A 
ATOM     35  C   UNL     1       1.885   4.012  17.930  0.00  0.00    +0.000 A 
ENDBRANCH  29  30
ENDBRANCH  26  29
ENDBRANCH  24  26
ENDBRANCH  21  22
ENDBRANCH  20  21
ENDBRANCH   2  20
TORSDOF 17
ENDMDL
MODEL 7
REMARK VINA RESULT:      -6.7      6.027     10.003
REMARK  Name = 
REMARK  18 active torsions:
REMARK  status: ('A' for Active; 'I' for Inactive)
REMARK    1  A    between atoms: C_1  and  C_2
REMARK    2  A    between atoms: C_2  and  C_3
REMARK    3  A    between atoms: C_4  and  C_5
REMARK    4  A    between atoms: C_5  and  C_6
REMARK    5  A    between atoms: C_7  and  C_8
REMARK    6  A    between atoms: C_8  and  C_9
REMARK    7  A    between atoms: C_10  and  C_11
REMARK    8  A    between atoms: C_11  and  C_12
REMARK    9  A    between atoms: C_13  and  C_14
REMARK   10  A    between atoms: C_14  and  C_15
REMARK   11  A    between atoms: C_16  and  C_17
REMARK   12  A    between atoms: C_17  and  C_18
REMARK   13  A    between atoms: C_19  and  C_20
REMARK   14  A    between atoms: C_20  and  C_21
REMARK   15  A    between atoms: C_21  and  C_22
REMARK   16  A    between atoms: N_24  and  S_25
REMARK   17  A    between atoms: S_25  and  C_28
REMARK   18  A    between atoms: C_28  and  C_29
REMARK                            x       y       z     vdW  Elec       q    Type
REMARK                         _______ _______ _______ _____ _____    ______ ____
ROOT
ATOM      1  C   UNL     1       9.598  11.853  18.481  0.00  0.00    +0.000 C 
ATOM      2  C   UNL     1       9.138  10.741  17.879  0.00  0.00    +0.000 C 
ENDROOT
BRANCH   1   3
ATOM      3  C   UNL     1       9.884  12.197  19.921  0.00  0.00    +0.000 C 
BRANCH   3   5
ATOM      4  C   UNL     1      10.342  14.687  20.172  0.00  0.00    +0.000 C 
ATOM      5  C   UNL     1      10.741  13.406  20.161  0.00  0.00    +0.000 C 
BRANCH   4   6
ATOM      6  C   UNL     1       8.917  15.140  20.101  0.00  0.00    +0.000 C 
BRANCH   6   8
ATOM      7  C   UNL     1       7.312  15.445  18.160  0.00  0.00    +0.000 C 
ATOM      8  C   UNL     1       8.546  15.437  18.673  0.00  0.00    +0.000 C 
BRANCH   7   9
ATOM      9  C   UNL     1       6.063  15.182  18.928  0.00  0.00    +0.000 C 
BRANCH   9  11
ATOM     10  C   UNL     1       3.628  15.584  18.493  0.00  0.00    +0.000 C 
ATOM     11  C   UNL     1       4.910  15.958  18.358  0.00  0.00    +0.000 C 
BRANCH  10  12
ATOM     12  C   UNL     1       3.201  14.310  19.147  0.00  0.00    +0.000 C 
BRANCH  12  14
ATOM     13  C   UNL     1       1.548  12.520  18.604  0.00  0.00    +0.000 C 
ATOM     14  C   UNL     1       2.500  13.378  18.201  0.00  0.00    +0.000 C 
BRANCH  13  15
ATOM     15  C   UNL     1       1.037  12.456  20.009  0.00  0.00    +0.000 C 
BRANCH  15  17
ATOM     16  C   UNL     1      -1.068  11.432  20.828  0.00  0.00    +0.000 C 
ATOM     17  C   UNL     1      -0.457  12.397  20.118  0.00  0.00    +0.000 C 
BRANCH  16  19
ATOM     18  C   UNL     1      -0.648  10.268  23.036  0.00  0.00    +0.000 C 
ATOM     19  C   UNL     1      -0.288  10.379  21.569  0.00  0.00    +0.000 C 
ENDBRANCH  16  19
ENDBRANCH  15  17
ENDBRANCH  13  15
ENDBRANCH  12  14
ENDBRANCH  10  12
ENDBRANCH   9  11
ENDBRANCH   7   9
ENDBRANCH   6   8
ENDBRANCH   4   6
ENDBRANCH   3   5
ENDBRANCH   1   3
BRANCH   2  20
ATOM     20  C   UNL     1       8.845   9.388  18.471  0.00  0.00    +0.000 C 
BRANCH  20  21
ATOM     21  C   UNL     1       7.885   8.534  17.644  0.00  0.00    +0.000 C 
BRANCH  21  22
ATOM     22  C   UNL     1       7.747   7.107  18.175  0.00  0.00    +0.000 C 
ATOM     23  O   UNL     1       8.321   6.686  19.166  0.00  0.00    +0.000 OA
ATOM     24  N   UNL     1       6.846   6.306  17.452  0.00  0.00    +0.000 N 
ATOM     25  H   UNL     1       6.421   6.679  16.606  0.00  0.00    +0.000 HD
BRANCH  24  26
ATOM     26  S   UNL     1       6.775   4.639  17.454  0.00  0.00    +0.000 S 
ATOM     27  O   UNL     1       8.049   4.265  16.865  0.00  0.00    +0.000 OA
ATOM     28  O   UNL     1       6.452   4.239  18.807  0.00  0.00    +0.000 OA
BRANCH  26  29
ATOM     29  C   UNL     1       5.448   4.164  16.313  0.00  0.00    +0.000 C 
BRANCH  29  30
ATOM     30  C   UNL     1       4.128   4.144  17.064  0.00  0.00    +0.000 A 
ATOM     31  C   UNL     1       3.522   2.927  17.423  0.00  0.00    +0.000 A 
ATOM     32  C   UNL     1       2.306   2.907  18.115  0.00  0.00    +0.000 A 
ATOM     33  C   UNL     1       1.673   4.098  18.459  0.00  0.00    +0.000 A 
ATOM     34  C   UNL     1       2.261   5.314  18.112  0.00  0.00    +0.000 A 
ATOM     35  C   UNL     1       3.479   5.337  17.421  0.00  0.00    +0.000 A 
ENDBRANCH  29  30
ENDBRANCH  26  29
ENDBRANCH  24  26
ENDBRANCH  21  22
ENDBRANCH  20  21
ENDBRANCH   2  20
TORSDOF 17
ENDMDL
MODEL 8
REMARK VINA RESULT:      -6.6      3.688      9.983
REMARK  Name = 
REMARK  18 active torsions:
REMARK  status: ('A' for Active; 'I' for Inactive)
REMARK    1  A    between atoms: C_1  and  C_2
REMARK    2  A    between atoms: C_2  and  C_3
REMARK    3  A    between atoms: C_4  and  C_5
REMARK    4  A    between atoms: C_5  and  C_6
REMARK    5  A    between atoms: C_7  and  C_8
REMARK    6  A    between atoms: C_8  and  C_9
REMARK    7  A    between atoms: C_10  and  C_11
REMARK    8  A    between atoms: C_11  and  C_12
REMARK    9  A    between atoms: C_13  and  C_14
REMARK   10  A    between atoms: C_14  and  C_15
REMARK   11  A    between atoms: C_16  and  C_17
REMARK   12  A    between atoms: C_17  and  C_18
REMARK   13  A    between atoms: C_19  and  C_20
REMARK   14  A    between atoms: C_20  and  C_21
REMARK   15  A    between atoms: C_21  and  C_22
REMARK   16  A    between atoms: N_24  and  S_25
REMARK   17  A    between atoms: S_25  and  C_28
REMARK   18  A    between atoms: C_28  and  C_29
REMARK                            x       y       z     vdW  Elec       q    Type
REMARK                         _______ _______ _______ _____ _____    ______ ____
ROOT
ATOM      1  C   UNL     1      -0.637   8.658  22.061  0.00  0.00    +0.000 C 
ATOM      2  C   UNL     1       0.148   7.984  21.201  0.00  0.00    +0.000 C 
ENDROOT
BRANCH   1   3
ATOM      3  C   UNL     1      -0.344   9.638  23.167  0.00  0.00    +0.000 C 
BRANCH   3   5
ATOM      4  C   UNL     1      -0.685  11.994  22.268  0.00  0.00    +0.000 C 
ATOM      5  C   UNL     1      -1.021  10.975  23.072  0.00  0.00    +0.000 C 
BRANCH   4   6
ATOM      6  C   UNL     1       0.350  11.925  21.188  0.00  0.00    +0.000 C 
BRANCH   6   8
ATOM      7  C   UNL     1      -0.767  13.266  19.346  0.00  0.00    +0.000 C 
ATOM      8  C   UNL     1       0.197  13.097  20.257  0.00  0.00    +0.000 C 
BRANCH   7   9
ATOM      9  C   UNL     1      -1.892  12.320  19.105  0.00  0.00    +0.000 C 
BRANCH   9  11
ATOM     10  C   UNL     1      -2.727  10.954  17.176  0.00  0.00    +0.000 C 
ATOM     11  C   UNL     1      -1.737  11.628  17.781  0.00  0.00    +0.000 C 
BRANCH  10  12
ATOM     12  C   UNL     1      -4.073  10.736  17.787  0.00  0.00    +0.000 C 
BRANCH  12  14
ATOM     13  C   UNL     1      -5.977  12.346  17.917  0.00  0.00    +0.000 C 
ATOM     14  C   UNL     1      -5.136  11.604  17.177  0.00  0.00    +0.000 C 
BRANCH  13  15
ATOM     15  C   UNL     1      -5.896  12.445  19.408  0.00  0.00    +0.000 C 
BRANCH  15  17
ATOM     16  C   UNL     1      -4.698  13.907  21.013  0.00  0.00    +0.000 C 
ATOM     17  C   UNL     1      -5.462  13.788  19.912  0.00  0.00    +0.000 C 
BRANCH  16  19
ATOM     18  C   UNL     1      -4.334  12.844  23.282  0.00  0.00    +0.000 C 
ATOM     19  C   UNL     1      -4.218  12.702  21.779  0.00  0.00    +0.000 C 
ENDBRANCH  16  19
ENDBRANCH  15  17
ENDBRANCH  13  15
ENDBRANCH  12  14
ENDBRANCH  10  12
ENDBRANCH   9  11
ENDBRANCH   7   9
ENDBRANCH   6   8
ENDBRANCH   4   6
ENDBRANCH   3   5
ENDBRANCH   1   3
BRANCH   2  20
ATOM     20  C   UNL     1       1.637   8.080  20.994  0.00  0.00    +0.000 C 
BRANCH  20  21
ATOM     21  C   UNL     1       2.158   7.283  19.799  0.00  0.00    +0.000 C 
BRANCH  21  22
ATOM     22  C   UNL     1       2.128   5.772  20.030  0.00  0.00    +0.000 C 
ATOM     23  O   UNL     1       2.227   5.245  21.125  0.00  0.00    +0.000 OA
ATOM     24  N   UNL     1       1.921   5.014  18.864  0.00  0.00    +0.000 N 
ATOM     25  H   UNL     1       1.888   5.488  17.965  0.00  0.00    +0.000 HD
BRANCH  24  26
ATOM     26  S   UNL     1       2.263   3.394  18.658  0.00  0.00    +0.000 S 
ATOM     27  O   UNL     1       1.571   2.777  19.776  0.00  0.00    +0.000 OA
ATOM     28  O   UNL     1       1.894   3.061  17.299  0.00  0.00    +0.000 OA
BRANCH  26  29
ATOM     29  C   UNL     1       4.049   3.196  18.903  0.00  0.00    +0.000 C 
BRANCH  29  30
ATOM     30  C   UNL     1       4.786   4.204  18.037  0.00  0.00    +0.000 A 
ATOM     31  C   UNL     1       4.758   4.107  16.636  0.00  0.00    +0.000 A 
ATOM     32  C   UNL     1       5.435   5.035  15.838  0.00  0.00    +0.000 A 
ATOM     33  C   UNL     1       6.154   6.074  16.423  0.00  0.00    +0.000 A 
ATOM     34  C   UNL     1       6.192   6.185  17.812  0.00  0.00    +0.000 A 
ATOM     35  C   UNL     1       5.513   5.259  18.613  0.00  0.00    +0.000 A 
ENDBRANCH  29  30
ENDBRANCH  26  29
ENDBRANCH  24  26
ENDBRANCH  21  22
ENDBRANCH  20  21
ENDBRANCH   2  20
TORSDOF 17
ENDMDL
MODEL 9
REMARK VINA RESULT:      -6.5      4.609      6.651
REMARK  Name = 
REMARK  18 active torsions:
REMARK  status: ('A' for Active; 'I' for Inactive)
REMARK    1  A    between atoms: C_1  and  C_2
REMARK    2  A    between atoms: C_2  and  C_3
REMARK    3  A    between atoms: C_4  and  C_5
REMARK    4  A    between atoms: C_5  and  C_6
REMARK    5  A    between atoms: C_7  and  C_8
REMARK    6  A    between atoms: C_8  and  C_9
REMARK    7  A    between atoms: C_10  and  C_11
REMARK    8  A    between atoms: C_11  and  C_12
REMARK    9  A    between atoms: C_13  and  C_14
REMARK   10  A    between atoms: C_14  and  C_15
REMARK   11  A    between atoms: C_16  and  C_17
REMARK   12  A    between atoms: C_17  and  C_18
REMARK   13  A    between atoms: C_19  and  C_20
REMARK   14  A    between atoms: C_20  and  C_21
REMARK   15  A    between atoms: C_21  and  C_22
REMARK   16  A    between atoms: N_24  and  S_25
REMARK   17  A    between atoms: S_25  and  C_28
REMARK   18  A    between atoms: C_28  and  C_29
REMARK                            x       y       z     vdW  Elec       q    Type
REMARK                         _______ _______ _______ _____ _____    ______ ____
ROOT
ATOM      1  C   UNL     1       9.168  10.137  18.222  0.00  0.00    +0.000 C 
ATOM      2  C   UNL     1       9.367  11.467  18.262  0.00  0.00    +0.000 C 
ENDROOT
BRANCH   1   3
ATOM      3  C   UNL     1       7.950   9.289  17.954  0.00  0.00    +0.000 C 
BRANCH   3   5
ATOM      4  C   UNL     1       7.245   6.860  17.682  0.00  0.00    +0.000 C 
ATOM      5  C   UNL     1       8.153   7.802  17.977  0.00  0.00    +0.000 C 
BRANCH   4   6
ATOM      6  C   UNL     1       5.886   7.130  17.114  0.00  0.00    +0.000 C 
BRANCH   6   8
ATOM      7  C   UNL     1       4.635   4.999  17.687  0.00  0.00    +0.000 C 
ATOM      8  C   UNL     1       5.195   5.831  16.803  0.00  0.00    +0.000 C 
BRANCH   7   9
ATOM      9  C   UNL     1       4.574   5.227  19.158  0.00  0.00    +0.000 C 
BRANCH   9  11
ATOM     10  C   UNL     1       2.248   5.898  19.809  0.00  0.00    +0.000 C 
ATOM     11  C   UNL     1       3.194   4.954  19.685  0.00  0.00    +0.000 C 
BRANCH  10  12
ATOM     12  C   UNL     1       2.482   7.346  19.522  0.00  0.00    +0.000 C 
BRANCH  12  14
ATOM     13  C   UNL     1       1.668   8.904  17.749  0.00  0.00    +0.000 C 
ATOM     14  C   UNL     1       2.180   7.712  18.097  0.00  0.00    +0.000 C 
BRANCH  13  15
ATOM     15  C   UNL     1       1.417  10.010  18.725  0.00  0.00    +0.000 C 
BRANCH  15  17
ATOM     16  C   UNL     1      -0.536   9.966  20.253  0.00  0.00    +0.000 C 
ATOM     17  C   UNL     1      -0.032  10.238  19.036  0.00  0.00    +0.000 C 
BRANCH  16  19
ATOM     18  C   UNL     1      -0.163   9.823  22.753  0.00  0.00    +0.000 C 
ATOM     19  C   UNL     1       0.330   9.447  21.371  0.00  0.00    +0.000 C 
ENDBRANCH  16  19
ENDBRANCH  15  17
ENDBRANCH  13  15
ENDBRANCH  12  14
ENDBRANCH  10  12
ENDBRANCH   9  11
ENDBRANCH   7   9
ENDBRANCH   6   8
ENDBRANCH   4   6
ENDBRANCH   3   5
ENDBRANCH   1   3
BRANCH   2  20
ATOM     20  C   UNL     1       8.414  12.585  17.932  0.00  0.00    +0.000 C 
BRANCH  20  21
ATOM     21  C   UNL     1       8.984  13.985  18.155  0.00  0.00    +0.000 C 
BRANCH  21  22
ATOM     22  C   UNL     1       7.906  15.068  18.197  0.00  0.00    +0.000 C 
ATOM     23  O   UNL     1       8.001  16.150  17.641  0.00  0.00    +0.000 OA
ATOM     24  N   UNL     1       6.745  14.701  18.898  0.00  0.00    +0.000 N 
ATOM     25  H   UNL     1       6.722  13.808  19.386  0.00  0.00    +0.000 HD
BRANCH  24  26
ATOM     26  S   UNL     1       5.589  15.733  19.517  0.00  0.00    +0.000 S 
ATOM     27  O   UNL     1       6.375  16.635  20.340  0.00  0.00    +0.000 OA
ATOM     28  O   UNL     1       4.840  16.242  18.388  0.00  0.00    +0.000 OA
BRANCH  26  29
ATOM     29  C   UNL     1       4.521  14.744  20.599  0.00  0.00    +0.000 C 
BRANCH  29  30
ATOM     30  C   UNL     1       3.134  14.655  19.986  0.00  0.00    +0.000 A 
ATOM     31  C   UNL     1       2.114  15.537  20.382  0.00  0.00    +0.000 A 
ATOM     32  C   UNL     1       0.836  15.457  19.817  0.00  0.00    +0.000 A 
ATOM     33  C   UNL     1       0.553  14.496  18.851  0.00  0.00    +0.000 A 
ATOM     34  C   UNL     1       1.554  13.614  18.445  0.00  0.00    +0.000 A 
ATOM     35  C   UNL     1       2.835  13.693  19.007  0.00  0.00    +0.000 A 
ENDBRANCH  29  30
ENDBRANCH  26  29
ENDBRANCH  24  26
ENDBRANCH  21  22
ENDBRANCH  20  21
ENDBRANCH   2  20
TORSDOF 17
ENDMDL
