MODEL 1
REMARK VINA RESULT:      -8.1      0.000      0.000
REMARK  Name = 
REMARK  7 active torsions:
REMARK  status: ('A' for Active; 'I' for Inactive)
REMARK    1  A    between atoms: C_1  and  N_2
REMARK    2  A    between atoms: C_3  and  C_5
REMARK    3  A    between atoms: C_5  and  O_6
REMARK    4  A    between atoms: O_6  and  C_7
REMARK    5  A    between atoms: C_7  and  C_9
REMARK    6  A    between atoms: N_12  and  S_13
REMARK    7  A    between atoms: S_13  and  C_16
REMARK                            x       y       z     vdW  Elec       q    Type
REMARK                         _______ _______ _______ _____ _____    ______ ____
ROOT
ATOM      1  C   UNL     1       7.851   5.694  18.300  0.00  0.00    +0.000 C 
ATOM      2  C   UNL     1       7.509   4.627  17.254  0.00  0.00    +0.000 C 
ATOM      3  C   UNL     1       6.000   4.536  17.039  0.00  0.00    +0.000 C 
ATOM      4  N   UNL     1       5.315   4.195  18.318  0.00  0.00    +0.000 NA
ATOM      5  C   UNL     1       5.636   5.148  19.426  0.00  0.00    +0.000 C 
ATOM      6  C   UNL     1       7.141   5.323  19.605  0.00  0.00    +0.000 C 
ENDROOT
BRANCH   4   7
ATOM      7  S   UNL     1       3.600   4.006  18.145  0.00  0.00    +0.000 S 
ATOM      8  O   UNL     1       3.298   3.911  16.732  0.00  0.00    +0.000 OA
ATOM      9  O   UNL     1       3.195   2.964  19.067  0.00  0.00    +0.000 OA
BRANCH   7  10
ATOM     10  C   UNL     1       2.940   5.552  18.713  0.00  0.00    +0.000 A 
ATOM     11  C   UNL     1       2.446   5.670  20.020  0.00  0.00    +0.000 A 
ATOM     12  C   UNL     1       1.887   6.881  20.435  0.00  0.00    +0.000 A 
ATOM     13  C   UNL     1       1.825   7.959  19.551  0.00  0.00    +0.000 A 
ATOM     14  C   UNL     1       2.338   7.836  18.254  0.00  0.00    +0.000 A 
ATOM     15  C   UNL     1       2.874   6.626  17.822  0.00  0.00    +0.000 A 
ATOM     16  O   UNL     1       2.341   8.867  17.350  0.00  0.00    +0.000 OA
ATOM     17  C   UNL     1       2.136  10.126  18.003  0.00  0.00    +0.000 C 
ATOM     18  C   UNL     1       0.969  10.038  18.972  0.00  0.00    +0.000 C 
ATOM     19  O   UNL     1       1.253   9.112  20.028  0.00  0.00    +0.000 OA
ENDBRANCH   7  10
ENDBRANCH   4   7
BRANCH   1  20
ATOM     20  C   UNL     1       7.529   7.077  17.746  0.00  0.00    +0.000 C 
ATOM     21  O   UNL     1       6.717   7.271  16.849  0.00  0.00    +0.000 OA
BRANCH  20  22
ATOM     22  O   UNL     1       8.269   8.060  18.319  0.00  0.00    +0.000 OA
BRANCH  22  23
ATOM     23  C   UNL     1       8.009   9.374  17.816  0.00  0.00    +0.000 C 
BRANCH  23  26
ATOM     24  C   UNL     1       9.698  12.752  18.275  0.00  0.00    +0.000 C 
ATOM     25  N   UNL     1       8.850  11.673  17.837  0.00  0.00    +0.000 N 
ATOM     26  C   UNL     1       8.878  10.450  18.473  0.00  0.00    +0.000 C 
ATOM     27  O   UNL     1       9.549  10.228  19.478  0.00  0.00    +0.000 OA
ATOM     28  H   UNL     1       8.501  11.689  16.878  0.00  0.00    +0.000 HD
ENDBRANCH  23  26
ENDBRANCH  22  23
ENDBRANCH  20  22
ENDBRANCH   1  20
TORSDOF 6
ENDMDL
MODEL 2
REMARK VINA RESULT:      -7.8      1.070      1.723
REMARK  Name = 
REMARK  7 active torsions:
REMARK  status: ('A' for Active; 'I' for Inactive)
REMARK    1  A    between atoms: C_1  and  N_2
REMARK    2  A    between atoms: C_3  and  C_5
REMARK    3  A    between atoms: C_5  and  O_6
REMARK    4  A    between atoms: O_6  and  C_7
REMARK    5  A    between atoms: C_7  and  C_9
REMARK    6  A    between atoms: N_12  and  S_13
REMARK    7  A    between atoms: S_13  and  C_16
REMARK                            x       y       z     vdW  Elec       q    Type
REMARK                         _______ _______ _______ _____ _____    ______ ____
ROOT
ATOM      1  C   UNL     1       7.856   5.789  18.282  0.00  0.00    +0.000 C 
ATOM      2  C   UNL     1       7.497   4.690  17.275  0.00  0.00    +0.000 C 
ATOM      3  C   UNL     1       5.983   4.575  17.108  0.00  0.00    +0.000 C 
ATOM      4  N   UNL     1       5.341   4.262  18.416  0.00  0.00    +0.000 NA
ATOM      5  C   UNL     1       5.683   5.248  19.488  0.00  0.00    +0.000 C 
ATOM      6  C   UNL     1       7.189   5.446  19.617  0.00  0.00    +0.000 C 
ENDROOT
BRANCH   4   7
ATOM      7  S   UNL     1       3.624   4.047  18.299  0.00  0.00    +0.000 S 
ATOM      8  O   UNL     1       3.306   3.698  16.931  0.00  0.00    +0.000 OA
ATOM      9  O   UNL     1       3.230   3.190  19.399  0.00  0.00    +0.000 OA
BRANCH   7  10
ATOM     10  C   UNL     1       2.971   5.671  18.586  0.00  0.00    +0.000 A 
ATOM     11  C   UNL     1       3.139   6.679  17.626  0.00  0.00    +0.000 A 
ATOM     12  C   UNL     1       2.659   7.964  17.889  0.00  0.00    +0.000 A 
ATOM     13  C   UNL     1       2.020   8.236  19.099  0.00  0.00    +0.000 A 
ATOM     14  C   UNL     1       1.841   7.217  20.044  0.00  0.00    +0.000 A 
ATOM     15  C   UNL     1       2.338   5.940  19.802  0.00  0.00    +0.000 A 
ATOM     16  O   UNL     1       1.190   7.409  21.235  0.00  0.00    +0.000 OA
ATOM     17  C   UNL     1       0.407   8.608  21.208  0.00  0.00    +0.000 C 
ATOM     18  C   UNL     1       1.224   9.764  20.654  0.00  0.00    +0.000 C 
ATOM     19  O   UNL     1       1.585   9.523  19.289  0.00  0.00    +0.000 OA
ENDBRANCH   7  10
ENDBRANCH   4   7
BRANCH   1  20
ATOM     20  C   UNL     1       7.500   7.153  17.701  0.00  0.00    +0.000 C 
ATOM     21  O   UNL     1       6.714   7.305  16.773  0.00  0.00    +0.000 OA
BRANCH  20  22
ATOM     22  O   UNL     1       8.181   8.169  18.289  0.00  0.00    +0.000 OA
BRANCH  22  23
ATOM     23  C   UNL     1       8.064   9.430  17.621  0.00  0.00    +0.000 C 
BRANCH  23  26
ATOM     24  C   UNL     1       9.914  11.225  20.419  0.00  0.00    +0.000 C 
ATOM     25  N   UNL     1       9.273  10.236  19.591  0.00  0.00    +0.000 N 
ATOM     26  C   UNL     1       8.829  10.554  18.326  0.00  0.00    +0.000 C 
ATOM     27  O   UNL     1       9.016  11.649  17.802  0.00  0.00    +0.000 OA
ATOM     28  H   UNL     1       8.842   9.430  20.045  0.00  0.00    +0.000 HD
ENDBRANCH  23  26
ENDBRANCH  22  23
ENDBRANCH  20  22
ENDBRANCH   1  20
TORSDOF 6
ENDMDL
MODEL 3
REMARK VINA RESULT:      -7.7      2.996      4.756
REMARK  Name = 
REMARK  7 active torsions:
REMARK  status: ('A' for Active; 'I' for Inactive)
REMARK    1  A    between atoms: C_1  and  N_2
REMARK    2  A    between atoms: C_3  and  C_5
REMARK    3  A    between atoms: C_5  and  O_6
REMARK    4  A    between atoms: O_6  and  C_7
REMARK    5  A    between atoms: C_7  and  C_9
REMARK    6  A    between atoms: N_12  and  S_13
REMARK    7  A    between atoms: S_13  and  C_16
REMARK                            x       y       z     vdW  Elec       q    Type
REMARK                         _______ _______ _______ _____ _____    ______ ____
ROOT
ATOM      1  C   UNL     1       7.300   6.135  17.501  0.00  0.00    +0.000 C 
ATOM      2  C   UNL     1       7.089   5.852  18.993  0.00  0.00    +0.000 C 
ATOM      3  C   UNL     1       5.696   5.279  19.248  0.00  0.00    +0.000 C 
ATOM      4  N   UNL     1       4.651   6.236  18.785  0.00  0.00    +0.000 NA
ATOM      5  C   UNL     1       4.809   6.627  17.349  0.00  0.00    +0.000 C 
ATOM      6  C   UNL     1       6.220   7.121  17.048  0.00  0.00    +0.000 C 
ENDROOT
BRANCH   4   7
ATOM      7  S   UNL     1       3.036   5.690  19.101  0.00  0.00    +0.000 S 
ATOM      8  O   UNL     1       2.446   5.279  17.845  0.00  0.00    +0.000 OA
ATOM      9  O   UNL     1       3.112   4.778  20.225  0.00  0.00    +0.000 OA
BRANCH   7  10
ATOM     10  C   UNL     1       2.183   7.156  19.620  0.00  0.00    +0.000 A 
ATOM     11  C   UNL     1       1.618   7.228  20.901  0.00  0.00    +0.000 A 
ATOM     12  C   UNL     1       0.909   8.372  21.275  0.00  0.00    +0.000 A 
ATOM     13  C   UNL     1       0.769   9.430  20.377  0.00  0.00    +0.000 A 
ATOM     14  C   UNL     1       1.354   9.356  19.106  0.00  0.00    +0.000 A 
ATOM     15  C   UNL     1       2.040   8.210  18.714  0.00  0.00    +0.000 A 
ATOM     16  O   UNL     1       1.285  10.375  18.191  0.00  0.00    +0.000 OA
ATOM     17  C   UNL     1       0.911  11.607  18.818  0.00  0.00    +0.000 C 
ATOM     18  C   UNL     1      -0.284  11.397  19.734  0.00  0.00    +0.000 C 
ATOM     19  O   UNL     1       0.052  10.515  20.812  0.00  0.00    +0.000 OA
ENDBRANCH   7  10
ENDBRANCH   4   7
BRANCH   1  20
ATOM     20  C   UNL     1       7.355   4.821  16.731  0.00  0.00    +0.000 C 
ATOM     21  O   UNL     1       8.184   3.945  16.953  0.00  0.00    +0.000 OA
BRANCH  20  22
ATOM     22  O   UNL     1       6.423   4.746  15.748  0.00  0.00    +0.000 OA
BRANCH  22  23
ATOM     23  C   UNL     1       6.958   4.624  14.426  0.00  0.00    +0.000 C 
BRANCH  23  26
ATOM     24  C   UNL     1       5.890   2.283  11.623  0.00  0.00    +0.000 C 
ATOM     25  N   UNL     1       6.628   2.967  12.654  0.00  0.00    +0.000 N 
ATOM     26  C   UNL     1       6.014   3.900  13.462  0.00  0.00    +0.000 C 
ATOM     27  O   UNL     1       4.811   4.147  13.413  0.00  0.00    +0.000 OA
ATOM     28  H   UNL     1       7.643   3.027  12.566  0.00  0.00    +0.000 HD
ENDBRANCH  23  26
ENDBRANCH  22  23
ENDBRANCH  20  22
ENDBRANCH   1  20
TORSDOF 6
ENDMDL
MODEL 4
REMARK VINA RESULT:      -7.5      2.999      4.227
REMARK  Name = 
REMARK  7 active torsions:
REMARK  status: ('A' for Active; 'I' for Inactive)
REMARK    1  A    between atoms: C_1  and  N_2
REMARK    2  A    between atoms: C_3  and  C_5
REMARK    3  A    between atoms: C_5  and  O_6
REMARK    4  A    between atoms: O_6  and  C_7
REMARK    5  A    between atoms: C_7  and  C_9
REMARK    6  A    between atoms: N_12  and  S_13
REMARK    7  A    between atoms: S_13  and  C_16
REMARK                            x       y       z     vdW  Elec       q    Type
REMARK                         _______ _______ _______ _____ _____    ______ ____
ROOT
ATOM      1  C   UNL     1       7.176   6.149  17.632  0.00  0.00    +0.000 C 
ATOM      2  C   UNL     1       6.951   5.730  19.089  0.00  0.00    +0.000 C 
ATOM      3  C   UNL     1       5.538   5.187  19.289  0.00  0.00    +0.000 C 
ATOM      4  N   UNL     1       4.529   6.222  18.923  0.00  0.00    +0.000 NA
ATOM      5  C   UNL     1       4.705   6.744  17.532  0.00  0.00    +0.000 C 
ATOM      6  C   UNL     1       6.133   7.213  17.278  0.00  0.00    +0.000 C 
ENDROOT
BRANCH   4   7
ATOM      7  S   UNL     1       2.895   5.707  19.188  0.00  0.00    +0.000 S 
ATOM      8  O   UNL     1       2.331   5.326  17.910  0.00  0.00    +0.000 OA
ATOM      9  O   UNL     1       2.920   4.778  20.300  0.00  0.00    +0.000 OA
BRANCH   7  10
ATOM     10  C   UNL     1       2.060   7.184  19.704  0.00  0.00    +0.000 A 
ATOM     11  C   UNL     1       1.458   7.250  20.968  0.00  0.00    +0.000 A 
ATOM     12  C   UNL     1       0.764   8.404  21.339  0.00  0.00    +0.000 A 
ATOM     13  C   UNL     1       0.675   9.479  20.454  0.00  0.00    +0.000 A 
ATOM     14  C   UNL     1       1.296   9.410  19.200  0.00  0.00    +0.000 A 
ATOM     15  C   UNL     1       1.968   8.255  18.811  0.00  0.00    +0.000 A 
ATOM     16  O   UNL     1       1.278  10.444  18.299  0.00  0.00    +0.000 OA
ATOM     17  C   UNL     1       0.913  11.675  18.934  0.00  0.00    +0.000 C 
ATOM     18  C   UNL     1      -0.314  11.478  19.811  0.00  0.00    +0.000 C 
ATOM     19  O   UNL     1      -0.031  10.573  20.885  0.00  0.00    +0.000 OA
ENDBRANCH   7  10
ENDBRANCH   4   7
BRANCH   1  20
ATOM     20  C   UNL     1       7.184   4.915  16.737  0.00  0.00    +0.000 C 
ATOM     21  O   UNL     1       8.053   4.052  16.789  0.00  0.00    +0.000 OA
BRANCH  20  22
ATOM     22  O   UNL     1       6.156   4.898  15.851  0.00  0.00    +0.000 OA
BRANCH  22  23
ATOM     23  C   UNL     1       6.210   3.836  14.894  0.00  0.00    +0.000 C 
BRANCH  23  26
ATOM     24  C   UNL     1       8.336   5.865  12.479  0.00  0.00    +0.000 C 
ATOM     25  N   UNL     1       7.748   5.285  13.659  0.00  0.00    +0.000 N 
ATOM     26  C   UNL     1       6.831   4.261  13.560  0.00  0.00    +0.000 C 
ATOM     27  O   UNL     1       6.522   3.733  12.495  0.00  0.00    +0.000 OA
ATOM     28  H   UNL     1       7.734   5.839  14.516  0.00  0.00    +0.000 HD
ENDBRANCH  23  26
ENDBRANCH  22  23
ENDBRANCH  20  22
ENDBRANCH   1  20
TORSDOF 6
ENDMDL
MODEL 5
REMARK VINA RESULT:      -7.5      1.369      1.765
REMARK  Name = 
REMARK  7 active torsions:
REMARK  status: ('A' for Active; 'I' for Inactive)
REMARK    1  A    between atoms: C_1  and  N_2
REMARK    2  A    between atoms: C_3  and  C_5
REMARK    3  A    between atoms: C_5  and  O_6
REMARK    4  A    between atoms: O_6  and  C_7
REMARK    5  A    between atoms: C_7  and  C_9
REMARK    6  A    between atoms: N_12  and  S_13
REMARK    7  A    between atoms: S_13  and  C_16
REMARK                            x       y       z     vdW  Elec       q    Type
REMARK                         _______ _______ _______ _____ _____    ______ ____
ROOT
ATOM      1  C   UNL     1       6.283   4.864  16.494  0.00  0.00    +0.000 C 
ATOM      2  C   UNL     1       5.222   3.907  15.939  0.00  0.00    +0.000 C 
ATOM      3  C   UNL     1       3.959   3.934  16.798  0.00  0.00    +0.000 C 
ATOM      4  N   UNL     1       4.279   3.541  18.200  0.00  0.00    +0.000 NA
ATOM      5  C   UNL     1       5.356   4.381  18.813  0.00  0.00    +0.000 C 
ATOM      6  C   UNL     1       6.598   4.442  17.931  0.00  0.00    +0.000 C 
ENDROOT
BRANCH   4   7
ATOM      7  S   UNL     1       2.884   3.480  19.228  0.00  0.00    +0.000 S 
ATOM      8  O   UNL     1       1.804   2.867  18.484  0.00  0.00    +0.000 OA
ATOM      9  O   UNL     1       3.319   2.936  20.498  0.00  0.00    +0.000 OA
BRANCH   7  10
ATOM     10  C   UNL     1       2.451   5.184  19.461  0.00  0.00    +0.000 A 
ATOM     11  C   UNL     1       1.981   5.629  20.705  0.00  0.00    +0.000 A 
ATOM     12  C   UNL     1       1.600   6.964  20.857  0.00  0.00    +0.000 A 
ATOM     13  C   UNL     1       1.689   7.842  19.776  0.00  0.00    +0.000 A 
ATOM     14  C   UNL     1       2.177   7.392  18.543  0.00  0.00    +0.000 A 
ATOM     15  C   UNL     1       2.535   6.057  18.374  0.00  0.00    +0.000 A 
ATOM     16  O   UNL     1       2.324   8.211  17.453  0.00  0.00    +0.000 OA
ATOM     17  C   UNL     1       2.300   9.590  17.837  0.00  0.00    +0.000 C 
ATOM     18  C   UNL     1       1.134   9.862  18.774  0.00  0.00    +0.000 C 
ATOM     19  O   UNL     1       1.287   9.135  19.999  0.00  0.00    +0.000 OA
ENDBRANCH   7  10
ENDBRANCH   4   7
BRANCH   1  20
ATOM     20  C   UNL     1       5.815   6.305  16.320  0.00  0.00    +0.000 C 
ATOM     21  O   UNL     1       5.182   6.695  15.346  0.00  0.00    +0.000 OA
BRANCH  20  22
ATOM     22  O   UNL     1       6.215   7.115  17.334  0.00  0.00    +0.000 OA
BRANCH  22  23
ATOM     23  C   UNL     1       7.263   8.027  16.991  0.00  0.00    +0.000 C 
BRANCH  23  26
ATOM     24  C   UNL     1       9.418  10.181  19.269  0.00  0.00    +0.000 C 
ATOM     25  N   UNL     1       8.493   9.715  18.269  0.00  0.00    +0.000 N 
ATOM     26  C   UNL     1       8.164   8.379  18.178  0.00  0.00    +0.000 C 
ATOM     27  O   UNL     1       8.564   7.531  18.972  0.00  0.00    +0.000 OA
ATOM     28  H   UNL     1       8.355  10.284  17.433  0.00  0.00    +0.000 HD
ENDBRANCH  23  26
ENDBRANCH  22  23
ENDBRANCH  20  22
ENDBRANCH   1  20
TORSDOF 6
ENDMDL
MODEL 6
REMARK VINA RESULT:      -7.5      3.416      5.340
REMARK  Name = 
REMARK  7 active torsions:
REMARK  status: ('A' for Active; 'I' for Inactive)
REMARK    1  A    between atoms: C_1  and  N_2
REMARK    2  A    between atoms: C_3  and  C_5
REMARK    3  A    between atoms: C_5  and  O_6
REMARK    4  A    between atoms: O_6  and  C_7
REMARK    5  A    between atoms: C_7  and  C_9
REMARK    6  A    between atoms: N_12  and  S_13
REMARK    7  A    between atoms: S_13  and  C_16
REMARK                            x       y       z     vdW  Elec       q    Type
REMARK                         _______ _______ _______ _____ _____    ______ ____
ROOT
ATOM      1  C   UNL     1       6.699   5.515  16.568  0.00  0.00    +0.000 C 
ATOM      2  C   UNL     1       6.672   4.949  17.992  0.00  0.00    +0.000 C 
ATOM      3  C   UNL     1       5.240   4.659  18.438  0.00  0.00    +0.000 C 
ATOM      4  N   UNL     1       4.424   5.905  18.397  0.00  0.00    +0.000 NA
ATOM      5  C   UNL     1       4.438   6.572  17.057  0.00  0.00    +0.000 C 
ATOM      6  C   UNL     1       5.858   6.794  16.550  0.00  0.00    +0.000 C 
ENDROOT
BRANCH   4   7
ATOM      7  S   UNL     1       2.798   5.675  18.955  0.00  0.00    +0.000 S 
ATOM      8  O   UNL     1       2.055   5.005  17.909  0.00  0.00    +0.000 OA
ATOM      9  O   UNL     1       2.885   5.112  20.287  0.00  0.00    +0.000 OA
BRANCH   7  10
ATOM     10  C   UNL     1       2.152   7.323  19.078  0.00  0.00    +0.000 A 
ATOM     11  C   UNL     1       2.108   8.150  17.947  0.00  0.00    +0.000 A 
ATOM     12  C   UNL     1       1.640   9.459  18.072  0.00  0.00    +0.000 A 
ATOM     13  C   UNL     1       1.221   9.934  19.316  0.00  0.00    +0.000 A 
ATOM     14  C   UNL     1       1.252   9.094  20.436  0.00  0.00    +0.000 A 
ATOM     15  C   UNL     1       1.741   7.795  20.327  0.00  0.00    +0.000 A 
ATOM     16  O   UNL     1       0.820   9.486  21.677  0.00  0.00    +0.000 OA
ATOM     17  C   UNL     1       0.004  10.661  21.592  0.00  0.00    +0.000 C 
ATOM     18  C   UNL     1       0.667  11.706  20.710  0.00  0.00    +0.000 C 
ATOM     19  O   UNL     1       0.784  11.234  19.362  0.00  0.00    +0.000 OA
ENDBRANCH   7  10
ENDBRANCH   4   7
BRANCH   1  20
ATOM     20  C   UNL     1       6.275   4.435  15.579  0.00  0.00    +0.000 C 
ATOM     21  O   UNL     1       6.214   3.245  15.866  0.00  0.00    +0.000 OA
BRANCH  20  22
ATOM     22  O   UNL     1       6.020   4.926  14.340  0.00  0.00    +0.000 OA
BRANCH  22  23
ATOM     23  C   UNL     1       5.419   3.991  13.438  0.00  0.00    +0.000 C 
BRANCH  23  26
ATOM     24  C   UNL     1       7.032   1.597  10.961  0.00  0.00    +0.000 C 
ATOM     25  N   UNL     1       6.147   2.224  11.908  0.00  0.00    +0.000 N 
ATOM     26  C   UNL     1       6.377   3.511  12.345  0.00  0.00    +0.000 C 
ATOM     27  O   UNL     1       7.281   4.220  11.908  0.00  0.00    +0.000 OA
ATOM     28  H   UNL     1       5.574   1.628  12.506  0.00  0.00    +0.000 HD
ENDBRANCH  23  26
ENDBRANCH  22  23
ENDBRANCH  20  22
ENDBRANCH   1  20
TORSDOF 6
ENDMDL
MODEL 7
REMARK VINA RESULT:      -7.4      3.056      4.972
REMARK  Name = 
REMARK  7 active torsions:
REMARK  status: ('A' for Active; 'I' for Inactive)
REMARK    1  A    between atoms: C_1  and  N_2
REMARK    2  A    between atoms: C_3  and  C_5
REMARK    3  A    between atoms: C_5  and  O_6
REMARK    4  A    between atoms: O_6  and  C_7
REMARK    5  A    between atoms: C_7  and  C_9
REMARK    6  A    between atoms: N_12  and  S_13
REMARK    7  A    between atoms: S_13  and  C_16
REMARK                            x       y       z     vdW  Elec       q    Type
REMARK                         _______ _______ _______ _____ _____    ______ ____
ROOT
ATOM      1  C   UNL     1       6.794   6.163  16.245  0.00  0.00    +0.000 C 
ATOM      2  C   UNL     1       6.910   6.535  17.727  0.00  0.00    +0.000 C 
ATOM      3  C   UNL     1       5.804   5.872  18.545  0.00  0.00    +0.000 C 
ATOM      4  N   UNL     1       4.465   6.295  18.044  0.00  0.00    +0.000 NA
ATOM      5  C   UNL     1       4.277   6.030  16.583  0.00  0.00    +0.000 C 
ATOM      6  C   UNL     1       5.416   6.608  15.750  0.00  0.00    +0.000 C 
ENDROOT
BRANCH   4   7
ATOM      7  S   UNL     1       3.151   5.638  18.965  0.00  0.00    +0.000 S 
ATOM      8  O   UNL     1       2.273   4.934  18.055  0.00  0.00    +0.000 OA
ATOM      9  O   UNL     1       3.733   4.967  20.110  0.00  0.00    +0.000 OA
BRANCH   7  10
ATOM     10  C   UNL     1       2.271   7.068  19.534  0.00  0.00    +0.000 A 
ATOM     11  C   UNL     1       1.676   7.072  20.803  0.00  0.00    +0.000 A 
ATOM     12  C   UNL     1       0.947   8.190  21.216  0.00  0.00    +0.000 A 
ATOM     13  C   UNL     1       0.815   9.289  20.366  0.00  0.00    +0.000 A 
ATOM     14  C   UNL     1       1.428   9.282  19.107  0.00  0.00    +0.000 A 
ATOM     15  C   UNL     1       2.136   8.163  18.676  0.00  0.00    +0.000 A 
ATOM     16  O   UNL     1       1.368  10.343  18.241  0.00  0.00    +0.000 OA
ATOM     17  C   UNL     1       0.967  11.540  18.918  0.00  0.00    +0.000 C 
ATOM     18  C   UNL     1      -0.246  11.273  19.795  0.00  0.00    +0.000 C 
ATOM     19  O   UNL     1       0.076  10.344  20.837  0.00  0.00    +0.000 OA
ENDBRANCH   7  10
ENDBRANCH   4   7
BRANCH   1  20
ATOM     20  C   UNL     1       7.112   4.683  16.061  0.00  0.00    +0.000 C 
ATOM     21  O   UNL     1       7.888   4.067  16.783  0.00  0.00    +0.000 OA
BRANCH  20  22
ATOM     22  O   UNL     1       6.482   4.138  14.990  0.00  0.00    +0.000 OA
BRANCH  22  23
ATOM     23  C   UNL     1       7.165   4.311  13.744  0.00  0.00    +0.000 C 
BRANCH  23  26
ATOM     24  C   UNL     1       4.262   3.152  11.576  0.00  0.00    +0.000 C 
ATOM     25  N   UNL     1       5.083   3.815  12.557  0.00  0.00    +0.000 N 
ATOM     26  C   UNL     1       6.450   3.637  12.570  0.00  0.00    +0.000 C 
ATOM     27  O   UNL     1       7.053   2.984  11.722  0.00  0.00    +0.000 OA
ATOM     28  H   UNL     1       4.647   4.121  13.427  0.00  0.00    +0.000 HD
ENDBRANCH  23  26
ENDBRANCH  22  23
ENDBRANCH  20  22
ENDBRANCH   1  20
TORSDOF 6
ENDMDL
MODEL 8
REMARK VINA RESULT:      -7.3      3.689      7.196
REMARK  Name = 
REMARK  7 active torsions:
REMARK  status: ('A' for Active; 'I' for Inactive)
REMARK    1  A    between atoms: C_1  and  N_2
REMARK    2  A    between atoms: C_3  and  C_5
REMARK    3  A    between atoms: C_5  and  O_6
REMARK    4  A    between atoms: O_6  and  C_7
REMARK    5  A    between atoms: C_7  and  C_9
REMARK    6  A    between atoms: N_12  and  S_13
REMARK    7  A    between atoms: S_13  and  C_16
REMARK                            x       y       z     vdW  Elec       q    Type
REMARK                         _______ _______ _______ _____ _____    ______ ____
ROOT
ATOM      1  C   UNL     1       1.634   2.433  19.001  0.00  0.00    +0.000 C 
ATOM      2  C   UNL     1       3.005   1.769  19.175  0.00  0.00    +0.000 C 
ATOM      3  C   UNL     1       4.108   2.818  19.301  0.00  0.00    +0.000 C 
ATOM      4  N   UNL     1       4.140   3.683  18.087  0.00  0.00    +0.000 NA
ATOM      5  C   UNL     1       2.822   4.331  17.795  0.00  0.00    +0.000 C 
ATOM      6  C   UNL     1       1.688   3.313  17.750  0.00  0.00    +0.000 C 
ENDROOT
BRANCH   4   7
ATOM      7  S   UNL     1       5.412   4.860  18.122  0.00  0.00    +0.000 S 
ATOM      8  O   UNL     1       4.811   6.169  18.265  0.00  0.00    +0.000 OA
ATOM      9  O   UNL     1       6.401   4.385  19.068  0.00  0.00    +0.000 OA
BRANCH   7  10
ATOM     10  C   UNL     1       6.107   4.785  16.491  0.00  0.00    +0.000 A 
ATOM     11  C   UNL     1       7.332   5.409  16.217  0.00  0.00    +0.000 A 
ATOM     12  C   UNL     1       7.841   5.380  14.917  0.00  0.00    +0.000 A 
ATOM     13  C   UNL     1       7.131   4.733  13.904  0.00  0.00    +0.000 A 
ATOM     14  C   UNL     1       5.917   4.098  14.193  0.00  0.00    +0.000 A 
ATOM     15  C   UNL     1       5.388   4.143  15.480  0.00  0.00    +0.000 A 
ATOM     16  O   UNL     1       5.189   3.415  13.253  0.00  0.00    +0.000 OA
ATOM     17  C   UNL     1       5.988   3.108  12.104  0.00  0.00    +0.000 C 
ATOM     18  C   UNL     1       6.756   4.338  11.648  0.00  0.00    +0.000 C 
ATOM     19  O   UNL     1       7.690   4.756  12.652  0.00  0.00    +0.000 OA
ENDBRANCH   7  10
ENDBRANCH   4   7
BRANCH   1  20
ATOM     20  C   UNL     1       1.243   3.146  20.291  0.00  0.00    +0.000 C 
ATOM     21  O   UNL     1       1.107   2.571  21.364  0.00  0.00    +0.000 OA
BRANCH  20  22
ATOM     22  O   UNL     1       1.016   4.472  20.112  0.00  0.00    +0.000 OA
BRANCH  22  23
ATOM     23  C   UNL     1       1.814   5.331  20.932  0.00  0.00    +0.000 C 
BRANCH  23  26
ATOM     24  C   UNL     1       1.103   9.053  21.268  0.00  0.00    +0.000 C 
ATOM     25  N   UNL     1       1.333   7.656  21.530  0.00  0.00    +0.000 N 
ATOM     26  C   UNL     1       1.728   6.804  20.521  0.00  0.00    +0.000 C 
ATOM     27  O   UNL     1       1.981   7.182  19.380  0.00  0.00    +0.000 OA
ATOM     28  H   UNL     1       0.883   7.234  22.343  0.00  0.00    +0.000 HD
ENDBRANCH  23  26
ENDBRANCH  22  23
ENDBRANCH  20  22
ENDBRANCH   1  20
TORSDOF 6
ENDMDL
MODEL 9
REMARK VINA RESULT:      -7.2      3.657      7.038
REMARK  Name = 
REMARK  7 active torsions:
REMARK  status: ('A' for Active; 'I' for Inactive)
REMARK    1  A    between atoms: C_1  and  N_2
REMARK    2  A    between atoms: C_3  and  C_5
REMARK    3  A    between atoms: C_5  and  O_6
REMARK    4  A    between atoms: O_6  and  C_7
REMARK    5  A    between atoms: C_7  and  C_9
REMARK    6  A    between atoms: N_12  and  S_13
REMARK    7  A    between atoms: S_13  and  C_16
REMARK                            x       y       z     vdW  Elec       q    Type
REMARK                         _______ _______ _______ _____ _____    ______ ____
ROOT
ATOM      1  C   UNL     1       1.833   2.444  19.758  0.00  0.00    +0.000 C 
ATOM      2  C   UNL     1       3.229   1.838  19.941  0.00  0.00    +0.000 C 
ATOM      3  C   UNL     1       4.313   2.898  19.758  0.00  0.00    +0.000 C 
ATOM      4  N   UNL     1       4.222   3.502  18.398  0.00  0.00    +0.000 NA
ATOM      5  C   UNL     1       2.870   4.069  18.098  0.00  0.00    +0.000 C 
ATOM      6  C   UNL     1       1.761   3.055  18.356  0.00  0.00    +0.000 C 
ENDROOT
BRANCH   4   7
ATOM      7  S   UNL     1       5.465   4.670  18.086  0.00  0.00    +0.000 S 
ATOM      8  O   UNL     1       4.907   5.988  18.301  0.00  0.00    +0.000 OA
ATOM      9  O   UNL     1       6.646   4.232  18.803  0.00  0.00    +0.000 OA
BRANCH   7  10
ATOM     10  C   UNL     1       5.770   4.514  16.345  0.00  0.00    +0.000 A 
ATOM     11  C   UNL     1       4.929   3.723  15.550  0.00  0.00    +0.000 A 
ATOM     12  C   UNL     1       5.211   3.573  14.190  0.00  0.00    +0.000 A 
ATOM     13  C   UNL     1       6.323   4.208  13.635  0.00  0.00    +0.000 A 
ATOM     14  C   UNL     1       7.146   5.011  14.435  0.00  0.00    +0.000 A 
ATOM     15  C   UNL     1       6.888   5.146  15.796  0.00  0.00    +0.000 A 
ATOM     16  O   UNL     1       8.232   5.691  13.945  0.00  0.00    +0.000 OA
ATOM     17  C   UNL     1       8.174   5.793  12.517  0.00  0.00    +0.000 C 
ATOM     18  C   UNL     1       7.847   4.443  11.900  0.00  0.00    +0.000 C 
ATOM     19  O   UNL     1       6.541   4.006  12.296  0.00  0.00    +0.000 OA
ENDBRANCH   7  10
ENDBRANCH   4   7
BRANCH   1  20
ATOM     20  C   UNL     1       1.534   3.400  20.907  0.00  0.00    +0.000 C 
ATOM     21  O   UNL     1       1.540   3.060  22.085  0.00  0.00    +0.000 OA
BRANCH  20  22
ATOM     22  O   UNL     1       1.215   4.650  20.484  0.00  0.00    +0.000 OA
BRANCH  22  23
ATOM     23  C   UNL     1       2.014   5.694  21.051  0.00  0.00    +0.000 C 
BRANCH  23  26
ATOM     24  C   UNL     1       2.187   8.350  18.333  0.00  0.00    +0.000 C 
ATOM     25  N   UNL     1       2.228   7.111  19.066  0.00  0.00    +0.000 N 
ATOM     26  C   UNL     1       1.795   7.050  20.374  0.00  0.00    +0.000 C 
ATOM     27  O   UNL     1       1.286   8.002  20.961  0.00  0.00    +0.000 OA
ATOM     28  H   UNL     1       2.876   6.385  18.758  0.00  0.00    +0.000 HD
ENDBRANCH  23  26
ENDBRANCH  22  23
ENDBRANCH  20  22
ENDBRANCH   1  20
TORSDOF 6
ENDMDL
