MODEL 1
REMARK VINA RESULT:      -8.4      0.000      0.000
REMARK  Name = 
REMARK  5 active torsions:
REMARK  status: ('A' for Active; 'I' for Inactive)
REMARK    1  A    between atoms: C_2  and  C_3
REMARK    2  A    between atoms: C_3  and  N_4
REMARK    3  A    between atoms: C_7  and  C_8
REMARK    4  A    between atoms: C_9  and  C_10
REMARK    5  A    between atoms: N_23  and  C_24
REMARK                            x       y       z     vdW  Elec       q    Type
REMARK                         _______ _______ _______ _____ _____    ______ ____
ROOT
ATOM      1  N   UNL     1       3.355   5.664  18.718  0.00  0.00    +0.000 N 
ATOM      2  C   UNL     1       3.786   5.944  17.432  0.00  0.00    +0.000 A 
ATOM      3  O   UNL     1       3.909   7.079  16.984  0.00  0.00    +0.000 OA
ATOM      4  C   UNL     1       4.134   4.732  16.570  0.00  0.00    +0.000 A 
ATOM      5  N   UNL     1       3.692   3.546  16.852  0.00  0.00    +0.000 NA
ATOM      6  C   UNL     1       2.921   3.378  18.016  0.00  0.00    +0.000 A 
ATOM      7  C   UNL     1       2.311   2.137  18.221  0.00  0.00    +0.000 A 
ATOM      8  C   UNL     1       1.598   1.879  19.392  0.00  0.00    +0.000 A 
ATOM      9  C   UNL     1       1.517   2.856  20.380  0.00  0.00    +0.000 A 
ATOM     10  C   UNL     1       2.129   4.098  20.193  0.00  0.00    +0.000 A 
ATOM     11  C   UNL     1       2.813   4.380  19.003  0.00  0.00    +0.000 A 
ENDROOT
BRANCH   4  12
ATOM     12  C   UNL     1       5.127   5.010  15.487  0.00  0.00    +0.000 C 
ATOM     13  C   UNL     1       6.374   5.480  15.634  0.00  0.00    +0.000 C 
BRANCH  13  14
ATOM     14  C   UNL     1       7.046   5.743  16.902  0.00  0.00    +0.000 A 
ATOM     15  C   UNL     1       7.343   4.685  17.757  0.00  0.00    +0.000 A 
ATOM     16  C   UNL     1       7.971   4.970  18.958  0.00  0.00    +0.000 A 
ATOM     17  N   UNL     1       8.315   6.215  19.348  0.00  0.00    +0.000 NA
ATOM     18  C   UNL     1       8.011   7.221  18.501  0.00  0.00    +0.000 A 
ATOM     19  C   UNL     1       7.391   7.040  17.275  0.00  0.00    +0.000 A 
ENDBRANCH  13  14
ENDBRANCH   4  12
BRANCH   1  20
ATOM     20  C   UNL     1       3.406   6.728  19.705  0.00  0.00    +0.000 C 
BRANCH  20  22
ATOM     21  O   UNL     1       1.342   7.204  20.785  0.00  0.00    +0.000 OA
ATOM     22  C   UNL     1       2.115   7.516  19.880  0.00  0.00    +0.000 C 
ATOM     23  N   UNL     1       1.952   8.575  19.000  0.00  0.00    +0.000 N 
ATOM     24  H   UNL     1       2.599   8.630  18.217  0.00  0.00    +0.000 HD
BRANCH  23  25
ATOM     25  C   UNL     1       0.866   9.484  19.020  0.00  0.00    +0.000 A 
ATOM     26  C   UNL     1       0.636  10.363  20.084  0.00  0.00    +0.000 A 
ATOM     27  C   UNL     1      -0.489  11.188  20.108  0.00  0.00    +0.000 A 
ATOM     28  C   UNL     1      -1.400  11.155  19.056  0.00  0.00    +0.000 A 
ATOM     29 CL   UNL     1      -2.804  12.153  19.181  0.00  0.00    +0.000 Cl
ATOM     30  C   UNL     1      -1.155  10.321  17.960  0.00  0.00    +0.000 A 
ATOM     31 CL   UNL     1      -2.235  10.241  16.611  0.00  0.00    +0.000 Cl
ATOM     32  C   UNL     1      -0.016   9.496  17.937  0.00  0.00    +0.000 A 
ENDBRANCH  23  25
ENDBRANCH  20  22
ENDBRANCH   1  20
TORSDOF 5
ENDMDL
MODEL 2
REMARK VINA RESULT:      -8.3      4.334      7.509
REMARK  Name = 
REMARK  5 active torsions:
REMARK  status: ('A' for Active; 'I' for Inactive)
REMARK    1  A    between atoms: C_2  and  C_3
REMARK    2  A    between atoms: C_3  and  N_4
REMARK    3  A    between atoms: C_7  and  C_8
REMARK    4  A    between atoms: C_9  and  C_10
REMARK    5  A    between atoms: N_23  and  C_24
REMARK                            x       y       z     vdW  Elec       q    Type
REMARK                         _______ _______ _______ _____ _____    ______ ____
ROOT
ATOM      1  N   UNL     1       6.530   5.970  17.766  0.00  0.00    +0.000 N 
ATOM      2  C   UNL     1       5.451   5.980  18.633  0.00  0.00    +0.000 A 
ATOM      3  O   UNL     1       5.553   6.070  19.851  0.00  0.00    +0.000 OA
ATOM      4  C   UNL     1       4.073   5.893  17.978  0.00  0.00    +0.000 A 
ATOM      5  N   UNL     1       3.919   5.443  16.771  0.00  0.00    +0.000 NA
ATOM      6  C   UNL     1       5.066   5.086  16.039  0.00  0.00    +0.000 A 
ATOM      7  C   UNL     1       4.881   4.448  14.809  0.00  0.00    +0.000 A 
ATOM      8  C   UNL     1       5.973   4.138  13.997  0.00  0.00    +0.000 A 
ATOM      9  C   UNL     1       7.257   4.492  14.402  0.00  0.00    +0.000 A 
ATOM     10  C   UNL     1       7.456   5.138  15.625  0.00  0.00    +0.000 A 
ATOM     11  C   UNL     1       6.369   5.417  16.464  0.00  0.00    +0.000 A 
ENDROOT
BRANCH   4  12
ATOM     12  C   UNL     1       2.968   6.496  18.784  0.00  0.00    +0.000 C 
ATOM     13  C   UNL     1       1.989   5.846  19.429  0.00  0.00    +0.000 C 
BRANCH  13  14
ATOM     14  C   UNL     1       1.851   4.397  19.540  0.00  0.00    +0.000 A 
ATOM     15  C   UNL     1       2.243   3.755  20.712  0.00  0.00    +0.000 A 
ATOM     16  C   UNL     1       2.110   2.379  20.780  0.00  0.00    +0.000 A 
ATOM     17  N   UNL     1       1.620   1.621  19.776  0.00  0.00    +0.000 NA
ATOM     18  C   UNL     1       1.252   2.270  18.651  0.00  0.00    +0.000 A 
ATOM     19  C   UNL     1       1.338   3.643  18.486  0.00  0.00    +0.000 A 
ENDBRANCH  13  14
ENDBRANCH   4  12
BRANCH   1  20
ATOM     20  C   UNL     1       7.807   6.457  18.256  0.00  0.00    +0.000 C 
BRANCH  20  22
ATOM     21  O   UNL     1       7.459   8.548  17.176  0.00  0.00    +0.000 OA
ATOM     22  C   UNL     1       8.047   7.950  18.078  0.00  0.00    +0.000 C 
ATOM     23  N   UNL     1       8.900   8.522  19.010  0.00  0.00    +0.000 N 
ATOM     24  H   UNL     1       9.422   7.887  19.609  0.00  0.00    +0.000 HD
BRANCH  23  25
ATOM     25  C   UNL     1       9.214   9.900  19.081  0.00  0.00    +0.000 A 
ATOM     26  C   UNL     1       9.573  10.652  17.957  0.00  0.00    +0.000 A 
ATOM     27  C   UNL     1       9.955  11.989  18.074  0.00  0.00    +0.000 A 
ATOM     28  C   UNL     1       9.971  12.603  19.323  0.00  0.00    +0.000 A 
ATOM     29 CL   UNL     1      10.516  14.239  19.406  0.00  0.00    +0.000 Cl
ATOM     30  C   UNL     1       9.561  11.879  20.449  0.00  0.00    +0.000 A 
ATOM     31 CL   UNL     1       9.541  12.582  22.030  0.00  0.00    +0.000 Cl
ATOM     32  C   UNL     1       9.171  10.534  20.325  0.00  0.00    +0.000 A 
ENDBRANCH  23  25
ENDBRANCH  20  22
ENDBRANCH   1  20
TORSDOF 5
ENDMDL
MODEL 3
REMARK VINA RESULT:      -8.3      4.450     10.259
REMARK  Name = 
REMARK  5 active torsions:
REMARK  status: ('A' for Active; 'I' for Inactive)
REMARK    1  A    between atoms: C_2  and  C_3
REMARK    2  A    between atoms: C_3  and  N_4
REMARK    3  A    between atoms: C_7  and  C_8
REMARK    4  A    between atoms: C_9  and  C_10
REMARK    5  A    between atoms: N_23  and  C_24
REMARK                            x       y       z     vdW  Elec       q    Type
REMARK                         _______ _______ _______ _____ _____    ______ ____
ROOT
ATOM      1  N   UNL     1       0.042  10.659  21.185  0.00  0.00    +0.000 N 
ATOM      2  C   UNL     1      -0.467  11.266  22.320  0.00  0.00    +0.000 A 
ATOM      3  O   UNL     1      -0.218  10.898  23.463  0.00  0.00    +0.000 OA
ATOM      4  C   UNL     1      -1.370  12.475  22.078  0.00  0.00    +0.000 A 
ATOM      5  N   UNL     1      -1.943  12.679  20.933  0.00  0.00    +0.000 NA
ATOM      6  C   UNL     1      -1.670  11.788  19.880  0.00  0.00    +0.000 A 
ATOM      7  C   UNL     1      -2.417  11.917  18.705  0.00  0.00    +0.000 A 
ATOM      8  C   UNL     1      -2.143  11.117  17.595  0.00  0.00    +0.000 A 
ATOM      9  C   UNL     1      -1.097  10.200  17.647  0.00  0.00    +0.000 A 
ATOM     10  C   UNL     1      -0.334  10.066  18.810  0.00  0.00    +0.000 A 
ATOM     11  C   UNL     1      -0.629  10.838  19.943  0.00  0.00    +0.000 A 
ENDROOT
BRANCH   4  12
ATOM     12  C   UNL     1      -1.411  13.451  23.209  0.00  0.00    +0.000 C 
ATOM     13  C   UNL     1      -2.493  13.861  23.886  0.00  0.00    +0.000 C 
BRANCH  13  14
ATOM     14  C   UNL     1      -3.855  13.371  23.701  0.00  0.00    +0.000 A 
ATOM     15  C   UNL     1      -4.408  12.501  24.639  0.00  0.00    +0.000 A 
ATOM     16  C   UNL     1      -5.697  12.045  24.428  0.00  0.00    +0.000 A 
ATOM     17  N   UNL     1      -6.454  12.396  23.367  0.00  0.00    +0.000 NA
ATOM     18  C   UNL     1      -5.891  13.237  22.473  0.00  0.00    +0.000 A 
ATOM     19  C   UNL     1      -4.612  13.754  22.596  0.00  0.00    +0.000 A 
ENDBRANCH  13  14
ENDBRANCH   4  12
BRANCH   1  20
ATOM     20  C   UNL     1       1.203   9.799  21.330  0.00  0.00    +0.000 C 
BRANCH  20  22
ATOM     21  O   UNL     1      -0.110   7.816  21.353  0.00  0.00    +0.000 OA
ATOM     22  C   UNL     1       0.963   8.325  21.032  0.00  0.00    +0.000 C 
ATOM     23  N   UNL     1       1.997   7.688  20.362  0.00  0.00    +0.000 N 
ATOM     24  H   UNL     1       2.878   8.191  20.285  0.00  0.00    +0.000 HD
BRANCH  23  25
ATOM     25  C   UNL     1       1.968   6.342  19.923  0.00  0.00    +0.000 A 
ATOM     26  C   UNL     1       2.107   5.983  18.579  0.00  0.00    +0.000 A 
ATOM     27  C   UNL     1       1.994   4.653  18.171  0.00  0.00    +0.000 A 
ATOM     28  C   UNL     1       1.749   3.654  19.110  0.00  0.00    +0.000 A 
ATOM     29 CL   UNL     1       1.554   2.040  18.530  0.00  0.00    +0.000 Cl
ATOM     30  C   UNL     1       1.662   3.992  20.465  0.00  0.00    +0.000 A 
ATOM     31 CL   UNL     1       1.376   2.802  21.688  0.00  0.00    +0.000 Cl
ATOM     32  C   UNL     1       1.784   5.333  20.872  0.00  0.00    +0.000 A 
ENDBRANCH  23  25
ENDBRANCH  20  22
ENDBRANCH   1  20
TORSDOF 5
ENDMDL
MODEL 4
REMARK VINA RESULT:      -8.1      4.113      9.659
REMARK  Name = 
REMARK  5 active torsions:
REMARK  status: ('A' for Active; 'I' for Inactive)
REMARK    1  A    between atoms: C_2  and  C_3
REMARK    2  A    between atoms: C_3  and  N_4
REMARK    3  A    between atoms: C_7  and  C_8
REMARK    4  A    between atoms: C_9  and  C_10
REMARK    5  A    between atoms: N_23  and  C_24
REMARK                            x       y       z     vdW  Elec       q    Type
REMARK                         _______ _______ _______ _____ _____    ______ ____
ROOT
ATOM      1  N   UNL     1      -0.119  10.581  20.553  0.00  0.00    +0.000 N 
ATOM      2  C   UNL     1      -0.213  10.439  19.179  0.00  0.00    +0.000 A 
ATOM      3  O   UNL     1       0.672   9.960  18.478  0.00  0.00    +0.000 OA
ATOM      4  C   UNL     1      -1.527  10.904  18.553  0.00  0.00    +0.000 A 
ATOM      5  N   UNL     1      -2.322  11.725  19.167  0.00  0.00    +0.000 NA
ATOM      6  C   UNL     1      -1.979  12.142  20.465  0.00  0.00    +0.000 A 
ATOM      7  C   UNL     1      -2.750  13.152  21.051  0.00  0.00    +0.000 A 
ATOM      8  C   UNL     1      -2.513  13.557  22.365  0.00  0.00    +0.000 A 
ATOM      9  C   UNL     1      -1.519  12.931  23.111  0.00  0.00    +0.000 A 
ATOM     10  C   UNL     1      -0.746  11.914  22.543  0.00  0.00    +0.000 A 
ATOM     11  C   UNL     1      -0.951  11.529  21.211  0.00  0.00    +0.000 A 
ENDROOT
BRANCH   4  12
ATOM     12  C   UNL     1      -1.871  10.227  17.265  0.00  0.00    +0.000 C 
ATOM     13  C   UNL     1      -3.088  10.100  16.718  0.00  0.00    +0.000 C 
BRANCH  13  14
ATOM     14  C   UNL     1      -4.325  10.674  17.237  0.00  0.00    +0.000 A 
ATOM     15  C   UNL     1      -4.791  11.884  16.729  0.00  0.00    +0.000 A 
ATOM     16  C   UNL     1      -5.960  12.407  17.252  0.00  0.00    +0.000 A 
ATOM     17  N   UNL     1      -6.680  11.811  18.226  0.00  0.00    +0.000 NA
ATOM     18  C   UNL     1      -6.203  10.641  18.701  0.00  0.00    +0.000 A 
ATOM     19  C   UNL     1      -5.047  10.032  18.241  0.00  0.00    +0.000 A 
ENDBRANCH  13  14
ENDBRANCH   4  12
BRANCH   1  20
ATOM     20  C   UNL     1       0.888   9.804  21.254  0.00  0.00    +0.000 C 
BRANCH  20  22
ATOM     21  O   UNL     1      -0.137   7.661  21.373  0.00  0.00    +0.000 OA
ATOM     22  C   UNL     1       0.845   8.303  21.002  0.00  0.00    +0.000 C 
ATOM     23  N   UNL     1       1.937   7.794  20.314  0.00  0.00    +0.000 N 
ATOM     24  H   UNL     1       2.737   8.411  20.195  0.00  0.00    +0.000 HD
BRANCH  23  25
ATOM     25  C   UNL     1       2.081   6.445  19.911  0.00  0.00    +0.000 A 
ATOM     26  C   UNL     1       2.389   6.078  18.597  0.00  0.00    +0.000 A 
ATOM     27  C   UNL     1       2.445   4.736  18.216  0.00  0.00    +0.000 A 
ATOM     28  C   UNL     1       2.204   3.735  19.153  0.00  0.00    +0.000 A 
ATOM     29 CL   UNL     1       2.224   2.099  18.601  0.00  0.00    +0.000 Cl
ATOM     30  C   UNL     1       1.949   4.086  20.484  0.00  0.00    +0.000 A 
ATOM     31 CL   UNL     1       1.657   2.894  21.704  0.00  0.00    +0.000 Cl
ATOM     32  C   UNL     1       1.901   5.439  20.864  0.00  0.00    +0.000 A 
ENDBRANCH  23  25
ENDBRANCH  20  22
ENDBRANCH   1  20
TORSDOF 5
ENDMDL
MODEL 5
REMARK VINA RESULT:      -8.1      0.712      1.388
REMARK  Name = 
REMARK  5 active torsions:
REMARK  status: ('A' for Active; 'I' for Inactive)
REMARK    1  A    between atoms: C_2  and  C_3
REMARK    2  A    between atoms: C_3  and  N_4
REMARK    3  A    between atoms: C_7  and  C_8
REMARK    4  A    between atoms: C_9  and  C_10
REMARK    5  A    between atoms: N_23  and  C_24
REMARK                            x       y       z     vdW  Elec       q    Type
REMARK                         _______ _______ _______ _____ _____    ______ ____
ROOT
ATOM      1  N   UNL     1       3.392   5.606  18.690  0.00  0.00    +0.000 N 
ATOM      2  C   UNL     1       3.824   5.933  17.416  0.00  0.00    +0.000 A 
ATOM      3  O   UNL     1       3.945   7.083  17.009  0.00  0.00    +0.000 OA
ATOM      4  C   UNL     1       4.179   4.753  16.512  0.00  0.00    +0.000 A 
ATOM      5  N   UNL     1       3.740   3.556  16.751  0.00  0.00    +0.000 NA
ATOM      6  C   UNL     1       2.967   3.345  17.906  0.00  0.00    +0.000 A 
ATOM      7  C   UNL     1       2.360   2.096  18.066  0.00  0.00    +0.000 A 
ATOM      8  C   UNL     1       1.646   1.794  19.226  0.00  0.00    +0.000 A 
ATOM      9  C   UNL     1       1.559   2.736  20.247  0.00  0.00    +0.000 A 
ATOM     10  C   UNL     1       2.168   3.986  20.106  0.00  0.00    +0.000 A 
ATOM     11  C   UNL     1       2.853   4.311  18.928  0.00  0.00    +0.000 A 
ENDROOT
BRANCH   4  12
ATOM     12  C   UNL     1       5.173   5.072  15.442  0.00  0.00    +0.000 C 
ATOM     13  C   UNL     1       6.415   5.548  15.608  0.00  0.00    +0.000 C 
BRANCH  13  14
ATOM     14  C   UNL     1       7.081   5.778  16.886  0.00  0.00    +0.000 A 
ATOM     15  C   UNL     1       7.380   4.697  17.712  0.00  0.00    +0.000 A 
ATOM     16  C   UNL     1       8.001   4.951  18.923  0.00  0.00    +0.000 A 
ATOM     17  N   UNL     1       8.337   6.186  19.351  0.00  0.00    +0.000 NA
ATOM     18  C   UNL     1       8.031   7.215  18.531  0.00  0.00    +0.000 A 
ATOM     19  C   UNL     1       7.417   7.066  17.298  0.00  0.00    +0.000 A 
ENDBRANCH  13  14
ENDBRANCH   4  12
BRANCH   1  20
ATOM     20  C   UNL     1       3.437   6.635  19.714  0.00  0.00    +0.000 C 
BRANCH  20  22
ATOM     21  O   UNL     1       1.344   6.970  20.790  0.00  0.00    +0.000 OA
ATOM     22  C   UNL     1       2.132   7.385  19.942  0.00  0.00    +0.000 C 
ATOM     23  N   UNL     1       1.974   8.530  19.175  0.00  0.00    +0.000 N 
ATOM     24  H   UNL     1       2.637   8.675  18.417  0.00  0.00    +0.000 HD
BRANCH  23  25
ATOM     25  C   UNL     1       0.875   9.418  19.266  0.00  0.00    +0.000 A 
ATOM     26  C   UNL     1       0.059   9.725  18.171  0.00  0.00    +0.000 A 
ATOM     27  C   UNL     1      -0.966  10.666  18.277  0.00  0.00    +0.000 A 
ATOM     28  C   UNL     1      -1.200  11.310  19.489  0.00  0.00    +0.000 A 
ATOM     29 CL   UNL     1      -2.440  12.510  19.533  0.00  0.00    +0.000 Cl
ATOM     30  C   UNL     1      -0.428  10.972  20.606  0.00  0.00    +0.000 A 
ATOM     31 CL   UNL     1      -0.673  11.719  22.148  0.00  0.00    +0.000 Cl
ATOM     32  C   UNL     1       0.600  10.019  20.497  0.00  0.00    +0.000 A 
ENDBRANCH  23  25
ENDBRANCH  20  22
ENDBRANCH   1  20
TORSDOF 5
ENDMDL
MODEL 6
REMARK VINA RESULT:      -8.0      4.330     10.134
REMARK  Name = 
REMARK  5 active torsions:
REMARK  status: ('A' for Active; 'I' for Inactive)
REMARK    1  A    between atoms: C_2  and  C_3
REMARK    2  A    between atoms: C_3  and  N_4
REMARK    3  A    between atoms: C_7  and  C_8
REMARK    4  A    between atoms: C_9  and  C_10
REMARK    5  A    between atoms: N_23  and  C_24
REMARK                            x       y       z     vdW  Elec       q    Type
REMARK                         _______ _______ _______ _____ _____    ______ ____
ROOT
ATOM      1  N   UNL     1      -0.304  11.269  19.751  0.00  0.00    +0.000 N 
ATOM      2  C   UNL     1      -0.528  12.057  20.866  0.00  0.00    +0.000 A 
ATOM      3  O   UNL     1       0.159  12.018  21.881  0.00  0.00    +0.000 OA
ATOM      4  C   UNL     1      -1.701  13.032  20.765  0.00  0.00    +0.000 A 
ATOM      5  N   UNL     1      -2.651  12.867  19.897  0.00  0.00    +0.000 NA
ATOM      6  C   UNL     1      -2.554  11.793  18.995  0.00  0.00    +0.000 A 
ATOM      7  C   UNL     1      -3.657  11.525  18.179  0.00  0.00    +0.000 A 
ATOM      8  C   UNL     1      -3.598  10.524  17.208  0.00  0.00    +0.000 A 
ATOM      9  C   UNL     1      -2.421   9.804  17.030  0.00  0.00    +0.000 A 
ATOM     10  C   UNL     1      -1.306  10.067  17.832  0.00  0.00    +0.000 A 
ATOM     11  C   UNL     1      -1.370  11.042  18.836  0.00  0.00    +0.000 A 
ENDROOT
BRANCH   4  12
ATOM     12  C   UNL     1      -1.577  14.239  21.637  0.00  0.00    +0.000 C 
ATOM     13  C   UNL     1      -2.391  14.601  22.639  0.00  0.00    +0.000 C 
BRANCH  13  14
ATOM     14  C   UNL     1      -3.531  13.837  23.135  0.00  0.00    +0.000 A 
ATOM     15  C   UNL     1      -4.781  13.999  22.542  0.00  0.00    +0.000 A 
ATOM     16  C   UNL     1      -5.843  13.268  23.044  0.00  0.00    +0.000 A 
ATOM     17  N   UNL     1      -5.739  12.403  24.074  0.00  0.00    +0.000 NA
ATOM     18  C   UNL     1      -4.517  12.268  24.631  0.00  0.00    +0.000 A 
ATOM     19  C   UNL     1      -3.390  12.948  24.199  0.00  0.00    +0.000 A 
ENDBRANCH  13  14
ENDBRANCH   4  12
BRANCH   1  20
ATOM     20  C   UNL     1       0.997  10.641  19.606  0.00  0.00    +0.000 C 
BRANCH  20  22
ATOM     21  O   UNL     1       0.335   8.773  20.919  0.00  0.00    +0.000 OA
ATOM     22  C   UNL     1       1.063   9.175  20.012  0.00  0.00    +0.000 C 
ATOM     23  N   UNL     1       1.935   8.399  19.265  0.00  0.00    +0.000 N 
ATOM     24  H   UNL     1       2.574   8.889  18.643  0.00  0.00    +0.000 HD
BRANCH  23  25
ATOM     25  C   UNL     1       2.110   7.002  19.419  0.00  0.00    +0.000 A 
ATOM     26  C   UNL     1       1.825   6.333  20.614  0.00  0.00    +0.000 A 
ATOM     27  C   UNL     1       2.085   4.969  20.757  0.00  0.00    +0.000 A 
ATOM     28  C   UNL     1       2.626   4.247  19.697  0.00  0.00    +0.000 A 
ATOM     29 CL   UNL     1       2.984   2.579  19.964  0.00  0.00    +0.000 Cl
ATOM     30  C   UNL     1       2.864   4.892  18.478  0.00  0.00    +0.000 A 
ATOM     31 CL   UNL     1       3.519   4.054  17.113  0.00  0.00    +0.000 Cl
ATOM     32  C   UNL     1       2.595   6.264  18.336  0.00  0.00    +0.000 A 
ENDBRANCH  23  25
ENDBRANCH  20  22
ENDBRANCH   1  20
TORSDOF 5
ENDMDL
MODEL 7
REMARK VINA RESULT:      -8.0      4.343      7.421
REMARK  Name = 
REMARK  5 active torsions:
REMARK  status: ('A' for Active; 'I' for Inactive)
REMARK    1  A    between atoms: C_2  and  C_3
REMARK    2  A    between atoms: C_3  and  N_4
REMARK    3  A    between atoms: C_7  and  C_8
REMARK    4  A    between atoms: C_9  and  C_10
REMARK    5  A    between atoms: N_23  and  C_24
REMARK                            x       y       z     vdW  Elec       q    Type
REMARK                         _______ _______ _______ _____ _____    ______ ____
ROOT
ATOM      1  N   UNL     1       6.617   6.043  17.702  0.00  0.00    +0.000 N 
ATOM      2  C   UNL     1       5.541   6.054  18.572  0.00  0.00    +0.000 A 
ATOM      3  O   UNL     1       5.648   6.138  19.791  0.00  0.00    +0.000 OA
ATOM      4  C   UNL     1       4.160   5.974  17.921  0.00  0.00    +0.000 A 
ATOM      5  N   UNL     1       4.001   5.531  16.713  0.00  0.00    +0.000 NA
ATOM      6  C   UNL     1       5.144   5.172  15.976  0.00  0.00    +0.000 A 
ATOM      7  C   UNL     1       4.953   4.540  14.744  0.00  0.00    +0.000 A 
ATOM      8  C   UNL     1       6.041   4.229  13.927  0.00  0.00    +0.000 A 
ATOM      9  C   UNL     1       7.328   4.577  14.329  0.00  0.00    +0.000 A 
ATOM     10  C   UNL     1       7.533   5.217  15.554  0.00  0.00    +0.000 A 
ATOM     11  C   UNL     1       6.450   5.497  16.398  0.00  0.00    +0.000 A 
ENDROOT
BRANCH   4  12
ATOM     12  C   UNL     1       3.060   6.579  18.733  0.00  0.00    +0.000 C 
ATOM     13  C   UNL     1       2.083   5.929  19.381  0.00  0.00    +0.000 C 
BRANCH  13  14
ATOM     14  C   UNL     1       1.942   4.481  19.490  0.00  0.00    +0.000 A 
ATOM     15  C   UNL     1       1.434   3.755  18.415  0.00  0.00    +0.000 A 
ATOM     16  C   UNL     1       1.303   2.384  18.555  0.00  0.00    +0.000 A 
ATOM     17  N   UNL     1       1.642   1.707  19.673  0.00  0.00    +0.000 NA
ATOM     18  C   UNL     1       2.128   2.437  20.699  0.00  0.00    +0.000 A 
ATOM     19  C   UNL     1       2.304   3.810  20.657  0.00  0.00    +0.000 A 
ENDBRANCH  13  14
ENDBRANCH   4  12
BRANCH   1  20
ATOM     20  C   UNL     1       7.898   6.524  18.189  0.00  0.00    +0.000 C 
BRANCH  20  22
ATOM     21  O   UNL     1       7.440   8.693  17.330  0.00  0.00    +0.000 OA
ATOM     22  C   UNL     1       8.089   8.034  18.141  0.00  0.00    +0.000 C 
ATOM     23  N   UNL     1       8.974   8.542  19.080  0.00  0.00    +0.000 N 
ATOM     24  H   UNL     1       9.542   7.871  19.591  0.00  0.00    +0.000 HD
BRANCH  23  25
ATOM     25  C   UNL     1       9.255   9.917  19.264  0.00  0.00    +0.000 A 
ATOM     26  C   UNL     1       9.031  10.579  20.477  0.00  0.00    +0.000 A 
ATOM     27  C   UNL     1       9.245  11.952  20.600  0.00  0.00    +0.000 A 
ATOM     28  C   UNL     1       9.699  12.688  19.509  0.00  0.00    +0.000 A 
ATOM     29 CL   UNL     1       9.878  14.393  19.712  0.00  0.00    +0.000 Cl
ATOM     30  C   UNL     1       9.980  12.031  18.306  0.00  0.00    +0.000 A 
ATOM     31 CL   UNL     1      10.563  12.878  16.915  0.00  0.00    +0.000 Cl
ATOM     32  C   UNL     1       9.770  10.645  18.188  0.00  0.00    +0.000 A 
ENDBRANCH  23  25
ENDBRANCH  20  22
ENDBRANCH   1  20
TORSDOF 5
ENDMDL
MODEL 8
REMARK VINA RESULT:      -8.0      4.402     10.263
REMARK  Name = 
REMARK  5 active torsions:
REMARK  status: ('A' for Active; 'I' for Inactive)
REMARK    1  A    between atoms: C_2  and  C_3
REMARK    2  A    between atoms: C_3  and  N_4
REMARK    3  A    between atoms: C_7  and  C_8
REMARK    4  A    between atoms: C_9  and  C_10
REMARK    5  A    between atoms: N_23  and  C_24
REMARK                            x       y       z     vdW  Elec       q    Type
REMARK                         _______ _______ _______ _____ _____    ______ ____
ROOT
ATOM      1  N   UNL     1       0.007  10.735  21.066  0.00  0.00    +0.000 N 
ATOM      2  C   UNL     1      -0.468  11.344  22.215  0.00  0.00    +0.000 A 
ATOM      3  O   UNL     1      -0.156  11.000  23.350  0.00  0.00    +0.000 OA
ATOM      4  C   UNL     1      -1.416  12.522  21.999  0.00  0.00    +0.000 A 
ATOM      5  N   UNL     1      -2.047  12.692  20.879  0.00  0.00    +0.000 NA
ATOM      6  C   UNL     1      -1.796  11.794  19.826  0.00  0.00    +0.000 A 
ATOM      7  C   UNL     1      -2.600  11.884  18.686  0.00  0.00    +0.000 A 
ATOM      8  C   UNL     1      -2.354  11.075  17.576  0.00  0.00    +0.000 A 
ATOM      9  C   UNL     1      -1.279  10.190  17.591  0.00  0.00    +0.000 A 
ATOM     10  C   UNL     1      -0.461  10.096  18.720  0.00  0.00    +0.000 A 
ATOM     11  C   UNL     1      -0.726  10.875  19.854  0.00  0.00    +0.000 A 
ENDROOT
BRANCH   4  12
ATOM     12  C   UNL     1      -1.433  13.514  23.118  0.00  0.00    +0.000 C 
ATOM     13  C   UNL     1      -2.496  13.906  23.835  0.00  0.00    +0.000 C 
BRANCH  13  14
ATOM     14  C   UNL     1      -3.851  13.377  23.717  0.00  0.00    +0.000 A 
ATOM     15  C   UNL     1      -4.658  13.777  22.655  0.00  0.00    +0.000 A 
ATOM     16  C   UNL     1      -5.942  13.267  22.579  0.00  0.00    +0.000 A 
ATOM     17  N   UNL     1      -6.459  12.398  23.474  0.00  0.00    +0.000 NA
ATOM     18  C   UNL     1      -5.656  12.031  24.495  0.00  0.00    +0.000 A 
ATOM     19  C   UNL     1      -4.355  12.479  24.657  0.00  0.00    +0.000 A 
ENDBRANCH  13  14
ENDBRANCH   4  12
BRANCH   1  20
ATOM     20  C   UNL     1       1.198   9.911  21.169  0.00  0.00    +0.000 C 
BRANCH  20  22
ATOM     21  O   UNL     1      -0.080   7.923  21.433  0.00  0.00    +0.000 OA
ATOM     22  C   UNL     1       0.969   8.413  21.018  0.00  0.00    +0.000 C 
ATOM     23  N   UNL     1       1.983   7.729  20.364  0.00  0.00    +0.000 N 
ATOM     24  H   UNL     1       2.851   8.234  20.202  0.00  0.00    +0.000 HD
BRANCH  23  25
ATOM     25  C   UNL     1       1.957   6.349  20.052  0.00  0.00    +0.000 A 
ATOM     26  C   UNL     1       1.386   5.394  20.901  0.00  0.00    +0.000 A 
ATOM     27  C   UNL     1       1.448   4.032  20.600  0.00  0.00    +0.000 A 
ATOM     28  C   UNL     1       2.075   3.603  19.434  0.00  0.00    +0.000 A 
ATOM     29 CL   UNL     1       2.175   1.902  19.156  0.00  0.00    +0.000 Cl
ATOM     30  C   UNL     1       2.602   4.551  18.549  0.00  0.00    +0.000 A 
ATOM     31 CL   UNL     1       3.381   4.091  17.073  0.00  0.00    +0.000 Cl
ATOM     32  C   UNL     1       2.531   5.922  18.852  0.00  0.00    +0.000 A 
ENDBRANCH  23  25
ENDBRANCH  20  22
ENDBRANCH   1  20
TORSDOF 5
ENDMDL
MODEL 9
REMARK VINA RESULT:      -8.0      3.214      5.893
REMARK  Name = 
REMARK  5 active torsions:
REMARK  status: ('A' for Active; 'I' for Inactive)
REMARK    1  A    between atoms: C_2  and  C_3
REMARK    2  A    between atoms: C_3  and  N_4
REMARK    3  A    between atoms: C_7  and  C_8
REMARK    4  A    between atoms: C_9  and  C_10
REMARK    5  A    between atoms: N_23  and  C_24
REMARK                            x       y       z     vdW  Elec       q    Type
REMARK                         _______ _______ _______ _____ _____    ______ ____
ROOT
ATOM      1  N   UNL     1       1.084  10.300  19.213  0.00  0.00    +0.000 N 
ATOM      2  C   UNL     1       1.533   9.255  18.424  0.00  0.00    +0.000 A 
ATOM      3  O   UNL     1       1.521   9.270  17.198  0.00  0.00    +0.000 OA
ATOM      4  C   UNL     1       2.087   8.046  19.176  0.00  0.00    +0.000 A 
ATOM      5  N   UNL     1       1.798   7.828  20.422  0.00  0.00    +0.000 NA
ATOM      6  C   UNL     1       1.002   8.769  21.099  0.00  0.00    +0.000 A 
ATOM      7  C   UNL     1       0.559   8.444  22.384  0.00  0.00    +0.000 A 
ATOM      8  C   UNL     1      -0.168   9.364  23.141  0.00  0.00    +0.000 A 
ATOM      9  C   UNL     1      -0.431  10.629  22.623  0.00  0.00    +0.000 A 
ATOM     10  C   UNL     1       0.014  10.972  21.343  0.00  0.00    +0.000 A 
ATOM     11  C   UNL     1       0.709  10.040  20.561  0.00  0.00    +0.000 A 
ENDROOT
BRANCH   4  12
ATOM     12  C   UNL     1       3.082   7.242  18.404  0.00  0.00    +0.000 C 
ATOM     13  C   UNL     1       3.281   5.918  18.474  0.00  0.00    +0.000 C 
BRANCH  13  14
ATOM     14  C   UNL     1       2.501   4.975  19.269  0.00  0.00    +0.000 A 
ATOM     15  C   UNL     1       2.802   4.794  20.617  0.00  0.00    +0.000 A 
ATOM     16  C   UNL     1       2.051   3.884  21.339  0.00  0.00    +0.000 A 
ATOM     17  N   UNL     1       1.038   3.161  20.815  0.00  0.00    +0.000 NA
ATOM     18  C   UNL     1       0.771   3.355  19.506  0.00  0.00    +0.000 A 
ATOM     19  C   UNL     1       1.459   4.246  18.698  0.00  0.00    +0.000 A 
ENDBRANCH  13  14
ENDBRANCH   4  12
BRANCH   1  20
ATOM     20  C   UNL     1       0.940  11.609  18.600  0.00  0.00    +0.000 C 
BRANCH  20  22
ATOM     21  O   UNL     1      -0.692  13.339  18.630  0.00  0.00    +0.000 OA
ATOM     22  C   UNL     1      -0.487  12.132  18.507  0.00  0.00    +0.000 C 
ATOM     23  N   UNL     1      -1.447  11.167  18.238  0.00  0.00    +0.000 N 
ATOM     24  H   UNL     1      -1.156  10.195  18.301  0.00  0.00    +0.000 HD
BRANCH  23  25
ATOM     25  C   UNL     1      -2.824  11.430  18.042  0.00  0.00    +0.000 A 
ATOM     26  C   UNL     1      -3.449  11.298  16.797  0.00  0.00    +0.000 A 
ATOM     27  C   UNL     1      -4.790  11.643  16.623  0.00  0.00    +0.000 A 
ATOM     28  C   UNL     1      -5.535  12.116  17.700  0.00  0.00    +0.000 A 
ATOM     29 CL   UNL     1      -7.169  12.586  17.399  0.00  0.00    +0.000 Cl
ATOM     30  C   UNL     1      -4.938  12.201  18.963  0.00  0.00    +0.000 A 
ATOM     31 CL   UNL     1      -5.807  12.764  20.349  0.00  0.00    +0.000 Cl
ATOM     32  C   UNL     1      -3.588  11.846  19.136  0.00  0.00    +0.000 A 
ENDBRANCH  23  25
ENDBRANCH  20  22
ENDBRANCH   1  20
TORSDOF 5
ENDMDL
