MODEL 1
REMARK VINA RESULT:      -8.1      0.000      0.000
REMARK  Name = 
REMARK  9 active torsions:
REMARK  status: ('A' for Active; 'I' for Inactive)
REMARK    1  A    between atoms: C_1  and  C_2
REMARK    2  A    between atoms: C_4  and  C_5
REMARK    3  A    between atoms: C_13  and  C_14
REMARK    4  A    between atoms: C_14  and  O_15
REMARK    5  A    between atoms: O_15  and  C_16
REMARK    6  A    between atoms: C_19  and  S_20
REMARK    7  A    between atoms: S_20  and  C_23
REMARK    8  A    between atoms: C_23  and  C_24
REMARK    9  A    between atoms: C_24  and  O_26
REMARK                            x       y       z     vdW  Elec       q    Type
REMARK                         _______ _______ _______ _____ _____    ______ ____
ROOT
ATOM      1  O   UNL     1       3.209   5.584  18.752  0.00  0.00    +0.000 OA
ENDROOT
BRANCH   1   2
ATOM      2  C   UNL     1       2.634   6.774  19.101  0.00  0.00    +0.000 A 
ATOM      3  C   UNL     1       2.621   7.730  18.081  0.00  0.00    +0.000 A 
ATOM      4  C   UNL     1       2.034   8.980  18.282  0.00  0.00    +0.000 A 
ATOM      5  C   UNL     1       1.424   9.261  19.505  0.00  0.00    +0.000 A 
ATOM      6  C   UNL     1       1.426   8.316  20.535  0.00  0.00    +0.000 A 
ATOM      7  C   UNL     1       2.036   7.070  20.329  0.00  0.00    +0.000 A 
BRANCH   5   8
ATOM      8  S   UNL     1       0.656  10.843  19.732  0.00  0.00    +0.000 S 
ATOM      9  O   UNL     1       0.893  11.288  21.096  0.00  0.00    +0.000 OA
ATOM     10  O   UNL     1       1.062  11.671  18.612  0.00  0.00    +0.000 OA
BRANCH   8  11
ATOM     11  C   UNL     1      -1.070  10.568  19.600  0.00  0.00    +0.000 C 
BRANCH  11  12
ATOM     12  C   UNL     1      -1.558  10.975  18.255  0.00  0.00    +0.000 C 
ATOM     13  O   UNL     1      -2.421  11.829  18.100  0.00  0.00    +0.000 OA
BRANCH  12  14
ATOM     14  O   UNL     1      -1.044  10.289  17.212  0.00  0.00    +0.000 OA
ATOM     15  H   UNL     1      -1.531   9.473  16.949  0.00  0.00    +0.000 HD
ENDBRANCH  12  14
ENDBRANCH  11  12
ENDBRANCH   8  11
ENDBRANCH   5   8
ENDBRANCH   1   2
BRANCH   1  16
ATOM     16  C   UNL     1       4.505   5.312  19.284  0.00  0.00    +0.000 C 
BRANCH  16  22
ATOM     17  C   UNL     1       7.730   5.757  19.175  0.00  0.00    +0.000 C 
ATOM     18  C   UNL     1       6.816   5.406  18.056  0.00  0.00    +0.000 A 
ATOM     19  N   UNL     1       7.371   5.225  16.798  0.00  0.00    +0.000 NA
ATOM     20  C   UNL     1       6.437   4.975  15.902  0.00  0.00    +0.000 A 
ATOM     21  S   UNL     1       4.846   4.871  16.548  0.00  0.00    +0.000 S 
ATOM     22  C   UNL     1       5.441   5.235  18.117  0.00  0.00    +0.000 A 
BRANCH  20  23
ATOM     23  C   UNL     1       6.709   4.754  14.471  0.00  0.00    +0.000 A 
ATOM     24  C   UNL     1       7.661   5.500  13.755  0.00  0.00    +0.000 A 
ATOM     25  C   UNL     1       7.910   5.241  12.404  0.00  0.00    +0.000 A 
ATOM     26  C   UNL     1       7.211   4.230  11.748  0.00  0.00    +0.000 A 
ATOM     27  C   UNL     1       6.268   3.481  12.446  0.00  0.00    +0.000 A 
ATOM     28 CL   UNL     1       5.405   2.231  11.635  0.00  0.00    +0.000 Cl
ATOM     29  C   UNL     1       6.018   3.734  13.796  0.00  0.00    +0.000 A 
ENDBRANCH  20  23
ENDBRANCH  16  22
ENDBRANCH   1  16
TORSDOF 8
ENDMDL
MODEL 2
REMARK VINA RESULT:      -7.9      1.243      2.249
REMARK  Name = 
REMARK  9 active torsions:
REMARK  status: ('A' for Active; 'I' for Inactive)
REMARK    1  A    between atoms: C_1  and  C_2
REMARK    2  A    between atoms: C_4  and  C_5
REMARK    3  A    between atoms: C_13  and  C_14
REMARK    4  A    between atoms: C_14  and  O_15
REMARK    5  A    between atoms: O_15  and  C_16
REMARK    6  A    between atoms: C_19  and  S_20
REMARK    7  A    between atoms: S_20  and  C_23
REMARK    8  A    between atoms: C_23  and  C_24
REMARK    9  A    between atoms: C_24  and  O_26
REMARK                            x       y       z     vdW  Elec       q    Type
REMARK                         _______ _______ _______ _____ _____    ______ ____
ROOT
ATOM      1  O   UNL     1       3.269   5.775  18.564  0.00  0.00    +0.000 OA
ENDROOT
BRANCH   1   2
ATOM      2  C   UNL     1       2.573   6.915  18.859  0.00  0.00    +0.000 A 
ATOM      3  C   UNL     1       2.122   6.991  20.180  0.00  0.00    +0.000 A 
ATOM      4  C   UNL     1       1.427   8.112  20.634  0.00  0.00    +0.000 A 
ATOM      5  C   UNL     1       1.213   9.183  19.765  0.00  0.00    +0.000 A 
ATOM      6  C   UNL     1       1.658   9.124  18.441  0.00  0.00    +0.000 A 
ATOM      7  C   UNL     1       2.338   7.984  17.990  0.00  0.00    +0.000 A 
BRANCH   5   8
ATOM      8  S   UNL     1       0.355  10.613  20.367  0.00  0.00    +0.000 S 
ATOM      9  O   UNL     1       1.295  11.453  21.091  0.00  0.00    +0.000 OA
ATOM     10  O   UNL     1      -0.398  11.151  19.251  0.00  0.00    +0.000 OA
BRANCH   8  11
ATOM     11  C   UNL     1      -0.791  10.025  21.557  0.00  0.00    +0.000 C 
BRANCH  11  12
ATOM     12  C   UNL     1      -0.407  10.487  22.918  0.00  0.00    +0.000 C 
ATOM     13  O   UNL     1       0.126   9.750  23.737  0.00  0.00    +0.000 OA
BRANCH  12  14
ATOM     14  O   UNL     1      -0.751  11.756  23.225  0.00  0.00    +0.000 OA
ATOM     15  H   UNL     1      -0.657  12.012  24.173  0.00  0.00    +0.000 HD
ENDBRANCH  12  14
ENDBRANCH  11  12
ENDBRANCH   8  11
ENDBRANCH   5   8
ENDBRANCH   1   2
BRANCH   1  16
ATOM     16  C   UNL     1       4.625   5.714  19.005  0.00  0.00    +0.000 C 
BRANCH  16  22
ATOM     17  C   UNL     1       7.706   6.641  18.498  0.00  0.00    +0.000 C 
ATOM     18  C   UNL     1       6.787   5.960  17.548  0.00  0.00    +0.000 A 
ATOM     19  N   UNL     1       7.270   5.654  16.285  0.00  0.00    +0.000 NA
ATOM     20  C   UNL     1       6.331   5.106  15.540  0.00  0.00    +0.000 A 
ATOM     21  S   UNL     1       4.834   4.864  16.354  0.00  0.00    +0.000 S 
ATOM     22  C   UNL     1       5.471   5.585  17.775  0.00  0.00    +0.000 A 
BRANCH  20  23
ATOM     23  C   UNL     1       6.530   4.687  14.142  0.00  0.00    +0.000 A 
ATOM     24  C   UNL     1       7.684   5.014  13.408  0.00  0.00    +0.000 A 
ATOM     25  C   UNL     1       7.848   4.572  12.092  0.00  0.00    +0.000 A 
ATOM     26  C   UNL     1       6.862   3.796  11.490  0.00  0.00    +0.000 A 
ATOM     27  C   UNL     1       5.716   3.461  12.205  0.00  0.00    +0.000 A 
ATOM     28 CL   UNL     1       4.497   2.500  11.460  0.00  0.00    +0.000 Cl
ATOM     29  C   UNL     1       5.549   3.897  13.521  0.00  0.00    +0.000 A 
ENDBRANCH  20  23
ENDBRANCH  16  22
ENDBRANCH   1  16
TORSDOF 8
ENDMDL
MODEL 3
REMARK VINA RESULT:      -7.7      1.164      1.868
REMARK  Name = 
REMARK  9 active torsions:
REMARK  status: ('A' for Active; 'I' for Inactive)
REMARK    1  A    between atoms: C_1  and  C_2
REMARK    2  A    between atoms: C_4  and  C_5
REMARK    3  A    between atoms: C_13  and  C_14
REMARK    4  A    between atoms: C_14  and  O_15
REMARK    5  A    between atoms: O_15  and  C_16
REMARK    6  A    between atoms: C_19  and  S_20
REMARK    7  A    between atoms: S_20  and  C_23
REMARK    8  A    between atoms: C_23  and  C_24
REMARK    9  A    between atoms: C_24  and  O_26
REMARK                            x       y       z     vdW  Elec       q    Type
REMARK                         _______ _______ _______ _____ _____    ______ ____
ROOT
ATOM      1  O   UNL     1       3.912   4.930  19.002  0.00  0.00    +0.000 OA
ENDROOT
BRANCH   1   2
ATOM      2  C   UNL     1       3.255   6.122  18.861  0.00  0.00    +0.000 A 
ATOM      3  C   UNL     1       2.512   6.509  19.980  0.00  0.00    +0.000 A 
ATOM      4  C   UNL     1       1.819   7.719  19.992  0.00  0.00    +0.000 A 
ATOM      5  C   UNL     1       1.899   8.565  18.886  0.00  0.00    +0.000 A 
ATOM      6  C   UNL     1       2.638   8.195  17.759  0.00  0.00    +0.000 A 
ATOM      7  C   UNL     1       3.316   6.967  17.750  0.00  0.00    +0.000 A 
BRANCH   5   8
ATOM      8  S   UNL     1       1.035  10.113  18.931  0.00  0.00    +0.000 S 
ATOM      9  O   UNL     1       1.958  11.176  18.563  0.00  0.00    +0.000 OA
ATOM     10  O   UNL     1      -0.199   9.927  18.192  0.00  0.00    +0.000 OA
BRANCH   8  11
ATOM     11  C   UNL     1       0.620  10.388  20.612  0.00  0.00    +0.000 C 
BRANCH  11  12
ATOM     12  C   UNL     1       0.209  11.802  20.820  0.00  0.00    +0.000 C 
ATOM     13  O   UNL     1       0.486  12.425  21.837  0.00  0.00    +0.000 OA
BRANCH  12  14
ATOM     14  O   UNL     1      -0.557  12.339  19.846  0.00  0.00    +0.000 OA
ATOM     15  H   UNL     1      -0.985  13.202  20.059  0.00  0.00    +0.000 HD
ENDBRANCH  12  14
ENDBRANCH  11  12
ENDBRANCH   8  11
ENDBRANCH   5   8
ENDBRANCH   1   2
BRANCH   1  16
ATOM     16  C   UNL     1       5.310   4.992  19.278  0.00  0.00    +0.000 C 
BRANCH  16  22
ATOM     17  C   UNL     1       7.855   6.877  18.516  0.00  0.00    +0.000 C 
ATOM     18  C   UNL     1       7.093   5.964  17.624  0.00  0.00    +0.000 A 
ATOM     19  N   UNL     1       7.493   5.867  16.300  0.00  0.00    +0.000 NA
ATOM     20  C   UNL     1       6.694   5.067  15.623  0.00  0.00    +0.000 A 
ATOM     21  S   UNL     1       5.460   4.332  16.570  0.00  0.00    +0.000 S 
ATOM     22  C   UNL     1       6.001   5.179  17.962  0.00  0.00    +0.000 A 
BRANCH  20  23
ATOM     23  C   UNL     1       6.848   4.775  14.187  0.00  0.00    +0.000 A 
ATOM     24  C   UNL     1       7.752   5.468  13.363  0.00  0.00    +0.000 A 
ATOM     25  C   UNL     1       7.888   5.141  12.011  0.00  0.00    +0.000 A 
ATOM     26  C   UNL     1       7.124   4.115  11.462  0.00  0.00    +0.000 A 
ATOM     27  C   UNL     1       6.227   3.418  12.266  0.00  0.00    +0.000 A 
ATOM     28 CL   UNL     1       5.283   2.149  11.586  0.00  0.00    +0.000 Cl
ATOM     29  C   UNL     1       6.090   3.738  13.618  0.00  0.00    +0.000 A 
ENDBRANCH  20  23
ENDBRANCH  16  22
ENDBRANCH   1  16
TORSDOF 8
ENDMDL
MODEL 4
REMARK VINA RESULT:      -7.7      5.263     11.085
REMARK  Name = 
REMARK  9 active torsions:
REMARK  status: ('A' for Active; 'I' for Inactive)
REMARK    1  A    between atoms: C_1  and  C_2
REMARK    2  A    between atoms: C_4  and  C_5
REMARK    3  A    between atoms: C_13  and  C_14
REMARK    4  A    between atoms: C_14  and  O_15
REMARK    5  A    between atoms: O_15  and  C_16
REMARK    6  A    between atoms: C_19  and  S_20
REMARK    7  A    between atoms: S_20  and  C_23
REMARK    8  A    between atoms: C_23  and  C_24
REMARK    9  A    between atoms: C_24  and  O_26
REMARK                            x       y       z     vdW  Elec       q    Type
REMARK                         _______ _______ _______ _____ _____    ______ ____
ROOT
ATOM      1  O   UNL     1       1.317   8.568  19.613  0.00  0.00    +0.000 OA
ENDROOT
BRANCH   1   2
ATOM      2  C   UNL     1       2.223   7.644  19.170  0.00  0.00    +0.000 A 
ATOM      3  C   UNL     1       2.381   6.541  20.012  0.00  0.00    +0.000 A 
ATOM      4  C   UNL     1       3.246   5.500  19.672  0.00  0.00    +0.000 A 
ATOM      5  C   UNL     1       3.933   5.551  18.458  0.00  0.00    +0.000 A 
ATOM      6  C   UNL     1       3.786   6.647  17.603  0.00  0.00    +0.000 A 
ATOM      7  C   UNL     1       2.929   7.697  17.965  0.00  0.00    +0.000 A 
BRANCH   5   8
ATOM      8  S   UNL     1       5.005   4.206  18.027  0.00  0.00    +0.000 S 
ATOM      9  O   UNL     1       6.102   4.157  18.980  0.00  0.00    +0.000 OA
ATOM     10  O   UNL     1       4.161   3.045  17.823  0.00  0.00    +0.000 OA
BRANCH   8  11
ATOM     11  C   UNL     1       5.719   4.632  16.483  0.00  0.00    +0.000 C 
BRANCH  11  12
ATOM     12  C   UNL     1       7.115   5.109  16.672  0.00  0.00    +0.000 C 
ATOM     13  O   UNL     1       7.435   6.281  16.517  0.00  0.00    +0.000 OA
BRANCH  12  14
ATOM     14  O   UNL     1       8.028   4.156  16.954  0.00  0.00    +0.000 OA
ATOM     15  H   UNL     1       8.949   4.472  17.112  0.00  0.00    +0.000 HD
ENDBRANCH  12  14
ENDBRANCH  11  12
ENDBRANCH   8  11
ENDBRANCH   5   8
ENDBRANCH   1   2
BRANCH   1  16
ATOM     16  C   UNL     1       1.253   9.803  18.900  0.00  0.00    +0.000 C 
BRANCH  16  22
ATOM     17  C   UNL     1      -1.651  10.722  17.748  0.00  0.00    +0.000 C 
ATOM     18  C   UNL     1      -1.064  11.008  19.083  0.00  0.00    +0.000 A 
ATOM     19  N   UNL     1      -1.823  11.744  19.981  0.00  0.00    +0.000 NA
ATOM     20  C   UNL     1      -1.154  11.964  21.095  0.00  0.00    +0.000 A 
ATOM     21  S   UNL     1       0.401  11.229  21.145  0.00  0.00    +0.000 S 
ATOM     22  C   UNL     1       0.182  10.622  19.553  0.00  0.00    +0.000 A 
BRANCH  20  23
ATOM     23  C   UNL     1      -1.685  12.732  22.234  0.00  0.00    +0.000 A 
ATOM     24  C   UNL     1      -0.953  13.751  22.871  0.00  0.00    +0.000 A 
ATOM     25  C   UNL     1      -1.504  14.476  23.931  0.00  0.00    +0.000 A 
ATOM     26  C   UNL     1      -2.795  14.196  24.371  0.00  0.00    +0.000 A 
ATOM     27  C   UNL     1      -3.533  13.193  23.748  0.00  0.00    +0.000 A 
ATOM     28 CL   UNL     1      -5.129  12.847  24.292  0.00  0.00    +0.000 Cl
ATOM     29  C   UNL     1      -2.988  12.468  22.687  0.00  0.00    +0.000 A 
ENDBRANCH  20  23
ENDBRANCH  16  22
ENDBRANCH   1  16
TORSDOF 8
ENDMDL
MODEL 5
REMARK VINA RESULT:      -7.7      1.594      1.946
REMARK  Name = 
REMARK  9 active torsions:
REMARK  status: ('A' for Active; 'I' for Inactive)
REMARK    1  A    between atoms: C_1  and  C_2
REMARK    2  A    between atoms: C_4  and  C_5
REMARK    3  A    between atoms: C_13  and  C_14
REMARK    4  A    between atoms: C_14  and  O_15
REMARK    5  A    between atoms: O_15  and  C_16
REMARK    6  A    between atoms: C_19  and  S_20
REMARK    7  A    between atoms: S_20  and  C_23
REMARK    8  A    between atoms: C_23  and  C_24
REMARK    9  A    between atoms: C_24  and  O_26
REMARK                            x       y       z     vdW  Elec       q    Type
REMARK                         _______ _______ _______ _____ _____    ______ ____
ROOT
ATOM      1  O   UNL     1       2.577   5.979  19.362  0.00  0.00    +0.000 OA
ENDROOT
BRANCH   1   2
ATOM      2  C   UNL     1       2.041   7.197  19.677  0.00  0.00    +0.000 A 
ATOM      3  C   UNL     1       2.110   8.142  18.649  0.00  0.00    +0.000 A 
ATOM      4  C   UNL     1       1.571   9.418  18.815  0.00  0.00    +0.000 A 
ATOM      5  C   UNL     1       0.926   9.739  20.010  0.00  0.00    +0.000 A 
ATOM      6  C   UNL     1       0.847   8.806  21.048  0.00  0.00    +0.000 A 
ATOM      7  C   UNL     1       1.409   7.532  20.878  0.00  0.00    +0.000 A 
BRANCH   5   8
ATOM      8  S   UNL     1       0.220  11.355  20.193  0.00  0.00    +0.000 S 
ATOM      9  O   UNL     1      -1.222  11.258  20.034  0.00  0.00    +0.000 OA
ATOM     10  O   UNL     1       0.786  11.926  21.400  0.00  0.00    +0.000 OA
BRANCH   8  11
ATOM     11  C   UNL     1       0.800  12.293  18.829  0.00  0.00    +0.000 C 
BRANCH  11  12
ATOM     12  C   UNL     1      -0.231  13.278  18.404  0.00  0.00    +0.000 C 
ATOM     13  O   UNL     1      -0.354  14.373  18.937  0.00  0.00    +0.000 OA
BRANCH  12  14
ATOM     14  O   UNL     1      -1.079  12.860  17.439  0.00  0.00    +0.000 OA
ATOM     15  H   UNL     1      -1.124  13.423  16.631  0.00  0.00    +0.000 HD
ENDBRANCH  12  14
ENDBRANCH  11  12
ENDBRANCH   8  11
ENDBRANCH   5   8
ENDBRANCH   1   2
BRANCH   1  16
ATOM     16  C   UNL     1       3.999   5.868  19.407  0.00  0.00    +0.000 C 
BRANCH  16  22
ATOM     17  C   UNL     1       3.617   2.714  18.693  0.00  0.00    +0.000 C 
ATOM     18  C   UNL     1       4.242   3.772  17.857  0.00  0.00    +0.000 A 
ATOM     19  N   UNL     1       4.722   3.412  16.607  0.00  0.00    +0.000 NA
ATOM     20  C   UNL     1       5.294   4.437  16.008  0.00  0.00    +0.000 A 
ATOM     21  S   UNL     1       5.217   5.909  16.895  0.00  0.00    +0.000 S 
ATOM     22  C   UNL     1       4.410   5.109  18.183  0.00  0.00    +0.000 A 
BRANCH  20  23
ATOM     23  C   UNL     1       5.917   4.367  14.674  0.00  0.00    +0.000 A 
ATOM     24  C   UNL     1       7.068   5.099  14.334  0.00  0.00    +0.000 A 
ATOM     25  C   UNL     1       7.644   4.983  13.066  0.00  0.00    +0.000 A 
ATOM     26  C   UNL     1       7.079   4.133  12.118  0.00  0.00    +0.000 A 
ATOM     27  C   UNL     1       5.941   3.400  12.442  0.00  0.00    +0.000 A 
ATOM     28 CL   UNL     1       5.243   2.349  11.271  0.00  0.00    +0.000 Cl
ATOM     29  C   UNL     1       5.364   3.509  13.709  0.00  0.00    +0.000 A 
ENDBRANCH  20  23
ENDBRANCH  16  22
ENDBRANCH   1  16
TORSDOF 8
ENDMDL
MODEL 6
REMARK VINA RESULT:      -7.4      3.541      6.212
REMARK  Name = 
REMARK  9 active torsions:
REMARK  status: ('A' for Active; 'I' for Inactive)
REMARK    1  A    between atoms: C_1  and  C_2
REMARK    2  A    between atoms: C_4  and  C_5
REMARK    3  A    between atoms: C_13  and  C_14
REMARK    4  A    between atoms: C_14  and  O_15
REMARK    5  A    between atoms: O_15  and  C_16
REMARK    6  A    between atoms: C_19  and  S_20
REMARK    7  A    between atoms: S_20  and  C_23
REMARK    8  A    between atoms: C_23  and  C_24
REMARK    9  A    between atoms: C_24  and  O_26
REMARK                            x       y       z     vdW  Elec       q    Type
REMARK                         _______ _______ _______ _____ _____    ______ ____
ROOT
ATOM      1  O   UNL     1      -0.347  10.514  18.047  0.00  0.00    +0.000 OA
ENDROOT
BRANCH   1   2
ATOM      2  C   UNL     1      -1.666  10.807  18.257  0.00  0.00    +0.000 A 
ATOM      3  C   UNL     1      -1.895  11.755  19.258  0.00  0.00    +0.000 A 
ATOM      4  C   UNL     1      -3.190  12.177  19.558  0.00  0.00    +0.000 A 
ATOM      5  C   UNL     1      -4.263  11.671  18.824  0.00  0.00    +0.000 A 
ATOM      6  C   UNL     1      -4.052  10.723  17.819  0.00  0.00    +0.000 A 
ATOM      7  C   UNL     1      -2.747  10.290  17.538  0.00  0.00    +0.000 A 
BRANCH   5   8
ATOM      8  S   UNL     1      -5.899  12.241  19.199  0.00  0.00    +0.000 S 
ATOM      9  O   UNL     1      -6.038  12.354  20.642  0.00  0.00    +0.000 OA
ATOM     10  O   UNL     1      -6.148  13.390  18.348  0.00  0.00    +0.000 OA
BRANCH   8  11
ATOM     11  C   UNL     1      -6.985  10.958  18.702  0.00  0.00    +0.000 C 
BRANCH  11  12
ATOM     12  C   UNL     1      -7.024   9.885  19.733  0.00  0.00    +0.000 C 
ATOM     13  O   UNL     1      -6.618   8.751  19.516  0.00  0.00    +0.000 OA
BRANCH  12  14
ATOM     14  O   UNL     1      -7.606  10.219  20.904  0.00  0.00    +0.000 OA
ATOM     15  H   UNL     1      -7.697  11.184  21.083  0.00  0.00    +0.000 HD
ENDBRANCH  12  14
ENDBRANCH  11  12
ENDBRANCH   8  11
ENDBRANCH   5   8
ENDBRANCH   1   2
BRANCH   1  16
ATOM     16  C   UNL     1       0.517  10.572  19.181  0.00  0.00    +0.000 C 
BRANCH  16  22
ATOM     17  C   UNL     1       1.087   8.608  21.716  0.00  0.00    +0.000 C 
ATOM     18  C   UNL     1       1.486   8.411  20.298  0.00  0.00    +0.000 A 
ATOM     19  N   UNL     1       2.177   7.253  19.974  0.00  0.00    +0.000 NA
ATOM     20  C   UNL     1       2.510   7.244  18.699  0.00  0.00    +0.000 A 
ATOM     21  S   UNL     1       1.940   8.601  17.808  0.00  0.00    +0.000 S 
ATOM     22  C   UNL     1       1.248   9.265  19.232  0.00  0.00    +0.000 A 
BRANCH  20  23
ATOM     23  C   UNL     1       3.267   6.156  18.055  0.00  0.00    +0.000 A 
ATOM     24  C   UNL     1       2.730   4.872  17.856  0.00  0.00    +0.000 A 
ATOM     25  C   UNL     1       3.472   3.875  17.214  0.00  0.00    +0.000 A 
ATOM     26  C   UNL     1       4.760   4.146  16.761  0.00  0.00    +0.000 A 
ATOM     27  C   UNL     1       5.303   5.415  16.949  0.00  0.00    +0.000 A 
ATOM     28 CL   UNL     1       6.895   5.750  16.388  0.00  0.00    +0.000 Cl
ATOM     29  C   UNL     1       4.565   6.415  17.585  0.00  0.00    +0.000 A 
ENDBRANCH  20  23
ENDBRANCH  16  22
ENDBRANCH   1  16
TORSDOF 8
ENDMDL
MODEL 7
REMARK VINA RESULT:      -7.4      5.387     10.502
REMARK  Name = 
REMARK  9 active torsions:
REMARK  status: ('A' for Active; 'I' for Inactive)
REMARK    1  A    between atoms: C_1  and  C_2
REMARK    2  A    between atoms: C_4  and  C_5
REMARK    3  A    between atoms: C_13  and  C_14
REMARK    4  A    between atoms: C_14  and  O_15
REMARK    5  A    between atoms: O_15  and  C_16
REMARK    6  A    between atoms: C_19  and  S_20
REMARK    7  A    between atoms: S_20  and  C_23
REMARK    8  A    between atoms: C_23  and  C_24
REMARK    9  A    between atoms: C_24  and  O_26
REMARK                            x       y       z     vdW  Elec       q    Type
REMARK                         _______ _______ _______ _____ _____    ______ ____
ROOT
ATOM      1  O   UNL     1       1.526   8.870  19.334  0.00  0.00    +0.000 OA
ENDROOT
BRANCH   1   2
ATOM      2  C   UNL     1       2.202   7.696  19.150  0.00  0.00    +0.000 A 
ATOM      3  C   UNL     1       2.967   7.646  17.981  0.00  0.00    +0.000 A 
ATOM      4  C   UNL     1       3.738   6.523  17.680  0.00  0.00    +0.000 A 
ATOM      5  C   UNL     1       3.771   5.455  18.577  0.00  0.00    +0.000 A 
ATOM      6  C   UNL     1       3.014   5.489  19.751  0.00  0.00    +0.000 A 
ATOM      7  C   UNL     1       2.226   6.614  20.035  0.00  0.00    +0.000 A 
BRANCH   5   8
ATOM      8  S   UNL     1       4.781   4.049  18.193  0.00  0.00    +0.000 S 
ATOM      9  O   UNL     1       5.748   4.430  17.176  0.00  0.00    +0.000 OA
ATOM     10  O   UNL     1       5.228   3.496  19.457  0.00  0.00    +0.000 OA
BRANCH   8  11
ATOM     11  C   UNL     1       3.715   2.878  17.440  0.00  0.00    +0.000 C 
BRANCH  11  12
ATOM     12  C   UNL     1       3.282   1.859  18.434  0.00  0.00    +0.000 C 
ATOM     13  O   UNL     1       2.340   2.042  19.195  0.00  0.00    +0.000 OA
BRANCH  12  14
ATOM     14  O   UNL     1       4.040   0.744  18.499  0.00  0.00    +0.000 OA
ATOM     15  H   UNL     1       3.551  -0.106  18.605  0.00  0.00    +0.000 HD
ENDBRANCH  12  14
ENDBRANCH  11  12
ENDBRANCH   8  11
ENDBRANCH   5   8
ENDBRANCH   1   2
BRANCH   1  16
ATOM     16  C   UNL     1       1.189   9.612  18.162  0.00  0.00    +0.000 C 
BRANCH  16  22
ATOM     17  C   UNL     1       1.065  12.226  20.100  0.00  0.00    +0.000 C 
ATOM     18  C   UNL     1      -0.045  11.603  19.332  0.00  0.00    +0.000 A 
ATOM     19  N   UNL     1      -1.300  12.186  19.416  0.00  0.00    +0.000 NA
ATOM     20  C   UNL     1      -2.189  11.496  18.731  0.00  0.00    +0.000 A 
ATOM     21  S   UNL     1      -1.538  10.145  17.887  0.00  0.00    +0.000 S 
ATOM     22  C   UNL     1       0.022  10.479  18.522  0.00  0.00    +0.000 A 
BRANCH  20  23
ATOM     23  C   UNL     1      -3.615  11.852  18.641  0.00  0.00    +0.000 A 
ATOM     24  C   UNL     1      -4.379  11.641  17.479  0.00  0.00    +0.000 A 
ATOM     25  C   UNL     1      -5.738  11.966  17.444  0.00  0.00    +0.000 A 
ATOM     26  C   UNL     1      -6.355  12.507  18.569  0.00  0.00    +0.000 A 
ATOM     27  C   UNL     1      -5.612  12.718  19.727  0.00  0.00    +0.000 A 
ATOM     28 CL   UNL     1      -6.375  13.386  21.118  0.00  0.00    +0.000 Cl
ATOM     29  C   UNL     1      -4.255  12.391  19.769  0.00  0.00    +0.000 A 
ENDBRANCH  20  23
ENDBRANCH  16  22
ENDBRANCH   1  16
TORSDOF 8
ENDMDL
MODEL 8
REMARK VINA RESULT:      -7.3      5.382     10.860
REMARK  Name = 
REMARK  9 active torsions:
REMARK  status: ('A' for Active; 'I' for Inactive)
REMARK    1  A    between atoms: C_1  and  C_2
REMARK    2  A    between atoms: C_4  and  C_5
REMARK    3  A    between atoms: C_13  and  C_14
REMARK    4  A    between atoms: C_14  and  O_15
REMARK    5  A    between atoms: O_15  and  C_16
REMARK    6  A    between atoms: C_19  and  S_20
REMARK    7  A    between atoms: S_20  and  C_23
REMARK    8  A    between atoms: C_23  and  C_24
REMARK    9  A    between atoms: C_24  and  O_26
REMARK                            x       y       z     vdW  Elec       q    Type
REMARK                         _______ _______ _______ _____ _____    ______ ____
ROOT
ATOM      1  O   UNL     1       1.567   8.938  19.280  0.00  0.00    +0.000 OA
ENDROOT
BRANCH   1   2
ATOM      2  C   UNL     1       2.220   7.749  19.108  0.00  0.00    +0.000 A 
ATOM      3  C   UNL     1       3.017   7.688  17.962  0.00  0.00    +0.000 A 
ATOM      4  C   UNL     1       3.769   6.549  17.675  0.00  0.00    +0.000 A 
ATOM      5  C   UNL     1       3.749   5.474  18.564  0.00  0.00    +0.000 A 
ATOM      6  C   UNL     1       2.958   5.518  19.716  0.00  0.00    +0.000 A 
ATOM      7  C   UNL     1       2.191   6.661  19.984  0.00  0.00    +0.000 A 
BRANCH   5   8
ATOM      8  S   UNL     1       4.735   4.046  18.200  0.00  0.00    +0.000 S 
ATOM      9  O   UNL     1       5.700   4.393  17.169  0.00  0.00    +0.000 OA
ATOM     10  O   UNL     1       5.184   3.510  19.471  0.00  0.00    +0.000 OA
BRANCH   8  11
ATOM     11  C   UNL     1       3.647   2.877  17.477  0.00  0.00    +0.000 C 
BRANCH  11  12
ATOM     12  C   UNL     1       3.342   1.787  18.442  0.00  0.00    +0.000 C 
ATOM     13  O   UNL     1       2.359   1.810  19.171  0.00  0.00    +0.000 OA
BRANCH  12  14
ATOM     14  O   UNL     1       4.261   0.801  18.522  0.00  0.00    +0.000 OA
ATOM     15  H   UNL     1       4.249   0.266  19.350  0.00  0.00    +0.000 HD
ENDBRANCH  12  14
ENDBRANCH  11  12
ENDBRANCH   8  11
ENDBRANCH   5   8
ENDBRANCH   1   2
BRANCH   1  16
ATOM     16  C   UNL     1       0.948   9.508  18.127  0.00  0.00    +0.000 C 
BRANCH  16  22
ATOM     17  C   UNL     1      -1.983   9.952  16.777  0.00  0.00    +0.000 C 
ATOM     18  C   UNL     1      -1.476  10.498  18.064  0.00  0.00    +0.000 A 
ATOM     19  N   UNL     1      -2.332  11.288  18.816  0.00  0.00    +0.000 NA
ATOM     20  C   UNL     1      -1.728  11.743  19.896  0.00  0.00    +0.000 A 
ATOM     21  S   UNL     1      -0.115  11.177  20.097  0.00  0.00    +0.000 S 
ATOM     22  C   UNL     1      -0.218  10.311  18.617  0.00  0.00    +0.000 A 
BRANCH  20  23
ATOM     23  C   UNL     1      -2.370  12.624  20.886  0.00  0.00    +0.000 A 
ATOM     24  C   UNL     1      -3.737  12.948  20.843  0.00  0.00    +0.000 A 
ATOM     25  C   UNL     1      -4.314  13.766  21.819  0.00  0.00    +0.000 A 
ATOM     26  C   UNL     1      -3.533  14.273  22.854  0.00  0.00    +0.000 A 
ATOM     27  C   UNL     1      -2.178  13.958  22.912  0.00  0.00    +0.000 A 
ATOM     28 CL   UNL     1      -1.213  14.585  24.192  0.00  0.00    +0.000 Cl
ATOM     29  C   UNL     1      -1.598  13.139  21.941  0.00  0.00    +0.000 A 
ENDBRANCH  20  23
ENDBRANCH  16  22
ENDBRANCH   1  16
TORSDOF 8
ENDMDL
MODEL 9
REMARK VINA RESULT:      -7.3      5.841     10.542
REMARK  Name = 
REMARK  9 active torsions:
REMARK  status: ('A' for Active; 'I' for Inactive)
REMARK    1  A    between atoms: C_1  and  C_2
REMARK    2  A    between atoms: C_4  and  C_5
REMARK    3  A    between atoms: C_13  and  C_14
REMARK    4  A    between atoms: C_14  and  O_15
REMARK    5  A    between atoms: O_15  and  C_16
REMARK    6  A    between atoms: C_19  and  S_20
REMARK    7  A    between atoms: S_20  and  C_23
REMARK    8  A    between atoms: C_23  and  C_24
REMARK    9  A    between atoms: C_24  and  O_26
REMARK                            x       y       z     vdW  Elec       q    Type
REMARK                         _______ _______ _______ _____ _____    ______ ____
ROOT
ATOM      1  O   UNL     1       2.281   8.756  18.798  0.00  0.00    +0.000 OA
ENDROOT
BRANCH   1   2
ATOM      2  C   UNL     1       2.244   7.402  18.985  0.00  0.00    +0.000 A 
ATOM      3  C   UNL     1       1.952   7.007  20.294  0.00  0.00    +0.000 A 
ATOM      4  C   UNL     1       1.846   5.656  20.625  0.00  0.00    +0.000 A 
ATOM      5  C   UNL     1       2.000   4.693  19.628  0.00  0.00    +0.000 A 
ATOM      6  C   UNL     1       2.291   5.070  18.314  0.00  0.00    +0.000 A 
ATOM      7  C   UNL     1       2.414   6.430  17.996  0.00  0.00    +0.000 A 
BRANCH   5   8
ATOM      8  S   UNL     1       1.832   2.981  20.061  0.00  0.00    +0.000 S 
ATOM      9  O   UNL     1       0.854   2.862  21.131  0.00  0.00    +0.000 OA
ATOM     10  O   UNL     1       1.652   2.251  18.821  0.00  0.00    +0.000 OA
BRANCH   8  11
ATOM     11  C   UNL     1       3.371   2.503  20.750  0.00  0.00    +0.000 C 
BRANCH  11  12
ATOM     12  C   UNL     1       4.411   2.425  19.689  0.00  0.00    +0.000 C 
ATOM     13  O   UNL     1       5.219   3.323  19.494  0.00  0.00    +0.000 OA
BRANCH  12  14
ATOM     14  O   UNL     1       4.362   1.331  18.899  0.00  0.00    +0.000 OA
ATOM     15  H   UNL     1       5.055   0.649  19.062  0.00  0.00    +0.000 HD
ENDBRANCH  12  14
ENDBRANCH  11  12
ENDBRANCH   8  11
ENDBRANCH   5   8
ENDBRANCH   1   2
BRANCH   1  16
ATOM     16  C   UNL     1       1.361   9.304  17.855  0.00  0.00    +0.000 C 
BRANCH  16  22
ATOM     17  C   UNL     1      -1.773   9.950  17.247  0.00  0.00    +0.000 C 
ATOM     18  C   UNL     1      -0.952  10.404  18.400  0.00  0.00    +0.000 A 
ATOM     19  N   UNL     1      -1.565  11.191  19.362  0.00  0.00    +0.000 NA
ATOM     20  C   UNL     1      -0.704  11.561  20.289  0.00  0.00    +0.000 A 
ATOM     21  S   UNL     1       0.877  10.914  20.084  0.00  0.00    +0.000 S 
ATOM     22  C   UNL     1       0.387  10.132  18.636  0.00  0.00    +0.000 A 
BRANCH  20  23
ATOM     23  C   UNL     1      -1.049  12.418  21.437  0.00  0.00    +0.000 A 
ATOM     24  C   UNL     1      -2.065  12.090  22.351  0.00  0.00    +0.000 A 
ATOM     25  C   UNL     1      -2.342  12.917  23.444  0.00  0.00    +0.000 A 
ATOM     26  C   UNL     1      -1.607  14.083  23.640  0.00  0.00    +0.000 A 
ATOM     27  C   UNL     1      -0.595  14.418  22.745  0.00  0.00    +0.000 A 
ATOM     28 CL   UNL     1       0.314  15.859  22.989  0.00  0.00    +0.000 Cl
ATOM     29  C   UNL     1      -0.312  13.594  21.654  0.00  0.00    +0.000 A 
ENDBRANCH  20  23
ENDBRANCH  16  22
ENDBRANCH   1  16
TORSDOF 8
ENDMDL
