MODEL 1
REMARK VINA RESULT:      -8.0      0.000      0.000
REMARK  Name = 
REMARK  10 active torsions:
REMARK  status: ('A' for Active; 'I' for Inactive)
REMARK    1  A    between atoms: N_1  and  C_2
REMARK    2  A    between atoms: C_2  and  C_3
REMARK    3  A    between atoms: C_2  and  C_10
REMARK    4  A    between atoms: C_3  and  C_4
REMARK    5  A    between atoms: N_12  and  C_13
REMARK    6  A    between atoms: N_18  and  C_19
REMARK    7  A    between atoms: C_19  and  C_20
REMARK    8  A    between atoms: N_22  and  C_23
REMARK    9  A    between atoms: C_23  and  C_24
REMARK   10  A    between atoms: C_24  and  O_26
REMARK                            x       y       z     vdW  Elec       q    Type
REMARK                         _______ _______ _______ _____ _____    ______ ____
ROOT
ATOM      1  C   UNL     1       4.625   3.950  17.547  0.00  0.00    +0.000 C 
ATOM      2  C   UNL     1       4.561   4.139  16.035  0.00  0.00    +0.000 C 
ATOM      3  C   UNL     1       5.915   3.823  15.431  0.00  0.00    +0.000 C 
ATOM      4  C   UNL     1       6.918   4.822  15.951  0.00  0.00    +0.000 C 
ATOM      5  O   UNL     1       7.697   5.395  15.194  0.00  0.00    +0.000 OA
ATOM      6  N   UNL     1       6.916   4.987  17.331  0.00  0.00    +0.000 N 
ATOM      7  C   UNL     1       5.944   4.465  18.189  0.00  0.00    +0.000 C 
ATOM      8  O   UNL     1       6.135   4.367  19.404  0.00  0.00    +0.000 OA
ENDROOT
BRANCH   1  11
ATOM      9  C   UNL     1       2.714   3.715  19.210  0.00  0.00    +0.000 C 
ATOM     10  O   UNL     1       3.055   2.607  19.613  0.00  0.00    +0.000 OA
ATOM     11  N   UNL     1       3.404   4.401  18.225  0.00  0.00    +0.000 N 
ATOM     12  H   UNL     1       2.941   5.252  17.909  0.00  0.00    +0.000 HD
BRANCH   9  13
ATOM     13  C   UNL     1       1.534   4.544  19.820  0.00  0.00    +0.000 C 
BRANCH  13  14
ATOM     14  N   UNL     1       0.608   3.618  20.530  0.00  0.00    +0.000 NA
ATOM     15  H   UNL     1       1.180   2.895  20.977  0.00  0.00    +0.000 HD
ATOM     16  H   UNL     1       0.069   3.110  19.825  0.00  0.00    +0.000 HD
ENDBRANCH  13  14
BRANCH  13  17
ATOM     17  C   UNL     1       2.014   5.705  20.724  0.00  0.00    +0.000 C 
BRANCH  17  18
ATOM     18  C   UNL     1       1.720   7.097  20.182  0.00  0.00    +0.000 A 
ATOM     19  C   UNL     1       1.013   8.033  20.950  0.00  0.00    +0.000 A 
ATOM     20  C   UNL     1       0.756   9.316  20.451  0.00  0.00    +0.000 A 
ATOM     21  C   UNL     1       1.203   9.680  19.183  0.00  0.00    +0.000 A 
ATOM     22  C   UNL     1       1.919   8.769  18.417  0.00  0.00    +0.000 A 
ATOM     23  C   UNL     1       2.178   7.485  18.913  0.00  0.00    +0.000 A 
ENDBRANCH  17  18
ENDBRANCH  13  17
ENDBRANCH   9  13
ENDBRANCH   1  11
BRANCH   6  24
ATOM     24  C   UNL     1       7.883   5.924  17.898  0.00  0.00    +0.000 C 
BRANCH  24  25
ATOM     25  C   UNL     1       7.693   7.442  17.772  0.00  0.00    +0.000 C 
ATOM     26  O   UNL     1       6.793   7.893  17.056  0.00  0.00    +0.000 OA
ATOM     27  N   UNL     1       8.540   8.292  18.432  0.00  0.00    +0.000 N 
ATOM     28  H   UNL     1       9.264   7.955  19.056  0.00  0.00    +0.000 HD
BRANCH  27  29
ATOM     29  C   UNL     1       8.366   9.732  18.284  0.00  0.00    +0.000 C 
BRANCH  29  30
ATOM     30  C   UNL     1       9.367  10.538  19.096  0.00  0.00    +0.000 C 
ATOM     31  O   UNL     1       9.323  10.660  20.315  0.00  0.00    +0.000 OA
BRANCH  30  32
ATOM     32  O   UNL     1      10.321  11.133  18.338  0.00  0.00    +0.000 OA
ATOM     33  H   UNL     1      11.065  11.512  18.846  0.00  0.00    +0.000 HD
ENDBRANCH  30  32
ENDBRANCH  29  30
ENDBRANCH  27  29
ENDBRANCH  24  25
ENDBRANCH   6  24
TORSDOF 10
ENDMDL
MODEL 2
REMARK VINA RESULT:      -7.5      3.130      5.268
REMARK  Name = 
REMARK  10 active torsions:
REMARK  status: ('A' for Active; 'I' for Inactive)
REMARK    1  A    between atoms: N_1  and  C_2
REMARK    2  A    between atoms: C_2  and  C_3
REMARK    3  A    between atoms: C_2  and  C_10
REMARK    4  A    between atoms: C_3  and  C_4
REMARK    5  A    between atoms: N_12  and  C_13
REMARK    6  A    between atoms: N_18  and  C_19
REMARK    7  A    between atoms: C_19  and  C_20
REMARK    8  A    between atoms: N_22  and  C_23
REMARK    9  A    between atoms: C_23  and  C_24
REMARK   10  A    between atoms: C_24  and  O_26
REMARK                            x       y       z     vdW  Elec       q    Type
REMARK                         _______ _______ _______ _____ _____    ______ ____
ROOT
ATOM      1  C   UNL     1       2.435   5.518  20.605  0.00  0.00    +0.000 C 
ATOM      2  C   UNL     1       1.143   4.710  20.554  0.00  0.00    +0.000 C 
ATOM      3  C   UNL     1       1.458   3.244  20.773  0.00  0.00    +0.000 C 
ATOM      4  C   UNL     1       2.316   2.761  19.630  0.00  0.00    +0.000 C 
ATOM      5  O   UNL     1       2.064   1.712  19.044  0.00  0.00    +0.000 OA
ATOM      6  N   UNL     1       3.418   3.561  19.349  0.00  0.00    +0.000 N 
ATOM      7  C   UNL     1       3.636   4.828  19.897  0.00  0.00    +0.000 C 
ATOM      8  O   UNL     1       4.746   5.365  19.870  0.00  0.00    +0.000 OA
ENDROOT
BRANCH   1  11
ATOM      9  C   UNL     1       2.125   7.420  18.944  0.00  0.00    +0.000 C 
ATOM     10  O   UNL     1       2.202   6.708  17.947  0.00  0.00    +0.000 OA
ATOM     11  N   UNL     1       2.239   6.924  20.231  0.00  0.00    +0.000 N 
ATOM     12  H   UNL     1       2.272   7.643  20.952  0.00  0.00    +0.000 HD
BRANCH   9  13
ATOM     13  C   UNL     1       1.781   8.947  18.904  0.00  0.00    +0.000 C 
BRANCH  13  14
ATOM     14  N   UNL     1       2.290   9.526  17.630  0.00  0.00    +0.000 NA
ATOM     15  H   UNL     1       2.998  10.226  17.873  0.00  0.00    +0.000 HD
ATOM     16  H   UNL     1       1.534  10.071  17.208  0.00  0.00    +0.000 HD
ENDBRANCH  13  14
BRANCH  13  17
ATOM     17  C   UNL     1       0.275   9.234  19.122  0.00  0.00    +0.000 C 
BRANCH  17  18
ATOM     18  C   UNL     1      -0.085   9.714  20.521  0.00  0.00    +0.000 A 
ATOM     19  C   UNL     1      -0.364  11.066  20.768  0.00  0.00    +0.000 A 
ATOM     20  C   UNL     1      -0.706  11.501  22.054  0.00  0.00    +0.000 A 
ATOM     21  C   UNL     1      -0.778  10.591  23.108  0.00  0.00    +0.000 A 
ATOM     22  C   UNL     1      -0.521   9.246  22.875  0.00  0.00    +0.000 A 
ATOM     23  C   UNL     1      -0.179   8.808  21.590  0.00  0.00    +0.000 A 
ENDBRANCH  17  18
ENDBRANCH  13  17
ENDBRANCH   9  13
ENDBRANCH   1  11
BRANCH   6  24
ATOM     24  C   UNL     1       4.303   3.132  18.268  0.00  0.00    +0.000 C 
BRANCH  24  25
ATOM     25  C   UNL     1       4.571   4.031  17.052  0.00  0.00    +0.000 C 
ATOM     26  O   UNL     1       3.711   4.152  16.173  0.00  0.00    +0.000 OA
ATOM     27  N   UNL     1       5.774   4.674  16.933  0.00  0.00    +0.000 N 
ATOM     28  H   UNL     1       6.485   4.626  17.654  0.00  0.00    +0.000 HD
BRANCH  27  29
ATOM     29  C   UNL     1       6.028   5.504  15.761  0.00  0.00    +0.000 C 
BRANCH  29  30
ATOM     30  C   UNL     1       6.796   4.774  14.671  0.00  0.00    +0.000 C 
ATOM     31  O   UNL     1       6.488   3.671  14.235  0.00  0.00    +0.000 OA
BRANCH  30  32
ATOM     32  O   UNL     1       7.878   5.458  14.225  0.00  0.00    +0.000 OA
ATOM     33  H   UNL     1       7.857   6.417  14.411  0.00  0.00    +0.000 HD
ENDBRANCH  30  32
ENDBRANCH  29  30
ENDBRANCH  27  29
ENDBRANCH  24  25
ENDBRANCH   6  24
TORSDOF 10
ENDMDL
MODEL 3
REMARK VINA RESULT:      -7.4      2.401      4.889
REMARK  Name = 
REMARK  10 active torsions:
REMARK  status: ('A' for Active; 'I' for Inactive)
REMARK    1  A    between atoms: N_1  and  C_2
REMARK    2  A    between atoms: C_2  and  C_3
REMARK    3  A    between atoms: C_2  and  C_10
REMARK    4  A    between atoms: C_3  and  C_4
REMARK    5  A    between atoms: N_12  and  C_13
REMARK    6  A    between atoms: N_18  and  C_19
REMARK    7  A    between atoms: C_19  and  C_20
REMARK    8  A    between atoms: N_22  and  C_23
REMARK    9  A    between atoms: C_23  and  C_24
REMARK   10  A    between atoms: C_24  and  O_26
REMARK                            x       y       z     vdW  Elec       q    Type
REMARK                         _______ _______ _______ _____ _____    ______ ____
ROOT
ATOM      1  C   UNL     1       2.407   5.516  20.474  0.00  0.00    +0.000 C 
ATOM      2  C   UNL     1       1.048   4.827  20.416  0.00  0.00    +0.000 C 
ATOM      3  C   UNL     1       1.229   3.337  20.630  0.00  0.00    +0.000 C 
ATOM      4  C   UNL     1       2.044   2.784  19.487  0.00  0.00    +0.000 C 
ATOM      5  O   UNL     1       1.702   1.764  18.896  0.00  0.00    +0.000 OA
ATOM      6  N   UNL     1       3.214   3.483  19.213  0.00  0.00    +0.000 N 
ATOM      7  C   UNL     1       3.543   4.724  19.767  0.00  0.00    +0.000 C 
ATOM      8  O   UNL     1       4.697   5.160  19.745  0.00  0.00    +0.000 OA
ENDROOT
BRANCH   1  11
ATOM      9  C   UNL     1       2.297   7.445  18.820  0.00  0.00    +0.000 C 
ATOM     10  O   UNL     1       2.339   6.734  17.820  0.00  0.00    +0.000 OA
ATOM     11  N   UNL     1       2.338   6.935  20.106  0.00  0.00    +0.000 N 
ATOM     12  H   UNL     1       2.414   7.645  20.832  0.00  0.00    +0.000 HD
BRANCH   9  13
ATOM     13  C   UNL     1       2.083   8.996  18.783  0.00  0.00    +0.000 C 
BRANCH  13  14
ATOM     14  N   UNL     1       1.969   9.436  17.365  0.00  0.00    +0.000 NA
ATOM     15  H   UNL     1       1.148   8.972  16.964  0.00  0.00    +0.000 HD
ATOM     16  H   UNL     1       2.758   9.040  16.848  0.00  0.00    +0.000 HD
ENDBRANCH  13  14
BRANCH  13  17
ATOM     17  C   UNL     1       0.883   9.462  19.642  0.00  0.00    +0.000 C 
BRANCH  17  18
ATOM     18  C   UNL     1       0.354  10.848  19.298  0.00  0.00    +0.000 A 
ATOM     19  C   UNL     1       1.098  11.997  19.601  0.00  0.00    +0.000 A 
ATOM     20  C   UNL     1       0.612  13.268  19.273  0.00  0.00    +0.000 A 
ATOM     21  C   UNL     1      -0.620  13.407  18.636  0.00  0.00    +0.000 A 
ATOM     22  C   UNL     1      -1.361  12.277  18.315  0.00  0.00    +0.000 A 
ATOM     23  C   UNL     1      -0.877  11.004  18.642  0.00  0.00    +0.000 A 
ENDBRANCH  17  18
ENDBRANCH  13  17
ENDBRANCH   9  13
ENDBRANCH   1  11
BRANCH   6  24
ATOM     24  C   UNL     1       4.060   2.982  18.132  0.00  0.00    +0.000 C 
BRANCH  24  25
ATOM     25  C   UNL     1       4.941   3.928  17.303  0.00  0.00    +0.000 C 
ATOM     26  O   UNL     1       4.451   4.558  16.360  0.00  0.00    +0.000 OA
ATOM     27  N   UNL     1       6.274   4.048  17.594  0.00  0.00    +0.000 N 
ATOM     28  H   UNL     1       6.698   3.574  18.383  0.00  0.00    +0.000 HD
BRANCH  27  29
ATOM     29  C   UNL     1       7.106   4.929  16.784  0.00  0.00    +0.000 C 
BRANCH  29  30
ATOM     30  C   UNL     1       7.206   6.337  17.348  0.00  0.00    +0.000 C 
ATOM     31  O   UNL     1       6.714   7.326  16.817  0.00  0.00    +0.000 OA
BRANCH  30  32
ATOM     32  O   UNL     1       7.913   6.405  18.503  0.00  0.00    +0.000 OA
ATOM     33  H   UNL     1       8.385   5.582  18.739  0.00  0.00    +0.000 HD
ENDBRANCH  30  32
ENDBRANCH  29  30
ENDBRANCH  27  29
ENDBRANCH  24  25
ENDBRANCH   6  24
TORSDOF 10
ENDMDL
MODEL 4
REMARK VINA RESULT:      -7.3      3.192      5.769
REMARK  Name = 
REMARK  10 active torsions:
REMARK  status: ('A' for Active; 'I' for Inactive)
REMARK    1  A    between atoms: N_1  and  C_2
REMARK    2  A    between atoms: C_2  and  C_3
REMARK    3  A    between atoms: C_2  and  C_10
REMARK    4  A    between atoms: C_3  and  C_4
REMARK    5  A    between atoms: N_12  and  C_13
REMARK    6  A    between atoms: N_18  and  C_19
REMARK    7  A    between atoms: C_19  and  C_20
REMARK    8  A    between atoms: N_22  and  C_23
REMARK    9  A    between atoms: C_23  and  C_24
REMARK   10  A    between atoms: C_24  and  O_26
REMARK                            x       y       z     vdW  Elec       q    Type
REMARK                         _______ _______ _______ _____ _____    ______ ____
ROOT
ATOM      1  C   UNL     1       2.117   6.792  20.320  0.00  0.00    +0.000 C 
ATOM      2  C   UNL     1       1.346   5.732  21.100  0.00  0.00    +0.000 C 
ATOM      3  C   UNL     1       2.136   4.439  21.107  0.00  0.00    +0.000 C 
ATOM      4  C   UNL     1       2.248   3.937  19.689  0.00  0.00    +0.000 C 
ATOM      5  O   UNL     1       2.015   2.764  19.408  0.00  0.00    +0.000 OA
ATOM      6  N   UNL     1       2.681   4.883  18.767  0.00  0.00    +0.000 N 
ATOM      7  C   UNL     1       2.803   6.249  19.034  0.00  0.00    +0.000 C 
ATOM      8  O   UNL     1       3.470   6.995  18.312  0.00  0.00    +0.000 OA
ENDROOT
BRANCH   1  11
ATOM      9  C   UNL     1       1.091   8.995  21.071  0.00  0.00    +0.000 C 
ATOM     10  O   UNL     1       1.489   8.912  22.229  0.00  0.00    +0.000 OA
ATOM     11  N   UNL     1       1.342   8.022  20.119  0.00  0.00    +0.000 N 
ATOM     12  H   UNL     1       0.853   8.168  19.237  0.00  0.00    +0.000 HD
BRANCH   9  13
ATOM     13  C   UNL     1       0.352  10.247  20.487  0.00  0.00    +0.000 C 
BRANCH  13  14
ATOM     14  N   UNL     1       0.984  11.481  21.031  0.00  0.00    +0.000 NA
ATOM     15  H   UNL     1       0.454  11.755  21.864  0.00  0.00    +0.000 HD
ATOM     16  H   UNL     1       0.816  12.239  20.366  0.00  0.00    +0.000 HD
ENDBRANCH  13  14
BRANCH  13  17
ATOM     17  C   UNL     1       0.292  10.247  18.941  0.00  0.00    +0.000 C 
BRANCH  17  18
ATOM     18  C   UNL     1      -1.098  10.466  18.358  0.00  0.00    +0.000 A 
ATOM     19  C   UNL     1      -1.991  11.372  18.948  0.00  0.00    +0.000 A 
ATOM     20  C   UNL     1      -3.263  11.577  18.401  0.00  0.00    +0.000 A 
ATOM     21  C   UNL     1      -3.658  10.884  17.258  0.00  0.00    +0.000 A 
ATOM     22  C   UNL     1      -2.778   9.996  16.653  0.00  0.00    +0.000 A 
ATOM     23  C   UNL     1      -1.504   9.788  17.197  0.00  0.00    +0.000 A 
ENDBRANCH  17  18
ENDBRANCH  13  17
ENDBRANCH   9  13
ENDBRANCH   1  11
BRANCH   6  24
ATOM     24  C   UNL     1       2.834   4.450  17.380  0.00  0.00    +0.000 C 
BRANCH  24  25
ATOM     25  C   UNL     1       4.173   3.911  16.854  0.00  0.00    +0.000 C 
ATOM     26  O   UNL     1       4.649   2.875  17.328  0.00  0.00    +0.000 OA
ATOM     27  N   UNL     1       4.848   4.598  15.880  0.00  0.00    +0.000 N 
ATOM     28  H   UNL     1       4.466   5.430  15.444  0.00  0.00    +0.000 HD
BRANCH  27  29
ATOM     29  C   UNL     1       6.130   4.091  15.407  0.00  0.00    +0.000 C 
BRANCH  29  30
ATOM     30  C   UNL     1       7.318   4.747  16.091  0.00  0.00    +0.000 C 
ATOM     31  O   UNL     1       8.026   4.189  16.922  0.00  0.00    +0.000 OA
BRANCH  30  32
ATOM     32  O   UNL     1       7.520   6.031  15.706  0.00  0.00    +0.000 OA
ATOM     33  H   UNL     1       6.791   6.417  15.182  0.00  0.00    +0.000 HD
ENDBRANCH  30  32
ENDBRANCH  29  30
ENDBRANCH  27  29
ENDBRANCH  24  25
ENDBRANCH   6  24
TORSDOF 10
ENDMDL
MODEL 5
REMARK VINA RESULT:      -7.3      2.530      4.724
REMARK  Name = 
REMARK  10 active torsions:
REMARK  status: ('A' for Active; 'I' for Inactive)
REMARK    1  A    between atoms: N_1  and  C_2
REMARK    2  A    between atoms: C_2  and  C_3
REMARK    3  A    between atoms: C_2  and  C_10
REMARK    4  A    between atoms: C_3  and  C_4
REMARK    5  A    between atoms: N_12  and  C_13
REMARK    6  A    between atoms: N_18  and  C_19
REMARK    7  A    between atoms: C_19  and  C_20
REMARK    8  A    between atoms: N_22  and  C_23
REMARK    9  A    between atoms: C_23  and  C_24
REMARK   10  A    between atoms: C_24  and  O_26
REMARK                            x       y       z     vdW  Elec       q    Type
REMARK                         _______ _______ _______ _____ _____    ______ ____
ROOT
ATOM      1  C   UNL     1       2.291   4.812  20.692  0.00  0.00    +0.000 C 
ATOM      2  C   UNL     1       1.102   3.933  20.321  0.00  0.00    +0.000 C 
ATOM      3  C   UNL     1       1.601   2.667  19.654  0.00  0.00    +0.000 C 
ATOM      4  C   UNL     1       2.282   3.042  18.361  0.00  0.00    +0.000 C 
ATOM      5  O   UNL     1       2.038   2.446  17.316  0.00  0.00    +0.000 OA
ATOM      6  N   UNL     1       3.226   4.057  18.472  0.00  0.00    +0.000 N 
ATOM      7  C   UNL     1       3.408   4.847  19.611  0.00  0.00    +0.000 C 
ATOM      8  O   UNL     1       4.434   5.511  19.783  0.00  0.00    +0.000 OA
ENDROOT
BRANCH   1  11
ATOM      9  C   UNL     1       1.665   7.263  20.418  0.00  0.00    +0.000 C 
ATOM     10  O   UNL     1       1.815   7.278  19.200  0.00  0.00    +0.000 OA
ATOM     11  N   UNL     1       1.886   6.133  21.187  0.00  0.00    +0.000 N 
ATOM     12  H   UNL     1       1.837   6.298  22.192  0.00  0.00    +0.000 HD
BRANCH   9  13
ATOM     13  C   UNL     1       1.106   8.468  21.247  0.00  0.00    +0.000 C 
BRANCH  13  14
ATOM     14  N   UNL     1       2.146   8.915  22.215  0.00  0.00    +0.000 NA
ATOM     15  H   UNL     1       3.059   8.679  21.815  0.00  0.00    +0.000 HD
ATOM     16  H   UNL     1       2.076   8.324  23.047  0.00  0.00    +0.000 HD
ENDBRANCH  13  14
BRANCH  13  17
ATOM     17  C   UNL     1       0.592   9.626  20.359  0.00  0.00    +0.000 C 
BRANCH  17  18
ATOM     18  C   UNL     1      -0.215  10.686  21.098  0.00  0.00    +0.000 A 
ATOM     19  C   UNL     1      -0.465  11.935  20.513  0.00  0.00    +0.000 A 
ATOM     20  C   UNL     1      -1.217  12.902  21.192  0.00  0.00    +0.000 A 
ATOM     21  C   UNL     1      -1.730  12.632  22.459  0.00  0.00    +0.000 A 
ATOM     22  C   UNL     1      -1.504  11.392  23.044  0.00  0.00    +0.000 A 
ATOM     23  C   UNL     1      -0.753  10.423  22.368  0.00  0.00    +0.000 A 
ENDBRANCH  17  18
ENDBRANCH  13  17
ENDBRANCH   9  13
ENDBRANCH   1  11
BRANCH   6  24
ATOM     24  C   UNL     1       3.939   4.449  17.258  0.00  0.00    +0.000 C 
BRANCH  24  25
ATOM     25  C   UNL     1       5.389   4.950  17.311  0.00  0.00    +0.000 C 
ATOM     26  O   UNL     1       5.714   5.966  16.688  0.00  0.00    +0.000 OA
ATOM     27  N   UNL     1       6.325   4.252  18.027  0.00  0.00    +0.000 N 
ATOM     28  H   UNL     1       6.084   3.437  18.580  0.00  0.00    +0.000 HD
BRANCH  27  29
ATOM     29  C   UNL     1       7.705   4.721  18.050  0.00  0.00    +0.000 C 
BRANCH  29  30
ATOM     30  C   UNL     1       7.931   5.857  19.034  0.00  0.00    +0.000 C 
ATOM     31  O   UNL     1       8.261   6.992  18.708  0.00  0.00    +0.000 OA
BRANCH  30  32
ATOM     32  O   UNL     1       7.745   5.495  20.326  0.00  0.00    +0.000 OA
ATOM     33  H   UNL     1       6.817   5.540  20.631  0.00  0.00    +0.000 HD
ENDBRANCH  30  32
ENDBRANCH  29  30
ENDBRANCH  27  29
ENDBRANCH  24  25
ENDBRANCH   6  24
TORSDOF 10
ENDMDL
MODEL 6
REMARK VINA RESULT:      -7.3      2.549      4.620
REMARK  Name = 
REMARK  10 active torsions:
REMARK  status: ('A' for Active; 'I' for Inactive)
REMARK    1  A    between atoms: N_1  and  C_2
REMARK    2  A    between atoms: C_2  and  C_3
REMARK    3  A    between atoms: C_2  and  C_10
REMARK    4  A    between atoms: C_3  and  C_4
REMARK    5  A    between atoms: N_12  and  C_13
REMARK    6  A    between atoms: N_18  and  C_19
REMARK    7  A    between atoms: C_19  and  C_20
REMARK    8  A    between atoms: N_22  and  C_23
REMARK    9  A    between atoms: C_23  and  C_24
REMARK   10  A    between atoms: C_24  and  O_26
REMARK                            x       y       z     vdW  Elec       q    Type
REMARK                         _______ _______ _______ _____ _____    ______ ____
ROOT
ATOM      1  C   UNL     1       2.164   5.282  20.627  0.00  0.00    +0.000 C 
ATOM      2  C   UNL     1       0.970   4.391  20.301  0.00  0.00    +0.000 C 
ATOM      3  C   UNL     1       1.462   3.097  19.685  0.00  0.00    +0.000 C 
ATOM      4  C   UNL     1       2.136   3.416  18.373  0.00  0.00    +0.000 C 
ATOM      5  O   UNL     1       1.883   2.776  17.356  0.00  0.00    +0.000 OA
ATOM      6  N   UNL     1       3.082   4.432  18.435  0.00  0.00    +0.000 N 
ATOM      7  C   UNL     1       3.274   5.269  19.538  0.00  0.00    +0.000 C 
ATOM      8  O   UNL     1       4.302   5.937  19.676  0.00  0.00    +0.000 OA
ENDROOT
BRANCH   1  11
ATOM      9  C   UNL     1       1.618   7.740  20.264  0.00  0.00    +0.000 C 
ATOM     10  O   UNL     1       1.838   7.723  19.056  0.00  0.00    +0.000 OA
ATOM     11  N   UNL     1       1.765   6.624  21.069  0.00  0.00    +0.000 N 
ATOM     12  H   UNL     1       1.662   6.814  22.065  0.00  0.00    +0.000 HD
BRANCH   9  13
ATOM     13  C   UNL     1       1.043   8.978  21.032  0.00  0.00    +0.000 C 
BRANCH  13  14
ATOM     14  N   UNL     1       1.735   9.097  22.345  0.00  0.00    +0.000 NA
ATOM     15  H   UNL     1       2.357   9.910  22.291  0.00  0.00    +0.000 HD
ATOM     16  H   UNL     1       2.369   8.301  22.440  0.00  0.00    +0.000 HD
ENDBRANCH  13  14
BRANCH  13  17
ATOM     17  C   UNL     1       1.113  10.286  20.208  0.00  0.00    +0.000 C 
BRANCH  17  18
ATOM     18  C   UNL     1      -0.192  10.682  19.530  0.00  0.00    +0.000 A 
ATOM     19  C   UNL     1      -0.564  10.117  18.301  0.00  0.00    +0.000 A 
ATOM     20  C   UNL     1      -1.770  10.475  17.688  0.00  0.00    +0.000 A 
ATOM     21  C   UNL     1      -2.620  11.398  18.294  0.00  0.00    +0.000 A 
ATOM     22  C   UNL     1      -2.274  11.954  19.519  0.00  0.00    +0.000 A 
ATOM     23  C   UNL     1      -1.068  11.597  20.136  0.00  0.00    +0.000 A 
ENDBRANCH  17  18
ENDBRANCH  13  17
ENDBRANCH   9  13
ENDBRANCH   1  11
BRANCH   6  24
ATOM     24  C   UNL     1       3.788   4.770  17.201  0.00  0.00    +0.000 C 
BRANCH  24  25
ATOM     25  C   UNL     1       5.315   4.931  17.173  0.00  0.00    +0.000 C 
ATOM     26  O   UNL     1       6.036   3.942  17.008  0.00  0.00    +0.000 OA
ATOM     27  N   UNL     1       5.873   6.168  17.359  0.00  0.00    +0.000 N 
ATOM     28  H   UNL     1       5.309   7.005  17.459  0.00  0.00    +0.000 HD
BRANCH  27  29
ATOM     29  C   UNL     1       7.324   6.306  17.357  0.00  0.00    +0.000 C 
BRANCH  29  30
ATOM     30  C   UNL     1       7.920   6.341  18.754  0.00  0.00    +0.000 C 
ATOM     31  O   UNL     1       7.796   5.440  19.577  0.00  0.00    +0.000 OA
BRANCH  30  32
ATOM     32  O   UNL     1       8.603   7.481  19.020  0.00  0.00    +0.000 OA
ATOM     33  H   UNL     1       9.028   7.890  18.242  0.00  0.00    +0.000 HD
ENDBRANCH  30  32
ENDBRANCH  29  30
ENDBRANCH  27  29
ENDBRANCH  24  25
ENDBRANCH   6  24
TORSDOF 10
ENDMDL
MODEL 7
REMARK VINA RESULT:      -7.3      3.259      5.861
REMARK  Name = 
REMARK  10 active torsions:
REMARK  status: ('A' for Active; 'I' for Inactive)
REMARK    1  A    between atoms: N_1  and  C_2
REMARK    2  A    between atoms: C_2  and  C_3
REMARK    3  A    between atoms: C_2  and  C_10
REMARK    4  A    between atoms: C_3  and  C_4
REMARK    5  A    between atoms: N_12  and  C_13
REMARK    6  A    between atoms: N_18  and  C_19
REMARK    7  A    between atoms: C_19  and  C_20
REMARK    8  A    between atoms: N_22  and  C_23
REMARK    9  A    between atoms: C_23  and  C_24
REMARK   10  A    between atoms: C_24  and  O_26
REMARK                            x       y       z     vdW  Elec       q    Type
REMARK                         _______ _______ _______ _____ _____    ______ ____
ROOT
ATOM      1  C   UNL     1       2.218   6.799  20.234  0.00  0.00    +0.000 C 
ATOM      2  C   UNL     1       1.458   5.733  21.017  0.00  0.00    +0.000 C 
ATOM      3  C   UNL     1       2.255   4.443  21.014  0.00  0.00    +0.000 C 
ATOM      4  C   UNL     1       2.359   3.946  19.594  0.00  0.00    +0.000 C 
ATOM      5  O   UNL     1       2.131   2.773  19.311  0.00  0.00    +0.000 OA
ATOM      6  N   UNL     1       2.782   4.897  18.672  0.00  0.00    +0.000 N 
ATOM      7  C   UNL     1       2.899   6.264  18.943  0.00  0.00    +0.000 C 
ATOM      8  O   UNL     1       3.556   7.016  18.218  0.00  0.00    +0.000 OA
ENDROOT
BRANCH   1  11
ATOM      9  C   UNL     1       1.161   8.980  21.007  0.00  0.00    +0.000 C 
ATOM     10  O   UNL     1       1.541   8.879  22.170  0.00  0.00    +0.000 OA
ATOM     11  N   UNL     1       1.435   8.025  20.043  0.00  0.00    +0.000 N 
ATOM     12  H   UNL     1       0.959   8.182  19.156  0.00  0.00    +0.000 HD
BRANCH   9  13
ATOM     13  C   UNL     1       0.420  10.234  20.434  0.00  0.00    +0.000 C 
BRANCH  13  14
ATOM     14  N   UNL     1       1.066  11.465  20.968  0.00  0.00    +0.000 NA
ATOM     15  H   UNL     1       1.214  12.101  20.178  0.00  0.00    +0.000 HD
ATOM     16  H   UNL     1       2.010  11.219  21.271  0.00  0.00    +0.000 HD
ENDBRANCH  13  14
BRANCH  13  17
ATOM     17  C   UNL     1       0.337  10.235  18.889  0.00  0.00    +0.000 C 
BRANCH  17  18
ATOM     18  C   UNL     1      -1.055  10.485  18.325  0.00  0.00    +0.000 A 
ATOM     19  C   UNL     1      -1.534   9.742  17.236  0.00  0.00    +0.000 A 
ATOM     20  C   UNL     1      -2.819   9.968  16.729  0.00  0.00    +0.000 A 
ATOM     21  C   UNL     1      -3.643  10.934  17.304  0.00  0.00    +0.000 A 
ATOM     22  C   UNL     1      -3.188  11.666  18.394  0.00  0.00    +0.000 A 
ATOM     23  C   UNL     1      -1.903  11.442  18.904  0.00  0.00    +0.000 A 
ENDBRANCH  17  18
ENDBRANCH  13  17
ENDBRANCH   9  13
ENDBRANCH   1  11
BRANCH   6  24
ATOM     24  C   UNL     1       2.928   4.470  17.283  0.00  0.00    +0.000 C 
BRANCH  24  25
ATOM     25  C   UNL     1       4.253   3.899  16.758  0.00  0.00    +0.000 C 
ATOM     26  O   UNL     1       4.825   2.998  17.379  0.00  0.00    +0.000 OA
ATOM     27  N   UNL     1       4.810   4.410  15.615  0.00  0.00    +0.000 N 
ATOM     28  H   UNL     1       4.347   5.122  15.062  0.00  0.00    +0.000 HD
BRANCH  27  29
ATOM     29  C   UNL     1       6.081   3.878  15.140  0.00  0.00    +0.000 C 
BRANCH  29  30
ATOM     30  C   UNL     1       7.271   4.735  15.539  0.00  0.00    +0.000 C 
ATOM     31  O   UNL     1       7.698   5.670  14.870  0.00  0.00    +0.000 OA
BRANCH  30  32
ATOM     32  O   UNL     1       7.836   4.360  16.712  0.00  0.00    +0.000 OA
ATOM     33  H   UNL     1       7.498   4.836  17.496  0.00  0.00    +0.000 HD
ENDBRANCH  30  32
ENDBRANCH  29  30
ENDBRANCH  27  29
ENDBRANCH  24  25
ENDBRANCH   6  24
TORSDOF 10
ENDMDL
MODEL 8
REMARK VINA RESULT:      -7.2      3.234      7.421
REMARK  Name = 
REMARK  10 active torsions:
REMARK  status: ('A' for Active; 'I' for Inactive)
REMARK    1  A    between atoms: N_1  and  C_2
REMARK    2  A    between atoms: C_2  and  C_3
REMARK    3  A    between atoms: C_2  and  C_10
REMARK    4  A    between atoms: C_3  and  C_4
REMARK    5  A    between atoms: N_12  and  C_13
REMARK    6  A    between atoms: N_18  and  C_19
REMARK    7  A    between atoms: C_19  and  C_20
REMARK    8  A    between atoms: N_22  and  C_23
REMARK    9  A    between atoms: C_23  and  C_24
REMARK   10  A    between atoms: C_24  and  O_26
REMARK                            x       y       z     vdW  Elec       q    Type
REMARK                         _______ _______ _______ _____ _____    ______ ____
ROOT
ATOM      1  C   UNL     1       3.686   3.505  18.182  0.00  0.00    +0.000 C 
ATOM      2  C   UNL     1       4.486   2.965  19.363  0.00  0.00    +0.000 C 
ATOM      3  C   UNL     1       3.543   2.305  20.349  0.00  0.00    +0.000 C 
ATOM      4  C   UNL     1       2.612   3.357  20.900  0.00  0.00    +0.000 C 
ATOM      5  O   UNL     1       2.397   3.448  22.106  0.00  0.00    +0.000 OA
ATOM      6  N   UNL     1       1.994   4.151  19.941  0.00  0.00    +0.000 N 
ATOM      7  C   UNL     1       2.338   4.165  18.586  0.00  0.00    +0.000 C 
ATOM      8  O   UNL     1       1.584   4.636  17.730  0.00  0.00    +0.000 OA
ENDROOT
BRANCH   1  11
ATOM      9  C   UNL     1       5.132   5.506  17.566  0.00  0.00    +0.000 C 
ATOM     10  O   UNL     1       5.046   6.046  18.665  0.00  0.00    +0.000 OA
ATOM     11  N   UNL     1       4.504   4.309  17.266  0.00  0.00    +0.000 N 
ATOM     12  H   UNL     1       4.567   4.042  16.285  0.00  0.00    +0.000 HD
BRANCH   9  13
ATOM     13  C   UNL     1       6.040   6.029  16.403  0.00  0.00    +0.000 C 
BRANCH  13  14
ATOM     14  N   UNL     1       6.704   7.290  16.835  0.00  0.00    +0.000 NA
ATOM     15  H   UNL     1       6.501   8.002  16.127  0.00  0.00    +0.000 HD
ATOM     16  H   UNL     1       7.715   7.152  16.769  0.00  0.00    +0.000 HD
ENDBRANCH  13  14
BRANCH  13  17
ATOM     17  C   UNL     1       7.053   4.971  15.903  0.00  0.00    +0.000 C 
BRANCH  17  18
ATOM     18  C   UNL     1       6.933   4.622  14.426  0.00  0.00    +0.000 A 
ATOM     19  C   UNL     1       5.936   3.745  13.974  0.00  0.00    +0.000 A 
ATOM     20  C   UNL     1       5.823   3.436  12.613  0.00  0.00    +0.000 A 
ATOM     21  C   UNL     1       6.699   4.000  11.688  0.00  0.00    +0.000 A 
ATOM     22  C   UNL     1       7.681   4.883  12.119  0.00  0.00    +0.000 A 
ATOM     23  C   UNL     1       7.797   5.195  13.479  0.00  0.00    +0.000 A 
ENDBRANCH  17  18
ENDBRANCH  13  17
ENDBRANCH   9  13
ENDBRANCH   1  11
BRANCH   6  24
ATOM     24  C   UNL     1       1.061   5.172  20.411  0.00  0.00    +0.000 C 
BRANCH  24  25
ATOM     25  C   UNL     1       1.492   6.637  20.564  0.00  0.00    +0.000 C 
ATOM     26  O   UNL     1       2.332   7.117  19.796  0.00  0.00    +0.000 OA
ATOM     27  N   UNL     1       0.963   7.401  21.572  0.00  0.00    +0.000 N 
ATOM     28  H   UNL     1       0.245   7.049  22.194  0.00  0.00    +0.000 HD
BRANCH  27  29
ATOM     29  C   UNL     1       1.399   8.784  21.725  0.00  0.00    +0.000 C 
BRANCH  29  30
ATOM     30  C   UNL     1       0.377   9.653  22.439  0.00  0.00    +0.000 C 
ATOM     31  O   UNL     1       0.335   9.806  23.654  0.00  0.00    +0.000 OA
BRANCH  30  32
ATOM     32  O   UNL     1      -0.507  10.244  21.599  0.00  0.00    +0.000 OA
ATOM     33  H   UNL     1      -0.496  11.221  21.620  0.00  0.00    +0.000 HD
ENDBRANCH  30  32
ENDBRANCH  29  30
ENDBRANCH  27  29
ENDBRANCH  24  25
ENDBRANCH   6  24
TORSDOF 10
ENDMDL
MODEL 9
REMARK VINA RESULT:      -7.2      3.208      5.246
REMARK  Name = 
REMARK  10 active torsions:
REMARK  status: ('A' for Active; 'I' for Inactive)
REMARK    1  A    between atoms: N_1  and  C_2
REMARK    2  A    between atoms: C_2  and  C_3
REMARK    3  A    between atoms: C_2  and  C_10
REMARK    4  A    between atoms: C_3  and  C_4
REMARK    5  A    between atoms: N_12  and  C_13
REMARK    6  A    between atoms: N_18  and  C_19
REMARK    7  A    between atoms: C_19  and  C_20
REMARK    8  A    between atoms: N_22  and  C_23
REMARK    9  A    between atoms: C_23  and  C_24
REMARK   10  A    between atoms: C_24  and  O_26
REMARK                            x       y       z     vdW  Elec       q    Type
REMARK                         _______ _______ _______ _____ _____    ______ ____
ROOT
ATOM      1  C   UNL     1       2.319   5.513  20.562  0.00  0.00    +0.000 C 
ATOM      2  C   UNL     1       1.016   4.731  20.441  0.00  0.00    +0.000 C 
ATOM      3  C   UNL     1       1.288   3.259  20.680  0.00  0.00    +0.000 C 
ATOM      4  C   UNL     1       2.199   2.756  19.588  0.00  0.00    +0.000 C 
ATOM      5  O   UNL     1       1.960   1.710  18.990  0.00  0.00    +0.000 OA
ATOM      6  N   UNL     1       3.331   3.533  19.367  0.00  0.00    +0.000 N 
ATOM      7  C   UNL     1       3.543   4.797  19.924  0.00  0.00    +0.000 C 
ATOM      8  O   UNL     1       4.664   5.312  19.959  0.00  0.00    +0.000 OA
ENDROOT
BRANCH   1  11
ATOM      9  C   UNL     1       2.157   7.418  18.884  0.00  0.00    +0.000 C 
ATOM     10  O   UNL     1       2.293   6.703  17.894  0.00  0.00    +0.000 OA
ATOM     11  N   UNL     1       2.172   6.921  20.176  0.00  0.00    +0.000 N 
ATOM     12  H   UNL     1       2.166   7.641  20.897  0.00  0.00    +0.000 HD
BRANCH   9  13
ATOM     13  C   UNL     1       1.841   8.950  18.820  0.00  0.00    +0.000 C 
BRANCH  13  14
ATOM     14  N   UNL     1       2.371   9.502  17.542  0.00  0.00    +0.000 NA
ATOM     15  H   UNL     1       2.085   8.865  16.791  0.00  0.00    +0.000 HD
ATOM     16  H   UNL     1       3.390   9.422  17.563  0.00  0.00    +0.000 HD
ENDBRANCH  13  14
BRANCH  13  17
ATOM     17  C   UNL     1       0.340   9.267  19.021  0.00  0.00    +0.000 C 
BRANCH  17  18
ATOM     18  C   UNL     1      -0.030   9.730  20.424  0.00  0.00    +0.000 A 
ATOM     19  C   UNL     1      -0.169   8.808  21.471  0.00  0.00    +0.000 A 
ATOM     20  C   UNL     1      -0.499   9.240  22.762  0.00  0.00    +0.000 A 
ATOM     21  C   UNL     1      -0.690  10.596  23.023  0.00  0.00    +0.000 A 
ATOM     22  C   UNL     1      -0.540  11.522  21.999  0.00  0.00    +0.000 A 
ATOM     23  C   UNL     1      -0.210  11.094  20.706  0.00  0.00    +0.000 A 
ENDBRANCH  17  18
ENDBRANCH  13  17
ENDBRANCH   9  13
ENDBRANCH   1  11
BRANCH   6  24
ATOM     24  C   UNL     1       4.266   3.083  18.338  0.00  0.00    +0.000 C 
BRANCH  24  25
ATOM     25  C   UNL     1       5.117   4.083  17.542  0.00  0.00    +0.000 C 
ATOM     26  O   UNL     1       6.326   4.186  17.774  0.00  0.00    +0.000 OA
ATOM     27  N   UNL     1       4.527   4.878  16.595  0.00  0.00    +0.000 N 
ATOM     28  H   UNL     1       3.546   4.791  16.354  0.00  0.00    +0.000 HD
BRANCH  27  29
ATOM     29  C   UNL     1       5.340   5.841  15.863  0.00  0.00    +0.000 C 
BRANCH  29  30
ATOM     30  C   UNL     1       6.236   5.193  14.821  0.00  0.00    +0.000 C 
ATOM     31  O   UNL     1       7.432   5.434  14.698  0.00  0.00    +0.000 OA
BRANCH  30  32
ATOM     32  O   UNL     1       5.581   4.321  14.016  0.00  0.00    +0.000 OA
ATOM     33  H   UNL     1       4.638   4.531  13.872  0.00  0.00    +0.000 HD
ENDBRANCH  30  32
ENDBRANCH  29  30
ENDBRANCH  27  29
ENDBRANCH  24  25
ENDBRANCH   6  24
TORSDOF 10
ENDMDL
