MODEL 1
REMARK VINA RESULT:      -7.5      0.000      0.000
REMARK  Name = 
REMARK  8 active torsions:
REMARK  status: ('A' for Active; 'I' for Inactive)
REMARK    1  A    between atoms: C_1  and  C_2
REMARK    2  A    between atoms: C_10  and  C_11
REMARK    3  A    between atoms: C_11  and  C_12
REMARK    4  A    between atoms: C_12  and  N_13
REMARK    5  A    between atoms: N_13  and  S_14
REMARK    6  A    between atoms: S_14  and  C_17
REMARK    7  A    between atoms: C_17  and  C_18
REMARK    8  A    between atoms: C_18  and  N_19
REMARK                            x       y       z     vdW  Elec       q    Type
REMARK                         _______ _______ _______ _____ _____    ______ ____
ROOT
ATOM      1  C   UNL     1       4.962   4.537  18.868  0.00  0.00    +0.000 C 
ENDROOT
BRANCH   1   2
ATOM      2  N   UNL     1       5.806   5.755  18.836  0.00  0.00    +0.000 NA
ATOM      3  H   UNL     1       6.542   5.767  19.548  0.00  0.00    +0.000 HD
BRANCH   2   4
ATOM      4  S   UNL     1       6.488   6.124  17.335  0.00  0.00    +0.000 S 
ATOM      5  O   UNL     1       5.405   6.616  16.513  0.00  0.00    +0.000 OA
ATOM      6  O   UNL     1       7.669   6.917  17.574  0.00  0.00    +0.000 OA
BRANCH   4   7
ATOM      7  C   UNL     1       6.975   4.525  16.715  0.00  0.00    +0.000 C 
BRANCH   7   8
ATOM      8  C   UNL     1       6.116   4.136  15.533  0.00  0.00    +0.000 C 
BRANCH   8   9
ATOM      9  N   UNL     1       6.738   4.483  14.280  0.00  0.00    +0.000 N 
ATOM     10  C   UNL     1       6.539   3.943  13.052  0.00  0.00    +0.000 A 
ATOM     11  N   UNL     1       7.331   4.558  12.202  0.00  0.00    +0.000 NA
ATOM     12  N   UNL     1       8.030   5.484  12.940  0.00  0.00    +0.000 NA
ATOM     13  N   UNL     1       7.676   5.438  14.217  0.00  0.00    +0.000 NA
ENDBRANCH   8   9
ENDBRANCH   7   8
ENDBRANCH   4   7
ENDBRANCH   2   4
ENDBRANCH   1   2
BRANCH   1  14
ATOM     14  C   UNL     1       3.560   4.812  18.324  0.00  0.00    +0.000 C 
BRANCH  14  24
ATOM     15  C   UNL     1       2.346   4.172  21.285  0.00  0.00    +0.000 C 
ATOM     16  C   UNL     1       2.311   5.431  20.496  0.00  0.00    +0.000 A 
ATOM     17  N   UNL     1       1.664   6.546  20.965  0.00  0.00    +0.000 N 
ATOM     18  C   UNL     1       1.727   7.567  20.047  0.00  0.00    +0.000 A 
ATOM     19  C   UNL     1       1.192   8.859  20.103  0.00  0.00    +0.000 A 
ATOM     20  C   UNL     1       1.398   9.693  19.001  0.00  0.00    +0.000 A 
ATOM     21  C   UNL     1       2.106   9.246  17.889  0.00  0.00    +0.000 A 
ATOM     22  C   UNL     1       2.636   7.951  17.851  0.00  0.00    +0.000 A 
ATOM     23  C   UNL     1       2.450   7.092  18.955  0.00  0.00    +0.000 A 
ATOM     24  C   UNL     1       2.826   5.739  19.246  0.00  0.00    +0.000 A 
ATOM     25  H   UNL     1       1.182   6.611  21.851  0.00  0.00    +0.000 HD
ENDBRANCH  14  24
ENDBRANCH   1  14
TORSDOF 7
ENDMDL
MODEL 2
REMARK VINA RESULT:      -7.4      2.876      6.914
REMARK  Name = 
REMARK  8 active torsions:
REMARK  status: ('A' for Active; 'I' for Inactive)
REMARK    1  A    between atoms: C_1  and  C_2
REMARK    2  A    between atoms: C_10  and  C_11
REMARK    3  A    between atoms: C_11  and  C_12
REMARK    4  A    between atoms: C_12  and  N_13
REMARK    5  A    between atoms: N_13  and  S_14
REMARK    6  A    between atoms: S_14  and  C_17
REMARK    7  A    between atoms: C_17  and  C_18
REMARK    8  A    between atoms: C_18  and  N_19
REMARK                            x       y       z     vdW  Elec       q    Type
REMARK                         _______ _______ _______ _____ _____    ______ ____
ROOT
ATOM      1  C   UNL     1       3.979   5.864  17.227  0.00  0.00    +0.000 C 
ENDROOT
BRANCH   1   2
ATOM      2  N   UNL     1       2.689   5.657  17.927  0.00  0.00    +0.000 NA
ATOM      3  H   UNL     1       2.292   4.722  17.794  0.00  0.00    +0.000 HD
BRANCH   2   4
ATOM      4  S   UNL     1       2.692   6.024  19.575  0.00  0.00    +0.000 S 
ATOM      5  O   UNL     1       3.999   5.648  20.067  0.00  0.00    +0.000 OA
ATOM      6  O   UNL     1       2.193   7.370  19.724  0.00  0.00    +0.000 OA
BRANCH   4   7
ATOM      7  C   UNL     1       1.497   4.881  20.241  0.00  0.00    +0.000 C 
BRANCH   7   8
ATOM      8  C   UNL     1       2.181   3.611  20.695  0.00  0.00    +0.000 C 
BRANCH   8   9
ATOM      9  N   UNL     1       2.560   2.779  19.582  0.00  0.00    +0.000 N 
ATOM     10  C   UNL     1       3.694   2.055  19.407  0.00  0.00    +0.000 A 
ATOM     11  N   UNL     1       3.622   1.459  18.238  0.00  0.00    +0.000 NA
ATOM     12  N   UNL     1       2.419   1.842  17.692  0.00  0.00    +0.000 NA
ATOM     13  N   UNL     1       1.766   2.658  18.509  0.00  0.00    +0.000 NA
ENDBRANCH   8   9
ENDBRANCH   7   8
ENDBRANCH   4   7
ENDBRANCH   2   4
ENDBRANCH   1   2
BRANCH   1  14
ATOM     14  C   UNL     1       4.524   4.555  16.655  0.00  0.00    +0.000 C 
BRANCH  14  24
ATOM     15  C   UNL     1       7.141   6.352  17.408  0.00  0.00    +0.000 C 
ATOM     16  C   UNL     1       6.826   5.610  16.159  0.00  0.00    +0.000 A 
ATOM     17  N   UNL     1       7.670   5.645  15.078  0.00  0.00    +0.000 N 
ATOM     18  C   UNL     1       7.149   4.925  14.031  0.00  0.00    +0.000 A 
ATOM     19  C   UNL     1       7.659   4.713  12.744  0.00  0.00    +0.000 A 
ATOM     20  C   UNL     1       6.896   3.942  11.864  0.00  0.00    +0.000 A 
ATOM     21  C   UNL     1       5.671   3.411  12.257  0.00  0.00    +0.000 A 
ATOM     22  C   UNL     1       5.176   3.632  13.548  0.00  0.00    +0.000 A 
ATOM     23  C   UNL     1       5.932   4.400  14.459  0.00  0.00    +0.000 A 
ATOM     24  C   UNL     1       5.734   4.829  15.813  0.00  0.00    +0.000 A 
ATOM     25  H   UNL     1       8.545   6.150  15.038  0.00  0.00    +0.000 HD
ENDBRANCH  14  24
ENDBRANCH   1  14
TORSDOF 7
ENDMDL
MODEL 3
REMARK VINA RESULT:      -7.4      2.867      7.355
REMARK  Name = 
REMARK  8 active torsions:
REMARK  status: ('A' for Active; 'I' for Inactive)
REMARK    1  A    between atoms: C_1  and  C_2
REMARK    2  A    between atoms: C_10  and  C_11
REMARK    3  A    between atoms: C_11  and  C_12
REMARK    4  A    between atoms: C_12  and  N_13
REMARK    5  A    between atoms: N_13  and  S_14
REMARK    6  A    between atoms: S_14  and  C_17
REMARK    7  A    between atoms: C_17  and  C_18
REMARK    8  A    between atoms: C_18  and  N_19
REMARK                            x       y       z     vdW  Elec       q    Type
REMARK                         _______ _______ _______ _____ _____    ______ ____
ROOT
ATOM      1  C   UNL     1       4.411   3.686  17.545  0.00  0.00    +0.000 C 
ENDROOT
BRANCH   1   2
ATOM      2  N   UNL     1       3.635   3.924  18.786  0.00  0.00    +0.000 NA
ATOM      3  H   UNL     1       3.512   4.916  19.013  0.00  0.00    +0.000 HD
BRANCH   2   4
ATOM      4  S   UNL     1       2.133   3.154  18.860  0.00  0.00    +0.000 S 
ATOM      5  O   UNL     1       1.541   3.304  17.549  0.00  0.00    +0.000 OA
ATOM      6  O   UNL     1       2.339   1.851  19.445  0.00  0.00    +0.000 OA
BRANCH   4   7
ATOM      7  C   UNL     1       1.220   4.170  20.003  0.00  0.00    +0.000 C 
BRANCH   7   8
ATOM      8  C   UNL     1       2.150   5.124  20.719  0.00  0.00    +0.000 C 
BRANCH   8   9
ATOM      9  N   UNL     1       1.999   6.477  20.246  0.00  0.00    +0.000 N 
ATOM     10  C   UNL     1       1.442   7.542  20.875  0.00  0.00    +0.000 A 
ATOM     11  N   UNL     1       1.506   8.575  20.065  0.00  0.00    +0.000 NA
ATOM     12  N   UNL     1       2.107   8.117  18.916  0.00  0.00    +0.000 NA
ATOM     13  N   UNL     1       2.405   6.828  19.018  0.00  0.00    +0.000 NA
ENDBRANCH   8   9
ENDBRANCH   7   8
ENDBRANCH   4   7
ENDBRANCH   2   4
ENDBRANCH   1   2
BRANCH   1  14
ATOM     14  C   UNL     1       4.309   4.870  16.583  0.00  0.00    +0.000 C 
BRANCH  14  24
ATOM     15  C   UNL     1       7.004   6.493  17.449  0.00  0.00    +0.000 C 
ATOM     16  C   UNL     1       6.714   5.726  16.209  0.00  0.00    +0.000 A 
ATOM     17  N   UNL     1       7.627   5.654  15.187  0.00  0.00    +0.000 N 
ATOM     18  C   UNL     1       7.121   4.933  14.133  0.00  0.00    +0.000 A 
ATOM     19  C   UNL     1       7.697   4.631  12.893  0.00  0.00    +0.000 A 
ATOM     20  C   UNL     1       6.935   3.884  11.991  0.00  0.00    +0.000 A 
ATOM     21  C   UNL     1       5.648   3.464  12.317  0.00  0.00    +0.000 A 
ATOM     22  C   UNL     1       5.089   3.774  13.563  0.00  0.00    +0.000 A 
ATOM     23  C   UNL     1       5.842   4.519  14.496  0.00  0.00    +0.000 A 
ATOM     24  C   UNL     1       5.589   5.017  15.816  0.00  0.00    +0.000 A 
ATOM     25  H   UNL     1       8.539   6.090  15.189  0.00  0.00    +0.000 HD
ENDBRANCH  14  24
ENDBRANCH   1  14
TORSDOF 7
ENDMDL
MODEL 4
REMARK VINA RESULT:      -7.3      1.422      1.640
REMARK  Name = 
REMARK  8 active torsions:
REMARK  status: ('A' for Active; 'I' for Inactive)
REMARK    1  A    between atoms: C_1  and  C_2
REMARK    2  A    between atoms: C_10  and  C_11
REMARK    3  A    between atoms: C_11  and  C_12
REMARK    4  A    between atoms: C_12  and  N_13
REMARK    5  A    between atoms: N_13  and  S_14
REMARK    6  A    between atoms: S_14  and  C_17
REMARK    7  A    between atoms: C_17  and  C_18
REMARK    8  A    between atoms: C_18  and  N_19
REMARK                            x       y       z     vdW  Elec       q    Type
REMARK                         _______ _______ _______ _____ _____    ______ ____
ROOT
ATOM      1  C   UNL     1       4.877   4.613  19.071  0.00  0.00    +0.000 C 
ENDROOT
BRANCH   1   2
ATOM      2  N   UNL     1       5.852   4.162  18.049  0.00  0.00    +0.000 NA
ATOM      3  H   UNL     1       5.488   4.183  17.092  0.00  0.00    +0.000 HD
BRANCH   2   4
ATOM      4  S   UNL     1       7.350   4.942  18.084  0.00  0.00    +0.000 S 
ATOM      5  O   UNL     1       7.565   5.334  19.459  0.00  0.00    +0.000 OA
ATOM      6  O   UNL     1       8.295   4.103  17.387  0.00  0.00    +0.000 OA
BRANCH   4   7
ATOM      7  C   UNL     1       7.056   6.414  17.124  0.00  0.00    +0.000 C 
BRANCH   7   8
ATOM      8  C   UNL     1       5.851   6.227  16.231  0.00  0.00    +0.000 C 
BRANCH   8   9
ATOM      9  N   UNL     1       6.122   5.315  15.148  0.00  0.00    +0.000 N 
ATOM     10  C   UNL     1       7.147   5.329  14.259  0.00  0.00    +0.000 A 
ATOM     11  N   UNL     1       6.988   4.315  13.437  0.00  0.00    +0.000 NA
ATOM     12  N   UNL     1       5.834   3.683  13.836  0.00  0.00    +0.000 NA
ATOM     13  N   UNL     1       5.294   4.295  14.881  0.00  0.00    +0.000 NA
ENDBRANCH   8   9
ENDBRANCH   7   8
ENDBRANCH   4   7
ENDBRANCH   2   4
ENDBRANCH   1   2
BRANCH   1  14
ATOM     14  C   UNL     1       3.514   4.919  18.449  0.00  0.00    +0.000 C 
BRANCH  14  24
ATOM     15  C   UNL     1       2.209   4.380  21.391  0.00  0.00    +0.000 C 
ATOM     16  C   UNL     1       2.206   5.614  20.562  0.00  0.00    +0.000 A 
ATOM     17  N   UNL     1       1.553   6.747  20.977  0.00  0.00    +0.000 N 
ATOM     18  C   UNL     1       1.650   7.737  20.029  0.00  0.00    +0.000 A 
ATOM     19  C   UNL     1       1.122   9.034  20.028  0.00  0.00    +0.000 A 
ATOM     20  C   UNL     1       1.366   9.831  18.907  0.00  0.00    +0.000 A 
ATOM     21  C   UNL     1       2.104   9.346  17.831  0.00  0.00    +0.000 A 
ATOM     22  C   UNL     1       2.626   8.046  17.850  0.00  0.00    +0.000 A 
ATOM     23  C   UNL     1       2.401   7.224  18.975  0.00  0.00    +0.000 A 
ATOM     24  C   UNL     1       2.759   5.879  19.319  0.00  0.00    +0.000 A 
ATOM     25  H   UNL     1       1.045   6.843  21.845  0.00  0.00    +0.000 HD
ENDBRANCH  14  24
ENDBRANCH   1  14
TORSDOF 7
ENDMDL
MODEL 5
REMARK VINA RESULT:      -7.3      1.398      3.041
REMARK  Name = 
REMARK  8 active torsions:
REMARK  status: ('A' for Active; 'I' for Inactive)
REMARK    1  A    between atoms: C_1  and  C_2
REMARK    2  A    between atoms: C_10  and  C_11
REMARK    3  A    between atoms: C_11  and  C_12
REMARK    4  A    between atoms: C_12  and  N_13
REMARK    5  A    between atoms: N_13  and  S_14
REMARK    6  A    between atoms: S_14  and  C_17
REMARK    7  A    between atoms: C_17  and  C_18
REMARK    8  A    between atoms: C_18  and  N_19
REMARK                            x       y       z     vdW  Elec       q    Type
REMARK                         _______ _______ _______ _____ _____    ______ ____
ROOT
ATOM      1  C   UNL     1       4.350   6.128  17.281  0.00  0.00    +0.000 C 
ENDROOT
BRANCH   1   2
ATOM      2  N   UNL     1       5.440   5.906  18.260  0.00  0.00    +0.000 NA
ATOM      3  H   UNL     1       5.427   4.976  18.690  0.00  0.00    +0.000 HD
BRANCH   2   4
ATOM      4  S   UNL     1       6.999   6.228  17.693  0.00  0.00    +0.000 S 
ATOM      5  O   UNL     1       6.857   7.270  16.701  0.00  0.00    +0.000 OA
ATOM      6  O   UNL     1       7.855   6.396  18.842  0.00  0.00    +0.000 OA
BRANCH   4   7
ATOM      7  C   UNL     1       7.438   4.717  16.854  0.00  0.00    +0.000 C 
BRANCH   7   8
ATOM      8  C   UNL     1       6.370   4.344  15.851  0.00  0.00    +0.000 C 
BRANCH   8   9
ATOM      9  N   UNL     1       6.815   4.546  14.495  0.00  0.00    +0.000 N 
ATOM     10  C   UNL     1       6.412   3.915  13.363  0.00  0.00    +0.000 A 
ATOM     11  N   UNL     1       7.096   4.408  12.355  0.00  0.00    +0.000 NA
ATOM     12  N   UNL     1       7.938   5.351  12.895  0.00  0.00    +0.000 NA
ATOM     13  N   UNL     1       7.776   5.436  14.209  0.00  0.00    +0.000 NA
ENDBRANCH   8   9
ENDBRANCH   7   8
ENDBRANCH   4   7
ENDBRANCH   2   4
ENDBRANCH   1   2
BRANCH   1  14
ATOM     14  C   UNL     1       3.192   6.912  17.899  0.00  0.00    +0.000 C 
BRANCH  14  24
ATOM     15  C   UNL     1       1.872   7.723  20.771  0.00  0.00    +0.000 C 
ATOM     16  C   UNL     1       1.895   6.411  20.073  0.00  0.00    +0.000 A 
ATOM     17  N   UNL     1       1.344   5.292  20.645  0.00  0.00    +0.000 N 
ATOM     18  C   UNL     1       1.526   4.195  19.837  0.00  0.00    +0.000 A 
ATOM     19  C   UNL     1       1.147   2.861  20.036  0.00  0.00    +0.000 A 
ATOM     20  C   UNL     1       1.482   1.939  19.041  0.00  0.00    +0.000 A 
ATOM     21  C   UNL     1       2.172   2.337  17.900  0.00  0.00    +0.000 A 
ATOM     22  C   UNL     1       2.542   3.675  17.718  0.00  0.00    +0.000 A 
ATOM     23  C   UNL     1       2.207   4.628  18.703  0.00  0.00    +0.000 A 
ATOM     24  C   UNL     1       2.433   6.036  18.851  0.00  0.00    +0.000 A 
ATOM     25  H   UNL     1       0.889   5.261  21.546  0.00  0.00    +0.000 HD
ENDBRANCH  14  24
ENDBRANCH   1  14
TORSDOF 7
ENDMDL
MODEL 6
REMARK VINA RESULT:      -7.3      1.261      3.172
REMARK  Name = 
REMARK  8 active torsions:
REMARK  status: ('A' for Active; 'I' for Inactive)
REMARK    1  A    between atoms: C_1  and  C_2
REMARK    2  A    between atoms: C_10  and  C_11
REMARK    3  A    between atoms: C_11  and  C_12
REMARK    4  A    between atoms: C_12  and  N_13
REMARK    5  A    between atoms: N_13  and  S_14
REMARK    6  A    between atoms: S_14  and  C_17
REMARK    7  A    between atoms: C_17  and  C_18
REMARK    8  A    between atoms: C_18  and  N_19
REMARK                            x       y       z     vdW  Elec       q    Type
REMARK                         _______ _______ _______ _____ _____    ______ ____
ROOT
ATOM      1  C   UNL     1       3.849   7.029  17.484  0.00  0.00    +0.000 C 
ENDROOT
BRANCH   1   2
ATOM      2  N   UNL     1       4.734   5.899  17.114  0.00  0.00    +0.000 NA
ATOM      3  H   UNL     1       4.918   5.830  16.109  0.00  0.00    +0.000 HD
BRANCH   2   4
ATOM      4  S   UNL     1       6.202   5.827  17.947  0.00  0.00    +0.000 S 
ATOM      5  O   UNL     1       6.880   7.075  17.673  0.00  0.00    +0.000 OA
ATOM      6  O   UNL     1       5.918   5.409  19.298  0.00  0.00    +0.000 OA
BRANCH   4   7
ATOM      7  C   UNL     1       7.076   4.523  17.103  0.00  0.00    +0.000 C 
BRANCH   7   8
ATOM      8  C   UNL     1       6.279   4.041  15.912  0.00  0.00    +0.000 C 
BRANCH   8   9
ATOM      9  N   UNL     1       6.853   4.485  14.667  0.00  0.00    +0.000 N 
ATOM     10  C   UNL     1       6.608   4.041  13.409  0.00  0.00    +0.000 A 
ATOM     11  N   UNL     1       7.368   4.722  12.580  0.00  0.00    +0.000 NA
ATOM     12  N   UNL     1       8.094   5.590  13.360  0.00  0.00    +0.000 NA
ATOM     13  N   UNL     1       7.788   5.446  14.643  0.00  0.00    +0.000 NA
ENDBRANCH   8   9
ENDBRANCH   7   8
ENDBRANCH   4   7
ENDBRANCH   2   4
ENDBRANCH   1   2
BRANCH   1  14
ATOM     14  C   UNL     1       2.406   6.567  17.690  0.00  0.00    +0.000 C 
BRANCH  14  24
ATOM     15  C   UNL     1       1.757   8.342  20.350  0.00  0.00    +0.000 C 
ATOM     16  C   UNL     1       1.954   6.875  20.211  0.00  0.00    +0.000 A 
ATOM     17  N   UNL     1       1.919   6.046  21.305  0.00  0.00    +0.000 N 
ATOM     18  C   UNL     1       2.172   4.747  20.938  0.00  0.00    +0.000 A 
ATOM     19  C   UNL     1       2.253   3.591  21.724  0.00  0.00    +0.000 A 
ATOM     20  C   UNL     1       2.547   2.388  21.077  0.00  0.00    +0.000 A 
ATOM     21  C   UNL     1       2.755   2.348  19.701  0.00  0.00    +0.000 A 
ATOM     22  C   UNL     1       2.668   3.513  18.930  0.00  0.00    +0.000 A 
ATOM     23  C   UNL     1       2.364   4.740  19.558  0.00  0.00    +0.000 A 
ATOM     24  C   UNL     1       2.217   6.090  19.099  0.00  0.00    +0.000 A 
ATOM     25  H   UNL     1       1.758   6.344  22.257  0.00  0.00    +0.000 HD
ENDBRANCH  14  24
ENDBRANCH   1  14
TORSDOF 7
ENDMDL
MODEL 7
REMARK VINA RESULT:      -7.1      2.570      3.713
REMARK  Name = 
REMARK  8 active torsions:
REMARK  status: ('A' for Active; 'I' for Inactive)
REMARK    1  A    between atoms: C_1  and  C_2
REMARK    2  A    between atoms: C_10  and  C_11
REMARK    3  A    between atoms: C_11  and  C_12
REMARK    4  A    between atoms: C_12  and  N_13
REMARK    5  A    between atoms: N_13  and  S_14
REMARK    6  A    between atoms: S_14  and  C_17
REMARK    7  A    between atoms: C_17  and  C_18
REMARK    8  A    between atoms: C_18  and  N_19
REMARK                            x       y       z     vdW  Elec       q    Type
REMARK                         _______ _______ _______ _____ _____    ______ ____
ROOT
ATOM      1  C   UNL     1       2.355   4.900  19.558  0.00  0.00    +0.000 C 
ENDROOT
BRANCH   1   2
ATOM      2  N   UNL     1       2.891   3.699  20.242  0.00  0.00    +0.000 NA
ATOM      3  H   UNL     1       2.180   3.155  20.740  0.00  0.00    +0.000 HD
BRANCH   2   4
ATOM      4  S   UNL     1       3.799   2.657  19.271  0.00  0.00    +0.000 S 
ATOM      5  O   UNL     1       4.896   2.199  20.092  0.00  0.00    +0.000 OA
ATOM      6  O   UNL     1       2.884   1.728  18.653  0.00  0.00    +0.000 OA
BRANCH   4   7
ATOM      7  C   UNL     1       4.455   3.747  18.022  0.00  0.00    +0.000 C 
BRANCH   7   8
ATOM      8  C   UNL     1       5.762   4.350  18.485  0.00  0.00    +0.000 C 
BRANCH   8   9
ATOM      9  N   UNL     1       6.465   4.998  17.406  0.00  0.00    +0.000 N 
ATOM     10  C   UNL     1       6.703   4.543  16.151  0.00  0.00    +0.000 A 
ATOM     11  N   UNL     1       7.395   5.459  15.509  0.00  0.00    +0.000 NA
ATOM     12  N   UNL     1       7.584   6.485  16.404  0.00  0.00    +0.000 NA
ATOM     13  N   UNL     1       7.023   6.206  17.573  0.00  0.00    +0.000 NA
ENDBRANCH   8   9
ENDBRANCH   7   8
ENDBRANCH   4   7
ENDBRANCH   2   4
ENDBRANCH   1   2
BRANCH   1  14
ATOM     14  C   UNL     1       2.868   6.189  20.202  0.00  0.00    +0.000 C 
BRANCH  14  24
ATOM     15  C   UNL     1       3.627   7.252  17.212  0.00  0.00    +0.000 C 
ATOM     16  C   UNL     1       2.672   7.811  18.205  0.00  0.00    +0.000 A 
ATOM     17  N   UNL     1       1.979   8.967  17.952  0.00  0.00    +0.000 N 
ATOM     18  C   UNL     1       1.197   9.310  19.029  0.00  0.00    +0.000 A 
ATOM     19  C   UNL     1       0.351  10.412  19.210  0.00  0.00    +0.000 A 
ATOM     20  C   UNL     1      -0.317  10.519  20.432  0.00  0.00    +0.000 A 
ATOM     21  C   UNL     1      -0.141   9.566  21.430  0.00  0.00    +0.000 A 
ATOM     22  C   UNL     1       0.708   8.470  21.231  0.00  0.00    +0.000 A 
ATOM     23  C   UNL     1       1.388   8.333  20.002  0.00  0.00    +0.000 A 
ATOM     24  C   UNL     1       2.318   7.378  19.474  0.00  0.00    +0.000 A 
ATOM     25  H   UNL     1       2.046   9.514  17.104  0.00  0.00    +0.000 HD
ENDBRANCH  14  24
ENDBRANCH   1  14
TORSDOF 7
ENDMDL
MODEL 8
REMARK VINA RESULT:      -7.1      3.792      4.949
REMARK  Name = 
REMARK  8 active torsions:
REMARK  status: ('A' for Active; 'I' for Inactive)
REMARK    1  A    between atoms: C_1  and  C_2
REMARK    2  A    between atoms: C_10  and  C_11
REMARK    3  A    between atoms: C_11  and  C_12
REMARK    4  A    between atoms: C_12  and  N_13
REMARK    5  A    between atoms: N_13  and  S_14
REMARK    6  A    between atoms: S_14  and  C_17
REMARK    7  A    between atoms: C_17  and  C_18
REMARK    8  A    between atoms: C_18  and  N_19
REMARK                            x       y       z     vdW  Elec       q    Type
REMARK                         _______ _______ _______ _____ _____    ______ ____
ROOT
ATOM      1  C   UNL     1       1.517   5.306  20.487  0.00  0.00    +0.000 C 
ENDROOT
BRANCH   1   2
ATOM      2  N   UNL     1       1.429   4.418  19.303  0.00  0.00    +0.000 NA
ATOM      3  H   UNL     1       2.179   4.564  18.621  0.00  0.00    +0.000 HD
BRANCH   2   4
ATOM      4  S   UNL     1       1.308   2.768  19.643  0.00  0.00    +0.000 S 
ATOM      5  O   UNL     1       1.117   2.666  21.072  0.00  0.00    +0.000 OA
ATOM      6  O   UNL     1       0.358   2.201  18.716  0.00  0.00    +0.000 OA
BRANCH   4   7
ATOM      7  C   UNL     1       2.937   2.160  19.254  0.00  0.00    +0.000 C 
BRANCH   7   8
ATOM      8  C   UNL     1       3.451   2.805  17.986  0.00  0.00    +0.000 C 
BRANCH   8   9
ATOM      9  N   UNL     1       4.475   3.782  18.259  0.00  0.00    +0.000 N 
ATOM     10  C   UNL     1       4.818   4.880  17.541  0.00  0.00    +0.000 A 
ATOM     11  N   UNL     1       5.818   5.474  18.154  0.00  0.00    +0.000 NA
ATOM     12  N   UNL     1       6.089   4.708  19.263  0.00  0.00    +0.000 NA
ATOM     13  N   UNL     1       5.274   3.663  19.330  0.00  0.00    +0.000 NA
ENDBRANCH   8   9
ENDBRANCH   7   8
ENDBRANCH   4   7
ENDBRANCH   2   4
ENDBRANCH   1   2
BRANCH   1  14
ATOM     14  C   UNL     1       2.586   6.383  20.303  0.00  0.00    +0.000 C 
BRANCH  14  24
ATOM     15  C   UNL     1       2.788   7.945  17.445  0.00  0.00    +0.000 C 
ATOM     16  C   UNL     1       2.060   8.323  18.685  0.00  0.00    +0.000 A 
ATOM     17  N   UNL     1       1.366   9.504  18.770  0.00  0.00    +0.000 N 
ATOM     18  C   UNL     1       0.817   9.655  20.020  0.00  0.00    +0.000 A 
ATOM     19  C   UNL     1       0.056  10.707  20.545  0.00  0.00    +0.000 A 
ATOM     20  C   UNL     1      -0.361  10.602  21.874  0.00  0.00    +0.000 A 
ATOM     21  C   UNL     1      -0.026   9.492  22.644  0.00  0.00    +0.000 A 
ATOM     22  C   UNL     1       0.735   8.449  22.102  0.00  0.00    +0.000 A 
ATOM     23  C   UNL     1       1.161   8.526  20.759  0.00  0.00    +0.000 A 
ATOM     24  C   UNL     1       1.943   7.679  19.907  0.00  0.00    +0.000 A 
ATOM     25  H   UNL     1       1.286  10.188  18.030  0.00  0.00    +0.000 HD
ENDBRANCH  14  24
ENDBRANCH   1  14
TORSDOF 7
ENDMDL
MODEL 9
REMARK VINA RESULT:      -7.1      3.019      6.941
REMARK  Name = 
REMARK  8 active torsions:
REMARK  status: ('A' for Active; 'I' for Inactive)
REMARK    1  A    between atoms: C_1  and  C_2
REMARK    2  A    between atoms: C_10  and  C_11
REMARK    3  A    between atoms: C_11  and  C_12
REMARK    4  A    between atoms: C_12  and  N_13
REMARK    5  A    between atoms: N_13  and  S_14
REMARK    6  A    between atoms: S_14  and  C_17
REMARK    7  A    between atoms: C_17  and  C_18
REMARK    8  A    between atoms: C_18  and  N_19
REMARK                            x       y       z     vdW  Elec       q    Type
REMARK                         _______ _______ _______ _____ _____    ______ ____
ROOT
ATOM      1  C   UNL     1       3.890   4.870  16.843  0.00  0.00    +0.000 C 
ENDROOT
BRANCH   1   2
ATOM      2  N   UNL     1       4.011   5.795  17.995  0.00  0.00    +0.000 NA
ATOM      3  H   UNL     1       4.566   6.633  17.796  0.00  0.00    +0.000 HD
BRANCH   2   4
ATOM      4  S   UNL     1       2.552   6.259  18.707  0.00  0.00    +0.000 S 
ATOM      5  O   UNL     1       2.784   6.259  20.134  0.00  0.00    +0.000 OA
ATOM      6  O   UNL     1       2.089   7.443  18.023  0.00  0.00    +0.000 OA
BRANCH   4   7
ATOM      7  C   UNL     1       1.468   4.899  18.319  0.00  0.00    +0.000 C 
BRANCH   7   8
ATOM      8  C   UNL     1       1.443   3.905  19.458  0.00  0.00    +0.000 C 
BRANCH   8   9
ATOM      9  N   UNL     1       2.485   2.917  19.331  0.00  0.00    +0.000 N 
ATOM     10  C   UNL     1       2.548   1.848  18.498  0.00  0.00    +0.000 A 
ATOM     11  N   UNL     1       3.673   1.211  18.735  0.00  0.00    +0.000 NA
ATOM     12  N   UNL     1       4.298   1.910  19.741  0.00  0.00    +0.000 NA
ATOM     13  N   UNL     1       3.570   2.954  20.116  0.00  0.00    +0.000 NA
ENDBRANCH   8   9
ENDBRANCH   7   8
ENDBRANCH   4   7
ENDBRANCH   2   4
ENDBRANCH   1   2
BRANCH   1  14
ATOM     14  C   UNL     1       5.075   3.907  16.770  0.00  0.00    +0.000 C 
BRANCH  14  24
ATOM     15  C   UNL     1       7.420   6.067  17.465  0.00  0.00    +0.000 C 
ATOM     16  C   UNL     1       7.105   5.388  16.181  0.00  0.00    +0.000 A 
ATOM     17  N   UNL     1       7.814   5.662  15.038  0.00  0.00    +0.000 N 
ATOM     18  C   UNL     1       7.313   4.952  13.974  0.00  0.00    +0.000 A 
ATOM     19  C   UNL     1       7.715   4.942  12.633  0.00  0.00    +0.000 A 
ATOM     20  C   UNL     1       7.003   4.124  11.751  0.00  0.00    +0.000 A 
ATOM     21  C   UNL     1       5.931   3.355  12.195  0.00  0.00    +0.000 A 
ATOM     22  C   UNL     1       5.544   3.377  13.540  0.00  0.00    +0.000 A 
ATOM     23  C   UNL     1       6.253   4.187  14.453  0.00  0.00    +0.000 A 
ATOM     24  C   UNL     1       6.128   4.459  15.856  0.00  0.00    +0.000 A 
ATOM     25  H   UNL     1       8.582   6.315  14.972  0.00  0.00    +0.000 HD
ENDBRANCH  14  24
ENDBRANCH   1  14
TORSDOF 7
ENDMDL
