MODEL 1
REMARK VINA RESULT:      -7.7      0.000      0.000
REMARK  Name = 
REMARK  10 active torsions:
REMARK  status: ('A' for Active; 'I' for Inactive)
REMARK    1  A    between atoms: C_1  and  O_2
REMARK    2  A    between atoms: O_2  and  C_3
REMARK    3  A    between atoms: C_6  and  N_7
REMARK    4  A    between atoms: C_8  and  C_10
REMARK    5  A    between atoms: C_12  and  N_13
REMARK    6  A    between atoms: C_14  and  C_16
REMARK    7  A    between atoms: C_16  and  N_17
REMARK    8  A    between atoms: N_22  and  C_23
REMARK    9  A    between atoms: C_23  and  C_24
REMARK   10  A    between atoms: C_27  and  C_28
REMARK                            x       y       z     vdW  Elec       q    Type
REMARK                         _______ _______ _______ _____ _____    ______ ____
ROOT
ATOM      1  C   UNL     1       1.084  10.205  18.759  0.00  0.00    +0.000 A 
ATOM      2  C   UNL     1       2.021  11.264  18.481  0.00  0.00    +0.000 A 
ATOM      3  C   UNL     1       1.649  12.536  18.286  0.00  0.00    +0.000 A 
ATOM      4  C   UNL     1       0.179  12.879  18.405  0.00  0.00    +0.000 A 
ATOM      5  O   UNL     1      -0.173  14.050  18.263  0.00  0.00    +0.000 OA
ATOM      6  N   UNL     1      -0.684  11.810  18.668  0.00  0.00    +0.000 N 
ATOM      7  C   UNL     1      -0.220  10.512  18.851  0.00  0.00    +0.000 A 
ENDROOT
BRANCH   1   9
ATOM      8  N   UNL     1       1.915   8.038  17.986  0.00  0.00    +0.000 N 
ATOM      9  C   UNL     1       1.513   8.795  19.077  0.00  0.00    +0.000 C 
ATOM     10  O   UNL     1       1.480   8.417  20.244  0.00  0.00    +0.000 OA
ATOM     11  H   UNL     1       1.759   8.408  17.058  0.00  0.00    +0.000 HD
BRANCH   8  15
ATOM     12  C   UNL     1       3.932   4.313  18.084  0.00  0.00    +0.000 A 
ATOM     13  C   UNL     1       2.573   4.375  18.381  0.00  0.00    +0.000 A 
ATOM     14  C   UNL     1       1.888   5.591  18.344  0.00  0.00    +0.000 A 
ATOM     15  C   UNL     1       2.551   6.774  18.021  0.00  0.00    +0.000 A 
ATOM     16  C   UNL     1       3.927   6.715  17.753  0.00  0.00    +0.000 A 
ATOM     17  C   UNL     1       4.615   5.489  17.782  0.00  0.00    +0.000 A 
BRANCH  12  19
ATOM     18  C   UNL     1       3.588   1.978  17.972  0.00  0.00    +0.000 C 
ATOM     19  O   UNL     1       4.482   3.066  18.169  0.00  0.00    +0.000 OA
ENDBRANCH  12  19
ENDBRANCH   8  15
ENDBRANCH   1   9
BRANCH   3  20
ATOM     20  N   UNL     1       2.529  13.569  18.006  0.00  0.00    +0.000 N 
ATOM     21  C   UNL     1       3.271  14.270  18.936  0.00  0.00    +0.000 C 
ATOM     22  O   UNL     1       3.333  14.035  20.133  0.00  0.00    +0.000 OA
ATOM     23  H   UNL     1       2.658  13.781  17.019  0.00  0.00    +0.000 HD
BRANCH  21  24
ATOM     24  C   UNL     1       4.144  15.370  18.396  0.00  0.00    +0.000 C 
ATOM     25  C   UNL     1       5.392  15.867  19.078  0.00  0.00    +0.000 C 
ATOM     26  C   UNL     1       5.514  14.916  17.927  0.00  0.00    +0.000 C 
BRANCH  24  27
ATOM     27  N   UNL     1       3.401  16.310  17.532  0.00  0.00    +0.000 NA
ATOM     28  H   UNL     1       2.773  15.800  16.911  0.00  0.00    +0.000 HD
ATOM     29  H   UNL     1       4.074  16.767  16.910  0.00  0.00    +0.000 HD
ENDBRANCH  24  27
ENDBRANCH  21  24
ENDBRANCH   3  20
BRANCH   6  30
ATOM     30  C   UNL     1      -2.120  12.069  18.774  0.00  0.00    +0.000 C 
BRANCH  30  31
ATOM     31  C   UNL     1      -2.587  12.358  20.185  0.00  0.00    +0.000 A 
ATOM     32  C   UNL     1      -3.927  12.682  20.434  0.00  0.00    +0.000 A 
ATOM     33  C   UNL     1      -4.393  12.865  21.742  0.00  0.00    +0.000 A 
ATOM     34  C   UNL     1      -3.520  12.727  22.826  0.00  0.00    +0.000 A 
ATOM     35  C   UNL     1      -2.169  12.451  22.577  0.00  0.00    +0.000 A 
ATOM     36  C   UNL     1      -1.704  12.273  21.270  0.00  0.00    +0.000 A 
BRANCH  34  37
ATOM     37  C   UNL     1      -3.960  12.829  24.250  0.00  0.00    +0.000 C 
ATOM     38  N   UNL     1      -4.879  11.934  24.722  0.00  0.00    +0.000 N 
ATOM     39  O   UNL     1      -3.500  13.681  25.003  0.00  0.00    +0.000 OA
ATOM     40  H   UNL     1      -5.288  11.183  24.192  0.00  0.00    +0.000 HD
ATOM     41  H   UNL     1      -5.124  12.012  25.700  0.00  0.00    +0.000 HD
ENDBRANCH  34  37
ENDBRANCH  30  31
ENDBRANCH   6  30
TORSDOF 9
ENDMDL
MODEL 2
REMARK VINA RESULT:      -7.5      1.130      1.362
REMARK  Name = 
REMARK  10 active torsions:
REMARK  status: ('A' for Active; 'I' for Inactive)
REMARK    1  A    between atoms: C_1  and  O_2
REMARK    2  A    between atoms: O_2  and  C_3
REMARK    3  A    between atoms: C_6  and  N_7
REMARK    4  A    between atoms: C_8  and  C_10
REMARK    5  A    between atoms: C_12  and  N_13
REMARK    6  A    between atoms: C_14  and  C_16
REMARK    7  A    between atoms: C_16  and  N_17
REMARK    8  A    between atoms: N_22  and  C_23
REMARK    9  A    between atoms: C_23  and  C_24
REMARK   10  A    between atoms: C_27  and  C_28
REMARK                            x       y       z     vdW  Elec       q    Type
REMARK                         _______ _______ _______ _____ _____    ______ ____
ROOT
ATOM      1  C   UNL     1       1.185  10.090  18.868  0.00  0.00    +0.000 A 
ATOM      2  C   UNL     1       2.108  11.102  18.420  0.00  0.00    +0.000 A 
ATOM      3  C   UNL     1       1.775  12.393  18.297  0.00  0.00    +0.000 A 
ATOM      4  C   UNL     1       0.374  12.811  18.690  0.00  0.00    +0.000 A 
ATOM      5  O   UNL     1       0.064  14.001  18.616  0.00  0.00    +0.000 OA
ATOM      6  N   UNL     1      -0.480  11.787  19.111  0.00  0.00    +0.000 N 
ATOM      7  C   UNL     1      -0.060  10.464  19.203  0.00  0.00    +0.000 A 
ENDROOT
BRANCH   1   9
ATOM      8  N   UNL     1       1.960   7.954  17.963  0.00  0.00    +0.000 N 
ATOM      9  C   UNL     1       1.590   8.656  19.101  0.00  0.00    +0.000 C 
ATOM     10  O   UNL     1       1.567   8.215  20.246  0.00  0.00    +0.000 OA
ATOM     11  H   UNL     1       1.796   8.378  17.059  0.00  0.00    +0.000 HD
BRANCH   8  15
ATOM     12  C   UNL     1       3.902   4.191  17.824  0.00  0.00    +0.000 A 
ATOM     13  C   UNL     1       2.541   4.260  18.110  0.00  0.00    +0.000 A 
ATOM     14  C   UNL     1       1.880   5.490  18.150  0.00  0.00    +0.000 A 
ATOM     15  C   UNL     1       2.570   6.678  17.918  0.00  0.00    +0.000 A 
ATOM     16  C   UNL     1       3.948   6.610  17.661  0.00  0.00    +0.000 A 
ATOM     17  C   UNL     1       4.612   5.371  17.612  0.00  0.00    +0.000 A 
BRANCH  12  19
ATOM     18  C   UNL     1       3.497   1.872  18.026  0.00  0.00    +0.000 C 
ATOM     19  O   UNL     1       4.426   2.930  17.829  0.00  0.00    +0.000 OA
ENDBRANCH  12  19
ENDBRANCH   8  15
ENDBRANCH   1   9
BRANCH   3  20
ATOM     20  N   UNL     1       2.641  13.381  17.858  0.00  0.00    +0.000 N 
ATOM     21  C   UNL     1       3.428  14.181  18.663  0.00  0.00    +0.000 C 
ATOM     22  O   UNL     1       3.548  14.086  19.875  0.00  0.00    +0.000 OA
ATOM     23  H   UNL     1       2.723  13.476  16.847  0.00  0.00    +0.000 HD
BRANCH  21  24
ATOM     24  C   UNL     1       4.274  15.206  17.958  0.00  0.00    +0.000 C 
ATOM     25  C   UNL     1       5.343  16.024  18.633  0.00  0.00    +0.000 C 
ATOM     26  C   UNL     1       5.738  14.829  17.821  0.00  0.00    +0.000 C 
BRANCH  24  27
ATOM     27  N   UNL     1       3.601  15.779  16.774  0.00  0.00    +0.000 NA
ATOM     28  H   UNL     1       3.712  15.162  15.969  0.00  0.00    +0.000 HD
ATOM     29  H   UNL     1       4.091  16.639  16.517  0.00  0.00    +0.000 HD
ENDBRANCH  24  27
ENDBRANCH  21  24
ENDBRANCH   3  20
BRANCH   6  30
ATOM     30  C   UNL     1      -1.855  12.120  19.483  0.00  0.00    +0.000 C 
BRANCH  30  31
ATOM     31  C   UNL     1      -1.982  12.746  20.856  0.00  0.00    +0.000 A 
ATOM     32  C   UNL     1      -1.424  12.116  21.976  0.00  0.00    +0.000 A 
ATOM     33  C   UNL     1      -1.456  12.725  23.236  0.00  0.00    +0.000 A 
ATOM     34  C   UNL     1      -2.053  13.980  23.397  0.00  0.00    +0.000 A 
ATOM     35  C   UNL     1      -2.655  14.591  22.289  0.00  0.00    +0.000 A 
ATOM     36  C   UNL     1      -2.625  13.979  21.031  0.00  0.00    +0.000 A 
BRANCH  34  37
ATOM     37  C   UNL     1      -2.056  14.726  24.691  0.00  0.00    +0.000 C 
ATOM     38  N   UNL     1      -3.243  14.911  25.342  0.00  0.00    +0.000 N 
ATOM     39  O   UNL     1      -1.019  15.154  25.186  0.00  0.00    +0.000 OA
ATOM     40  H   UNL     1      -4.138  14.572  25.033  0.00  0.00    +0.000 HD
ATOM     41  H   UNL     1      -3.200  15.388  26.233  0.00  0.00    +0.000 HD
ENDBRANCH  34  37
ENDBRANCH  30  31
ENDBRANCH   6  30
TORSDOF 9
ENDMDL
MODEL 3
REMARK VINA RESULT:      -7.4      1.382      1.695
REMARK  Name = 
REMARK  10 active torsions:
REMARK  status: ('A' for Active; 'I' for Inactive)
REMARK    1  A    between atoms: C_1  and  O_2
REMARK    2  A    between atoms: O_2  and  C_3
REMARK    3  A    between atoms: C_6  and  N_7
REMARK    4  A    between atoms: C_8  and  C_10
REMARK    5  A    between atoms: C_12  and  N_13
REMARK    6  A    between atoms: C_14  and  C_16
REMARK    7  A    between atoms: C_16  and  N_17
REMARK    8  A    between atoms: N_22  and  C_23
REMARK    9  A    between atoms: C_23  and  C_24
REMARK   10  A    between atoms: C_27  and  C_28
REMARK                            x       y       z     vdW  Elec       q    Type
REMARK                         _______ _______ _______ _____ _____    ______ ____
ROOT
ATOM      1  C   UNL     1       1.399  10.295  18.347  0.00  0.00    +0.000 A 
ATOM      2  C   UNL     1       2.214  11.483  18.341  0.00  0.00    +0.000 A 
ATOM      3  C   UNL     1       1.711  12.716  18.485  0.00  0.00    +0.000 A 
ATOM      4  C   UNL     1       0.220  12.859  18.705  0.00  0.00    +0.000 A 
ATOM      5  O   UNL     1      -0.252  13.984  18.874  0.00  0.00    +0.000 OA
ATOM      6  N   UNL     1      -0.522  11.674  18.694  0.00  0.00    +0.000 N 
ATOM      7  C   UNL     1       0.076  10.428  18.530  0.00  0.00    +0.000 A 
ENDROOT
BRANCH   1   9
ATOM      8  N   UNL     1       1.982   8.212  19.489  0.00  0.00    +0.000 N 
ATOM      9  C   UNL     1       1.977   8.904  18.286  0.00  0.00    +0.000 C 
ATOM     10  O   UNL     1       2.393   8.484  17.211  0.00  0.00    +0.000 OA
ATOM     11  H   UNL     1       1.751   8.714  20.336  0.00  0.00    +0.000 HD
BRANCH   8  15
ATOM     12  C   UNL     1       2.743   4.091  20.115  0.00  0.00    +0.000 A 
ATOM     13  C   UNL     1       3.464   4.792  19.152  0.00  0.00    +0.000 A 
ATOM     14  C   UNL     1       3.236   6.153  18.938  0.00  0.00    +0.000 A 
ATOM     15  C   UNL     1       2.272   6.839  19.674  0.00  0.00    +0.000 A 
ATOM     16  C   UNL     1       1.523   6.124  20.622  0.00  0.00    +0.000 A 
ATOM     17  C   UNL     1       1.759   4.756  20.843  0.00  0.00    +0.000 A 
BRANCH  12  19
ATOM     18  C   UNL     1       4.407   2.423  19.937  0.00  0.00    +0.000 C 
ATOM     19  O   UNL     1       3.055   2.766  20.213  0.00  0.00    +0.000 OA
ENDBRANCH  12  19
ENDBRANCH   8  15
ENDBRANCH   1   9
BRANCH   3  20
ATOM     20  N   UNL     1       2.472  13.873  18.471  0.00  0.00    +0.000 N 
ATOM     21  C   UNL     1       3.145  14.409  19.552  0.00  0.00    +0.000 C 
ATOM     22  O   UNL     1       3.243  13.906  20.661  0.00  0.00    +0.000 OA
ATOM     23  H   UNL     1       2.569  14.325  17.564  0.00  0.00    +0.000 HD
BRANCH  21  24
ATOM     24  C   UNL     1       3.890  15.692  19.301  0.00  0.00    +0.000 C 
ATOM     25  C   UNL     1       3.625  16.605  18.133  0.00  0.00    +0.000 C 
ATOM     26  C   UNL     1       3.057  16.949  19.476  0.00  0.00    +0.000 C 
BRANCH  24  27
ATOM     27  N   UNL     1       5.247  15.683  19.884  0.00  0.00    +0.000 NA
ATOM     28  H   UNL     1       5.256  16.186  20.772  0.00  0.00    +0.000 HD
ATOM     29  H   UNL     1       5.860  16.223  19.268  0.00  0.00    +0.000 HD
ENDBRANCH  24  27
ENDBRANCH  21  24
ENDBRANCH   3  20
BRANCH   6  30
ATOM     30  C   UNL     1      -1.971  11.744  18.879  0.00  0.00    +0.000 C 
BRANCH  30  31
ATOM     31  C   UNL     1      -2.390  12.174  20.269  0.00  0.00    +0.000 A 
ATOM     32  C   UNL     1      -3.525  12.975  20.449  0.00  0.00    +0.000 A 
ATOM     33  C   UNL     1      -3.976  13.307  21.733  0.00  0.00    +0.000 A 
ATOM     34  C   UNL     1      -3.292  12.844  22.862  0.00  0.00    +0.000 A 
ATOM     35  C   UNL     1      -2.127  12.084  22.684  0.00  0.00    +0.000 A 
ATOM     36  C   UNL     1      -1.676  11.755  21.401  0.00  0.00    +0.000 A 
BRANCH  34  37
ATOM     37  C   UNL     1      -3.755  13.091  24.260  0.00  0.00    +0.000 C 
ATOM     38  N   UNL     1      -4.651  12.224  24.820  0.00  0.00    +0.000 N 
ATOM     39  O   UNL     1      -3.335  14.038  24.916  0.00  0.00    +0.000 OA
ATOM     40  H   UNL     1      -5.027  11.404  24.375  0.00  0.00    +0.000 HD
ATOM     41  H   UNL     1      -4.913  12.403  25.781  0.00  0.00    +0.000 HD
ENDBRANCH  34  37
ENDBRANCH  30  31
ENDBRANCH   6  30
TORSDOF 9
ENDMDL
MODEL 4
REMARK VINA RESULT:      -7.4      0.952      1.286
REMARK  Name = 
REMARK  10 active torsions:
REMARK  status: ('A' for Active; 'I' for Inactive)
REMARK    1  A    between atoms: C_1  and  O_2
REMARK    2  A    between atoms: O_2  and  C_3
REMARK    3  A    between atoms: C_6  and  N_7
REMARK    4  A    between atoms: C_8  and  C_10
REMARK    5  A    between atoms: C_12  and  N_13
REMARK    6  A    between atoms: C_14  and  C_16
REMARK    7  A    between atoms: C_16  and  N_17
REMARK    8  A    between atoms: N_22  and  C_23
REMARK    9  A    between atoms: C_23  and  C_24
REMARK   10  A    between atoms: C_27  and  C_28
REMARK                            x       y       z     vdW  Elec       q    Type
REMARK                         _______ _______ _______ _____ _____    ______ ____
ROOT
ATOM      1  C   UNL     1       1.066  10.598  18.725  0.00  0.00    +0.000 A 
ATOM      2  C   UNL     1       1.931  11.739  18.563  0.00  0.00    +0.000 A 
ATOM      3  C   UNL     1       1.479  12.998  18.512  0.00  0.00    +0.000 A 
ATOM      4  C   UNL     1      -0.009  13.231  18.676  0.00  0.00    +0.000 A 
ATOM      5  O   UNL     1      -0.435  14.386  18.667  0.00  0.00    +0.000 OA
ATOM      6  N   UNL     1      -0.800  12.088  18.823  0.00  0.00    +0.000 N 
ATOM      7  C   UNL     1      -0.254  10.809  18.858  0.00  0.00    +0.000 A 
ENDROOT
BRANCH   1   9
ATOM      8  N   UNL     1       2.139   8.634  17.738  0.00  0.00    +0.000 N 
ATOM      9  C   UNL     1       1.585   9.191  18.882  0.00  0.00    +0.000 C 
ATOM     10  O   UNL     1       1.489   8.645  19.977  0.00  0.00    +0.000 OA
ATOM     11  H   UNL     1       2.028   9.123  16.860  0.00  0.00    +0.000 HD
BRANCH   8  15
ATOM     12  C   UNL     1       4.234   4.958  17.518  0.00  0.00    +0.000 A 
ATOM     13  C   UNL     1       4.848   6.133  17.093  0.00  0.00    +0.000 A 
ATOM     14  C   UNL     1       4.178   7.356  17.168  0.00  0.00    +0.000 A 
ATOM     15  C   UNL     1       2.874   7.428  17.656  0.00  0.00    +0.000 A 
ATOM     16  C   UNL     1       2.246   6.238  18.054  0.00  0.00    +0.000 A 
ATOM     17  C   UNL     1       2.924   5.007  17.987  0.00  0.00    +0.000 A 
BRANCH  12  19
ATOM     18  C   UNL     1       5.960   3.858  16.336  0.00  0.00    +0.000 C 
ATOM     19  O   UNL     1       4.994   3.832  17.379  0.00  0.00    +0.000 OA
ENDBRANCH  12  19
ENDBRANCH   8  15
ENDBRANCH   1   9
BRANCH   3  20
ATOM     20  N   UNL     1       2.288  14.109  18.345  0.00  0.00    +0.000 N 
ATOM     21  C   UNL     1       3.059  14.700  19.327  0.00  0.00    +0.000 C 
ATOM     22  O   UNL     1       3.213  14.290  20.467  0.00  0.00    +0.000 OA
ATOM     23  H   UNL     1       2.341  14.476  17.397  0.00  0.00    +0.000 HD
BRANCH  21  24
ATOM     24  C   UNL     1       3.842  15.918  18.914  0.00  0.00    +0.000 C 
ATOM     25  C   UNL     1       5.055  16.427  19.646  0.00  0.00    +0.000 C 
ATOM     26  C   UNL     1       5.237  15.624  18.394  0.00  0.00    +0.000 C 
BRANCH  24  27
ATOM     27  N   UNL     1       3.022  16.890  18.163  0.00  0.00    +0.000 NA
ATOM     28  H   UNL     1       3.298  16.905  17.181  0.00  0.00    +0.000 HD
ATOM     29  H   UNL     1       3.241  17.826  18.513  0.00  0.00    +0.000 HD
ENDBRANCH  24  27
ENDBRANCH  21  24
ENDBRANCH   3  20
BRANCH   6  30
ATOM     30  C   UNL     1      -2.248  12.242  18.964  0.00  0.00    +0.000 C 
BRANCH  30  31
ATOM     31  C   UNL     1      -2.701  12.484  20.388  0.00  0.00    +0.000 A 
ATOM     32  C   UNL     1      -3.987  12.976  20.647  0.00  0.00    +0.000 A 
ATOM     33  C   UNL     1      -4.452  13.121  21.960  0.00  0.00    +0.000 A 
ATOM     34  C   UNL     1      -3.632  12.777  23.040  0.00  0.00    +0.000 A 
ATOM     35  C   UNL     1      -2.328  12.332  22.785  0.00  0.00    +0.000 A 
ATOM     36  C   UNL     1      -1.863  12.190  21.473  0.00  0.00    +0.000 A 
BRANCH  34  37
ATOM     37  C   UNL     1      -4.085  12.831  24.462  0.00  0.00    +0.000 C 
ATOM     38  N   UNL     1      -3.785  13.936  25.208  0.00  0.00    +0.000 N 
ATOM     39  O   UNL     1      -4.734  11.918  24.962  0.00  0.00    +0.000 OA
ATOM     40  H   UNL     1      -3.288  14.746  24.879  0.00  0.00    +0.000 HD
ATOM     41  H   UNL     1      -4.140  13.951  26.156  0.00  0.00    +0.000 HD
ENDBRANCH  34  37
ENDBRANCH  30  31
ENDBRANCH   6  30
TORSDOF 9
ENDMDL
MODEL 5
REMARK VINA RESULT:      -7.4      4.472      9.374
REMARK  Name = 
REMARK  10 active torsions:
REMARK  status: ('A' for Active; 'I' for Inactive)
REMARK    1  A    between atoms: C_1  and  O_2
REMARK    2  A    between atoms: O_2  and  C_3
REMARK    3  A    between atoms: C_6  and  N_7
REMARK    4  A    between atoms: C_8  and  C_10
REMARK    5  A    between atoms: C_12  and  N_13
REMARK    6  A    between atoms: C_14  and  C_16
REMARK    7  A    between atoms: C_16  and  N_17
REMARK    8  A    between atoms: N_22  and  C_23
REMARK    9  A    between atoms: C_23  and  C_24
REMARK   10  A    between atoms: C_27  and  C_28
REMARK                            x       y       z     vdW  Elec       q    Type
REMARK                         _______ _______ _______ _____ _____    ______ ____
ROOT
ATOM      1  C   UNL     1       6.750   6.374  17.776  0.00  0.00    +0.000 A 
ATOM      2  C   UNL     1       6.784   5.775  16.466  0.00  0.00    +0.000 A 
ATOM      3  C   UNL     1       5.813   4.980  16.000  0.00  0.00    +0.000 A 
ATOM      4  C   UNL     1       4.604   4.736  16.879  0.00  0.00    +0.000 A 
ATOM      5  O   UNL     1       3.687   4.036  16.450  0.00  0.00    +0.000 OA
ATOM      6  N   UNL     1       4.628   5.337  18.141  0.00  0.00    +0.000 N 
ATOM      7  C   UNL     1       5.682   6.146  18.556  0.00  0.00    +0.000 A 
ENDROOT
BRANCH   1   9
ATOM      8  N   UNL     1       7.700   8.628  17.731  0.00  0.00    +0.000 N 
ATOM      9  C   UNL     1       7.795   7.348  18.260  0.00  0.00    +0.000 C 
ATOM     10  O   UNL     1       8.636   6.960  19.064  0.00  0.00    +0.000 OA
ATOM     11  H   UNL     1       7.058   8.788  16.966  0.00  0.00    +0.000 HD
BRANCH   8  15
ATOM     12  C   UNL     1       9.759  12.131  18.932  0.00  0.00    +0.000 A 
ATOM     13  C   UNL     1       9.913  10.952  19.656  0.00  0.00    +0.000 A 
ATOM     14  C   UNL     1       9.252   9.784  19.271  0.00  0.00    +0.000 A 
ATOM     15  C   UNL     1       8.411   9.774  18.159  0.00  0.00    +0.000 A 
ATOM     16  C   UNL     1       8.231  10.971  17.449  0.00  0.00    +0.000 A 
ATOM     17  C   UNL     1       8.904  12.145  17.832  0.00  0.00    +0.000 A 
BRANCH  12  19
ATOM     18  C   UNL     1      10.398  13.381  20.833  0.00  0.00    +0.000 C 
ATOM     19  O   UNL     1      10.450  13.201  19.424  0.00  0.00    +0.000 OA
ENDBRANCH  12  19
ENDBRANCH   8  15
ENDBRANCH   1   9
BRANCH   3  20
ATOM     20  N   UNL     1       5.829   4.383  14.750  0.00  0.00    +0.000 N 
ATOM     21  C   UNL     1       6.745   4.635  13.748  0.00  0.00    +0.000 C 
ATOM     22  O   UNL     1       7.728   5.355  13.834  0.00  0.00    +0.000 OA
ATOM     23  H   UNL     1       5.123   3.665  14.597  0.00  0.00    +0.000 HD
BRANCH  21  24
ATOM     24  C   UNL     1       6.546   3.880  12.461  0.00  0.00    +0.000 C 
ATOM     25  C   UNL     1       6.008   2.475  12.384  0.00  0.00    +0.000 C 
ATOM     26  C   UNL     1       5.095   3.628  12.096  0.00  0.00    +0.000 C 
BRANCH  24  27
ATOM     27  N   UNL     1       7.453   4.339  11.389  0.00  0.00    +0.000 NA
ATOM     28  H   UNL     1       7.789   3.545  10.844  0.00  0.00    +0.000 HD
ATOM     29  H   UNL     1       8.290   4.731  11.829  0.00  0.00    +0.000 HD
ENDBRANCH  24  27
ENDBRANCH  21  24
ENDBRANCH   3  20
BRANCH   6  30
ATOM     30  C   UNL     1       3.501   5.124  19.049  0.00  0.00    +0.000 C 
BRANCH  30  31
ATOM     31  C   UNL     1       2.672   6.367  19.297  0.00  0.00    +0.000 A 
ATOM     32  C   UNL     1       2.067   6.577  20.543  0.00  0.00    +0.000 A 
ATOM     33  C   UNL     1       1.372   7.762  20.816  0.00  0.00    +0.000 A 
ATOM     34  C   UNL     1       1.269   8.759  19.840  0.00  0.00    +0.000 A 
ATOM     35  C   UNL     1       1.831   8.531  18.576  0.00  0.00    +0.000 A 
ATOM     36  C   UNL     1       2.522   7.345  18.304  0.00  0.00    +0.000 A 
BRANCH  34  37
ATOM     37  C   UNL     1       0.613  10.078  20.083  0.00  0.00    +0.000 C 
ATOM     38  N   UNL     1      -0.236  10.577  19.135  0.00  0.00    +0.000 N 
ATOM     39  O   UNL     1       0.804  10.708  21.118  0.00  0.00    +0.000 OA
ATOM     40  H   UNL     1      -0.480  10.122  18.272  0.00  0.00    +0.000 HD
ATOM     41  H   UNL     1      -0.689  11.455  19.352  0.00  0.00    +0.000 HD
ENDBRANCH  34  37
ENDBRANCH  30  31
ENDBRANCH   6  30
TORSDOF 9
ENDMDL
MODEL 6
REMARK VINA RESULT:      -7.4      2.650      7.583
REMARK  Name = 
REMARK  10 active torsions:
REMARK  status: ('A' for Active; 'I' for Inactive)
REMARK    1  A    between atoms: C_1  and  O_2
REMARK    2  A    between atoms: O_2  and  C_3
REMARK    3  A    between atoms: C_6  and  N_7
REMARK    4  A    between atoms: C_8  and  C_10
REMARK    5  A    between atoms: C_12  and  N_13
REMARK    6  A    between atoms: C_14  and  C_16
REMARK    7  A    between atoms: C_16  and  N_17
REMARK    8  A    between atoms: N_22  and  C_23
REMARK    9  A    between atoms: C_23  and  C_24
REMARK   10  A    between atoms: C_27  and  C_28
REMARK                            x       y       z     vdW  Elec       q    Type
REMARK                         _______ _______ _______ _____ _____    ______ ____
ROOT
ATOM      1  C   UNL     1      -1.139  12.035  22.626  0.00  0.00    +0.000 A 
ATOM      2  C   UNL     1      -2.523  11.962  23.021  0.00  0.00    +0.000 A 
ATOM      3  C   UNL     1      -3.277  13.045  23.245  0.00  0.00    +0.000 A 
ATOM      4  C   UNL     1      -2.654  14.408  23.032  0.00  0.00    +0.000 A 
ATOM      5  O   UNL     1      -3.345  15.413  23.200  0.00  0.00    +0.000 OA
ATOM      6  N   UNL     1      -1.307  14.418  22.656  0.00  0.00    +0.000 N 
ATOM      7  C   UNL     1      -0.587  13.245  22.449  0.00  0.00    +0.000 A 
ENDROOT
BRANCH   1   9
ATOM      8  N   UNL     1      -0.262  10.512  20.924  0.00  0.00    +0.000 N 
ATOM      9  C   UNL     1      -0.321  10.817  22.277  0.00  0.00    +0.000 C 
ATOM     10  O   UNL     1       0.223  10.192  23.181  0.00  0.00    +0.000 OA
ATOM     11  H   UNL     1      -0.871  11.011  20.289  0.00  0.00    +0.000 HD
BRANCH   8  15
ATOM     12  C   UNL     1       2.255   7.588  19.175  0.00  0.00    +0.000 A 
ATOM     13  C   UNL     1       1.906   8.725  18.452  0.00  0.00    +0.000 A 
ATOM     14  C   UNL     1       1.086   9.705  19.015  0.00  0.00    +0.000 A 
ATOM     15  C   UNL     1       0.587   9.563  20.308  0.00  0.00    +0.000 A 
ATOM     16  C   UNL     1       0.914   8.400  21.024  0.00  0.00    +0.000 A 
ATOM     17  C   UNL     1       1.747   7.417  20.460  0.00  0.00    +0.000 A 
BRANCH  12  19
ATOM     18  C   UNL     1       2.584   5.361  18.454  0.00  0.00    +0.000 C 
ATOM     19  O   UNL     1       3.051   6.703  18.504  0.00  0.00    +0.000 OA
ENDBRANCH  12  19
ENDBRANCH   8  15
ENDBRANCH   1   9
BRANCH   3  20
ATOM     20  N   UNL     1      -4.605  13.001  23.637  0.00  0.00    +0.000 N 
ATOM     21  C   UNL     1      -5.672  12.650  22.833  0.00  0.00    +0.000 C 
ATOM     22  O   UNL     1      -5.604  12.245  21.683  0.00  0.00    +0.000 OA
ATOM     23  H   UNL     1      -4.781  13.203  24.619  0.00  0.00    +0.000 HD
BRANCH  21  24
ATOM     24  C   UNL     1      -7.032  12.698  23.475  0.00  0.00    +0.000 C 
ATOM     25  C   UNL     1      -7.472  13.770  24.437  0.00  0.00    +0.000 C 
ATOM     26  C   UNL     1      -7.911  13.843  23.007  0.00  0.00    +0.000 C 
BRANCH  24  27
ATOM     27  N   UNL     1      -7.652  11.362  23.591  0.00  0.00    +0.000 NA
ATOM     28  H   UNL     1      -7.855  11.148  24.567  0.00  0.00    +0.000 HD
ATOM     29  H   UNL     1      -6.958  10.666  23.305  0.00  0.00    +0.000 HD
ENDBRANCH  24  27
ENDBRANCH  21  24
ENDBRANCH   3  20
BRANCH   6  30
ATOM     30  C   UNL     1      -0.637  15.703  22.454  0.00  0.00    +0.000 C 
BRANCH  30  31
ATOM     31  C   UNL     1       0.318  15.717  21.279  0.00  0.00    +0.000 A 
ATOM     32  C   UNL     1      -0.171  15.626  19.969  0.00  0.00    +0.000 A 
ATOM     33  C   UNL     1       0.692  15.728  18.870  0.00  0.00    +0.000 A 
ATOM     34  C   UNL     1       2.064  15.919  19.066  0.00  0.00    +0.000 A 
ATOM     35  C   UNL     1       2.561  15.960  20.376  0.00  0.00    +0.000 A 
ATOM     36  C   UNL     1       1.700  15.856  21.473  0.00  0.00    +0.000 A 
BRANCH  34  37
ATOM     37  C   UNL     1       3.031  16.113  17.946  0.00  0.00    +0.000 C 
ATOM     38  N   UNL     1       3.475  15.017  17.260  0.00  0.00    +0.000 N 
ATOM     39  O   UNL     1       3.416  17.231  17.619  0.00  0.00    +0.000 OA
ATOM     40  H   UNL     1       3.194  14.067  17.432  0.00  0.00    +0.000 HD
ATOM     41  H   UNL     1       4.101  15.193  16.485  0.00  0.00    +0.000 HD
ENDBRANCH  34  37
ENDBRANCH  30  31
ENDBRANCH   6  30
TORSDOF 9
ENDMDL
MODEL 7
REMARK VINA RESULT:      -7.3      2.890      4.661
REMARK  Name = 
REMARK  10 active torsions:
REMARK  status: ('A' for Active; 'I' for Inactive)
REMARK    1  A    between atoms: C_1  and  O_2
REMARK    2  A    between atoms: O_2  and  C_3
REMARK    3  A    between atoms: C_6  and  N_7
REMARK    4  A    between atoms: C_8  and  C_10
REMARK    5  A    between atoms: C_12  and  N_13
REMARK    6  A    between atoms: C_14  and  C_16
REMARK    7  A    between atoms: C_16  and  N_17
REMARK    8  A    between atoms: N_22  and  C_23
REMARK    9  A    between atoms: C_23  and  C_24
REMARK   10  A    between atoms: C_27  and  C_28
REMARK                            x       y       z     vdW  Elec       q    Type
REMARK                         _______ _______ _______ _____ _____    ______ ____
ROOT
ATOM      1  C   UNL     1       0.736  10.041  19.850  0.00  0.00    +0.000 A 
ATOM      2  C   UNL     1       1.430  11.301  19.945  0.00  0.00    +0.000 A 
ATOM      3  C   UNL     1       0.844  12.479  19.695  0.00  0.00    +0.000 A 
ATOM      4  C   UNL     1      -0.628  12.485  19.337  0.00  0.00    +0.000 A 
ATOM      5  O   UNL     1      -1.189  13.563  19.140  0.00  0.00    +0.000 OA
ATOM      6  N   UNL     1      -1.247  11.234  19.252  0.00  0.00    +0.000 N 
ATOM      7  C   UNL     1      -0.565  10.051  19.520  0.00  0.00    +0.000 A 
ENDROOT
BRANCH   1   9
ATOM      8  N   UNL     1       1.792   7.945  19.162  0.00  0.00    +0.000 N 
ATOM      9  C   UNL     1       1.370   8.726  20.228  0.00  0.00    +0.000 C 
ATOM     10  O   UNL     1       1.470   8.440  21.417  0.00  0.00    +0.000 OA
ATOM     11  H   UNL     1       1.522   8.218  18.226  0.00  0.00    +0.000 HD
BRANCH   8  15
ATOM     12  C   UNL     1       4.275   4.515  19.307  0.00  0.00    +0.000 A 
ATOM     13  C   UNL     1       3.126   4.573  20.090  0.00  0.00    +0.000 A 
ATOM     14  C   UNL     1       2.289   5.690  20.048  0.00  0.00    +0.000 A 
ATOM     15  C   UNL     1       2.591   6.779  19.232  0.00  0.00    +0.000 A 
ATOM     16  C   UNL     1       3.766   6.732  18.468  0.00  0.00    +0.000 A 
ATOM     17  C   UNL     1       4.605   5.604  18.503  0.00  0.00    +0.000 A 
BRANCH  12  19
ATOM     18  C   UNL     1       4.338   2.272  20.046  0.00  0.00    +0.000 C 
ATOM     19  O   UNL     1       5.011   3.374  19.452  0.00  0.00    +0.000 OA
ENDBRANCH  12  19
ENDBRANCH   8  15
ENDBRANCH   1   9
BRANCH   3  20
ATOM     20  N   UNL     1       1.492  13.701  19.768  0.00  0.00    +0.000 N 
ATOM     21  C   UNL     1       2.469  14.149  18.901  0.00  0.00    +0.000 C 
ATOM     22  O   UNL     1       2.853  13.578  17.892  0.00  0.00    +0.000 OA
ATOM     23  H   UNL     1       1.170  14.326  20.505  0.00  0.00    +0.000 HD
BRANCH  21  24
ATOM     24  C   UNL     1       3.047  15.507  19.196  0.00  0.00    +0.000 C 
ATOM     25  C   UNL     1       3.941  16.265  18.250  0.00  0.00    +0.000 C 
ATOM     26  C   UNL     1       2.490  16.629  18.339  0.00  0.00    +0.000 C 
BRANCH  24  27
ATOM     27  N   UNL     1       3.191  15.759  20.644  0.00  0.00    +0.000 NA
ATOM     28  H   UNL     1       3.021  16.743  20.852  0.00  0.00    +0.000 HD
ATOM     29  H   UNL     1       4.170  15.600  20.897  0.00  0.00    +0.000 HD
ENDBRANCH  24  27
ENDBRANCH  21  24
ENDBRANCH   3  20
BRANCH   6  30
ATOM     30  C   UNL     1      -2.662  11.167  18.889  0.00  0.00    +0.000 C 
BRANCH  30  31
ATOM     31  C   UNL     1      -2.904  10.868  17.425  0.00  0.00    +0.000 A 
ATOM     32  C   UNL     1      -2.085   9.958  16.744  0.00  0.00    +0.000 A 
ATOM     33  C   UNL     1      -2.351   9.604  15.415  0.00  0.00    +0.000 A 
ATOM     34  C   UNL     1      -3.444  10.160  14.742  0.00  0.00    +0.000 A 
ATOM     35  C   UNL     1      -4.236  11.108  15.406  0.00  0.00    +0.000 A 
ATOM     36  C   UNL     1      -3.968  11.463  16.732  0.00  0.00    +0.000 A 
BRANCH  34  37
ATOM     37  C   UNL     1      -3.835   9.774  13.354  0.00  0.00    +0.000 C 
ATOM     38  N   UNL     1      -5.163   9.658  13.052  0.00  0.00    +0.000 N 
ATOM     39  O   UNL     1      -2.995   9.580  12.482  0.00  0.00    +0.000 OA
ATOM     40  H   UNL     1      -5.924   9.827  13.687  0.00  0.00    +0.000 HD
ATOM     41  H   UNL     1      -5.390   9.430  12.092  0.00  0.00    +0.000 HD
ENDBRANCH  34  37
ENDBRANCH  30  31
ENDBRANCH   6  30
TORSDOF 9
ENDMDL
MODEL 8
REMARK VINA RESULT:      -7.3      2.521      3.256
REMARK  Name = 
REMARK  10 active torsions:
REMARK  status: ('A' for Active; 'I' for Inactive)
REMARK    1  A    between atoms: C_1  and  O_2
REMARK    2  A    between atoms: O_2  and  C_3
REMARK    3  A    between atoms: C_6  and  N_7
REMARK    4  A    between atoms: C_8  and  C_10
REMARK    5  A    between atoms: C_12  and  N_13
REMARK    6  A    between atoms: C_14  and  C_16
REMARK    7  A    between atoms: C_16  and  N_17
REMARK    8  A    between atoms: N_22  and  C_23
REMARK    9  A    between atoms: C_23  and  C_24
REMARK   10  A    between atoms: C_27  and  C_28
REMARK                            x       y       z     vdW  Elec       q    Type
REMARK                         _______ _______ _______ _____ _____    ______ ____
ROOT
ATOM      1  C   UNL     1      -0.153  11.683  19.546  0.00  0.00    +0.000 A 
ATOM      2  C   UNL     1      -0.058  12.934  18.837  0.00  0.00    +0.000 A 
ATOM      3  C   UNL     1      -0.382  14.111  19.386  0.00  0.00    +0.000 A 
ATOM      4  C   UNL     1      -0.827  14.129  20.833  0.00  0.00    +0.000 A 
ATOM      5  O   UNL     1      -1.094  15.208  21.361  0.00  0.00    +0.000 OA
ATOM      6  N   UNL     1      -0.908  12.886  21.468  0.00  0.00    +0.000 N 
ATOM      7  C   UNL     1      -0.560  11.702  20.825  0.00  0.00    +0.000 A 
ENDROOT
BRANCH   1   9
ATOM      8  N   UNL     1       1.311   9.727  19.668  0.00  0.00    +0.000 N 
ATOM      9  C   UNL     1       0.306  10.371  18.960  0.00  0.00    +0.000 C 
ATOM     10  O   UNL     1      -0.221   9.969  17.928  0.00  0.00    +0.000 OA
ATOM     11  H   UNL     1       1.769  10.226  20.419  0.00  0.00    +0.000 HD
BRANCH   8  15
ATOM     12  C   UNL     1       2.765   5.814  18.942  0.00  0.00    +0.000 A 
ATOM     13  C   UNL     1       2.194   6.125  20.173  0.00  0.00    +0.000 A 
ATOM     14  C   UNL     1       1.699   7.406  20.428  0.00  0.00    +0.000 A 
ATOM     15  C   UNL     1       1.778   8.407  19.461  0.00  0.00    +0.000 A 
ATOM     16  C   UNL     1       2.382   8.101  18.232  0.00  0.00    +0.000 A 
ATOM     17  C   UNL     1       2.873   6.809  17.973  0.00  0.00    +0.000 A 
BRANCH  12  19
ATOM     18  C   UNL     1       4.631   4.367  18.862  0.00  0.00    +0.000 C 
ATOM     19  O   UNL     1       3.220   4.531  18.829  0.00  0.00    +0.000 OA
ENDBRANCH  12  19
ENDBRANCH   8  15
ENDBRANCH   1   9
BRANCH   3  20
ATOM     20  N   UNL     1      -0.310  15.325  18.721  0.00  0.00    +0.000 N 
ATOM     21  C   UNL     1       0.780  16.173  18.707  0.00  0.00    +0.000 C 
ATOM     22  O   UNL     1       1.873  15.950  19.203  0.00  0.00    +0.000 OA
ATOM     23  H   UNL     1      -1.126  15.570  18.164  0.00  0.00    +0.000 HD
BRANCH  21  24
ATOM     24  C   UNL     1       0.615  17.453  17.932  0.00  0.00    +0.000 C 
ATOM     25  C   UNL     1      -0.708  17.969  17.431  0.00  0.00    +0.000 C 
ATOM     26  C   UNL     1      -0.118  18.552  18.679  0.00  0.00    +0.000 C 
BRANCH  24  27
ATOM     27  N   UNL     1       1.835  17.826  17.188  0.00  0.00    +0.000 NA
ATOM     28  H   UNL     1       2.299  16.993  16.825  0.00  0.00    +0.000 HD
ATOM     29  H   UNL     1       2.500  18.230  17.854  0.00  0.00    +0.000 HD
ENDBRANCH  24  27
ENDBRANCH  21  24
ENDBRANCH   3  20
BRANCH   6  30
ATOM     30  C   UNL     1      -1.353  12.829  22.860  0.00  0.00    +0.000 C 
BRANCH  30  31
ATOM     31  C   UNL     1      -2.856  12.748  23.019  0.00  0.00    +0.000 A 
ATOM     32  C   UNL     1      -3.429  12.639  24.293  0.00  0.00    +0.000 A 
ATOM     33  C   UNL     1      -4.819  12.653  24.462  0.00  0.00    +0.000 A 
ATOM     34  C   UNL     1      -5.663  12.772  23.352  0.00  0.00    +0.000 A 
ATOM     35  C   UNL     1      -5.094  12.831  22.073  0.00  0.00    +0.000 A 
ATOM     36  C   UNL     1      -3.705  12.814  21.905  0.00  0.00    +0.000 A 
BRANCH  34  37
ATOM     37  C   UNL     1      -7.148  12.872  23.460  0.00  0.00    +0.000 C 
ATOM     38  N   UNL     1      -7.910  12.579  22.363  0.00  0.00    +0.000 N 
ATOM     39  O   UNL     1      -7.695  13.189  24.512  0.00  0.00    +0.000 OA
ATOM     40  H   UNL     1      -7.558  12.281  21.470  0.00  0.00    +0.000 HD
ATOM     41  H   UNL     1      -8.914  12.622  22.486  0.00  0.00    +0.000 HD
ENDBRANCH  34  37
ENDBRANCH  30  31
ENDBRANCH   6  30
TORSDOF 9
ENDMDL
MODEL 9
REMARK VINA RESULT:      -7.3      2.774      4.472
REMARK  Name = 
REMARK  10 active torsions:
REMARK  status: ('A' for Active; 'I' for Inactive)
REMARK    1  A    between atoms: C_1  and  O_2
REMARK    2  A    between atoms: O_2  and  C_3
REMARK    3  A    between atoms: C_6  and  N_7
REMARK    4  A    between atoms: C_8  and  C_10
REMARK    5  A    between atoms: C_12  and  N_13
REMARK    6  A    between atoms: C_14  and  C_16
REMARK    7  A    between atoms: C_16  and  N_17
REMARK    8  A    between atoms: N_22  and  C_23
REMARK    9  A    between atoms: C_23  and  C_24
REMARK   10  A    between atoms: C_27  and  C_28
REMARK                            x       y       z     vdW  Elec       q    Type
REMARK                         _______ _______ _______ _____ _____    ______ ____
ROOT
ATOM      1  C   UNL     1       0.653  10.498  20.269  0.00  0.00    +0.000 A 
ATOM      2  C   UNL     1       1.376  11.735  20.427  0.00  0.00    +0.000 A 
ATOM      3  C   UNL     1       0.819  12.937  20.233  0.00  0.00    +0.000 A 
ATOM      4  C   UNL     1      -0.651  12.996  19.874  0.00  0.00    +0.000 A 
ATOM      5  O   UNL     1      -1.185  14.095  19.728  0.00  0.00    +0.000 OA
ATOM      6  N   UNL     1      -1.300  11.766  19.727  0.00  0.00    +0.000 N 
ATOM      7  C   UNL     1      -0.647  10.555  19.938  0.00  0.00    +0.000 A 
ENDROOT
BRANCH   1   9
ATOM      8  N   UNL     1       1.510   8.347  19.483  0.00  0.00    +0.000 N 
ATOM      9  C   UNL     1       1.253   9.152  20.584  0.00  0.00    +0.000 C 
ATOM     10  O   UNL     1       1.471   8.862  21.756  0.00  0.00    +0.000 OA
ATOM     11  H   UNL     1       1.153   8.632  18.582  0.00  0.00    +0.000 HD
BRANCH   8  15
ATOM     12  C   UNL     1       3.634   4.681  19.531  0.00  0.00    +0.000 A 
ATOM     13  C   UNL     1       3.973   5.667  18.610  0.00  0.00    +0.000 A 
ATOM     14  C   UNL     1       3.293   6.886  18.585  0.00  0.00    +0.000 A 
ATOM     15  C   UNL     1       2.248   7.139  19.473  0.00  0.00    +0.000 A 
ATOM     16  C   UNL     1       1.886   6.131  20.380  0.00  0.00    +0.000 A 
ATOM     17  C   UNL     1       2.577   4.907  20.411  0.00  0.00    +0.000 A 
BRANCH  12  19
ATOM     18  C   UNL     1       3.956   2.462  20.279  0.00  0.00    +0.000 C 
ATOM     19  O   UNL     1       4.369   3.533  19.440  0.00  0.00    +0.000 OA
ENDBRANCH  12  19
ENDBRANCH   8  15
ENDBRANCH   1   9
BRANCH   3  20
ATOM     20  N   UNL     1       1.496  14.138  20.367  0.00  0.00    +0.000 N 
ATOM     21  C   UNL     1       2.257  14.748  19.390  0.00  0.00    +0.000 C 
ATOM     22  O   UNL     1       2.384  14.371  18.235  0.00  0.00    +0.000 OA
ATOM     23  H   UNL     1       1.368  14.618  21.256  0.00  0.00    +0.000 HD
BRANCH  21  24
ATOM     24  C   UNL     1       2.920  16.043  19.775  0.00  0.00    +0.000 C 
ATOM     25  C   UNL     1       3.150  16.480  21.198  0.00  0.00    +0.000 C 
ATOM     26  C   UNL     1       4.284  15.885  20.421  0.00  0.00    +0.000 C 
BRANCH  24  27
ATOM     27  N   UNL     1       2.768  17.087  18.742  0.00  0.00    +0.000 NA
ATOM     28  H   UNL     1       2.928  16.695  17.814  0.00  0.00    +0.000 HD
ATOM     29  H   UNL     1       3.517  17.772  18.871  0.00  0.00    +0.000 HD
ENDBRANCH  24  27
ENDBRANCH  21  24
ENDBRANCH   3  20
BRANCH   6  30
ATOM     30  C   UNL     1      -2.715  11.751  19.358  0.00  0.00    +0.000 C 
BRANCH  30  31
ATOM     31  C   UNL     1      -2.980  11.207  17.970  0.00  0.00    +0.000 A 
ATOM     32  C   UNL     1      -4.141  11.572  17.277  0.00  0.00    +0.000 A 
ATOM     33  C   UNL     1      -4.357  11.149  15.960  0.00  0.00    +0.000 A 
ATOM     34  C   UNL     1      -3.411  10.347  15.313  0.00  0.00    +0.000 A 
ATOM     35  C   UNL     1      -2.272   9.939  16.021  0.00  0.00    +0.000 A 
ATOM     36  C   UNL     1      -2.059  10.360  17.338  0.00  0.00    +0.000 A 
BRANCH  34  37
ATOM     37  C   UNL     1      -3.534   9.922  13.887  0.00  0.00    +0.000 C 
ATOM     38  N   UNL     1      -4.782   9.795  13.342  0.00  0.00    +0.000 N 
ATOM     39  O   UNL     1      -2.545   9.707  13.195  0.00  0.00    +0.000 OA
ATOM     40  H   UNL     1      -5.648   9.979  13.818  0.00  0.00    +0.000 HD
ATOM     41  H   UNL     1      -4.824   9.542  12.364  0.00  0.00    +0.000 HD
ENDBRANCH  34  37
ENDBRANCH  30  31
ENDBRANCH   6  30
TORSDOF 9
ENDMDL
