MODEL 1
REMARK VINA RESULT:      -9.0      0.000      0.000
REMARK  Name = 
REMARK  5 active torsions:
REMARK  status: ('A' for Active; 'I' for Inactive)
REMARK    1  A    between atoms: N_1  and  C_2
REMARK    2  A    between atoms: C_2  and  C_3
REMARK    3  A    between atoms: C_2  and  C_24
REMARK    4  A    between atoms: N_10  and  C_11
REMARK    5  A    between atoms: C_16  and  C_17
REMARK                            x       y       z     vdW  Elec       q    Type
REMARK                         _______ _______ _______ _____ _____    ______ ____
ROOT
ATOM      1  C   UNL     1      -0.759  10.633  19.219  0.00  0.00    +0.000 A 
ATOM      2  C   UNL     1      -0.736  10.801  20.595  0.00  0.00    +0.000 A 
ATOM      3  S   UNL     1       0.645  10.044  21.266  0.00  0.00    +0.000 S 
ATOM      4  C   UNL     1       1.040   9.436  19.718  0.00  0.00    +0.000 A 
ATOM      5  N   UNL     1       2.117   8.583  19.727  0.00  0.00    +0.000 N 
ATOM      6  C   UNL     1       2.374   7.740  18.675  0.00  0.00    +0.000 C 
ATOM      7  O   UNL     1       1.720   7.657  17.643  0.00  0.00    +0.000 OA
ATOM      8  N   UNL     1       3.526   6.972  18.926  0.00  0.00    +0.000 N 
ATOM      9  N   UNL     1       0.276   9.833  18.732  0.00  0.00    +0.000 NA
ATOM     10  H   UNL     1       2.555   8.423  20.617  0.00  0.00    +0.000 HD
ATOM     11  H   UNL     1       4.230   7.413  19.497  0.00  0.00    +0.000 HD
ENDROOT
BRANCH   8  12
ATOM     12  C   UNL     1       4.009   6.101  17.905  0.00  0.00    +0.000 A 
ATOM     13  C   UNL     1       4.802   6.691  16.908  0.00  0.00    +0.000 A 
ATOM     14  C   UNL     1       5.266   5.949  15.832  0.00  0.00    +0.000 A 
ATOM     15  C   UNL     1       4.970   4.597  15.764  0.00  0.00    +0.000 A 
ATOM     16  C   UNL     1       4.194   3.998  16.764  0.00  0.00    +0.000 A 
ATOM     17  C   UNL     1       3.658   4.728  17.853  0.00  0.00    +0.000 A 
BRANCH  17  18
ATOM     18  C   UNL     1       2.837   4.007  18.872  0.00  0.00    +0.000 A 
ATOM     19  C   UNL     1       3.360   3.578  20.106  0.00  0.00    +0.000 A 
ATOM     20  C   UNL     1       2.562   2.940  21.065  0.00  0.00    +0.000 A 
ATOM     21  C   UNL     1       1.229   2.656  20.792  0.00  0.00    +0.000 A 
ATOM     22  C   UNL     1       0.697   3.008  19.558  0.00  0.00    +0.000 A 
ATOM     23  C   UNL     1       1.487   3.684  18.620  0.00  0.00    +0.000 A 
ENDBRANCH  17  18
ENDBRANCH   8  12
BRANCH   1  24
ATOM     24  C   UNL     1      -1.831  11.160  18.282  0.00  0.00    +0.000 C 
BRANCH  24  25
ATOM     25  C   UNL     1      -2.872  10.102  17.813  0.00  0.00    +0.000 C 
ATOM     26  C   UNL     1      -4.303  10.695  17.735  0.00  0.00    +0.000 C 
ATOM     27  C   UNL     1      -4.475  11.668  16.567  0.00  0.00    +0.000 C 
ATOM     28  C   UNL     1      -4.137  11.003  15.237  0.00  0.00    +0.000 C 
ATOM     29  C   UNL     1      -2.751  10.366  15.255  0.00  0.00    +0.000 C 
ATOM     30  C   UNL     1      -2.561   9.437  16.454  0.00  0.00    +0.000 C 
ENDBRANCH  24  25
BRANCH  24  31
ATOM     31  N   UNL     1      -2.526  12.261  18.973  0.00  0.00    +0.000 NA
ATOM     32  H   UNL     1      -3.143  12.720  18.301  0.00  0.00    +0.000 HD
ATOM     33  H   UNL     1      -1.819  12.988  19.145  0.00  0.00    +0.000 HD
ENDBRANCH  24  31
ENDBRANCH   1  24
TORSDOF 5
ENDMDL
MODEL 2
REMARK VINA RESULT:      -8.2      2.887      4.552
REMARK  Name = 
REMARK  5 active torsions:
REMARK  status: ('A' for Active; 'I' for Inactive)
REMARK    1  A    between atoms: N_1  and  C_2
REMARK    2  A    between atoms: C_2  and  C_3
REMARK    3  A    between atoms: C_2  and  C_24
REMARK    4  A    between atoms: N_10  and  C_11
REMARK    5  A    between atoms: C_16  and  C_17
REMARK                            x       y       z     vdW  Elec       q    Type
REMARK                         _______ _______ _______ _____ _____    ______ ____
ROOT
ATOM      1  C   UNL     1       0.939  10.601  20.267  0.00  0.00    +0.000 A 
ATOM      2  C   UNL     1       1.466  11.473  19.328  0.00  0.00    +0.000 A 
ATOM      3  S   UNL     1       2.003  10.612  17.949  0.00  0.00    +0.000 S 
ATOM      4  C   UNL     1       1.628   9.145  18.742  0.00  0.00    +0.000 A 
ATOM      5  N   UNL     1       2.011   8.031  18.036  0.00  0.00    +0.000 N 
ATOM      6  C   UNL     1       2.113   6.801  18.635  0.00  0.00    +0.000 C 
ATOM      7  O   UNL     1       1.872   6.550  19.809  0.00  0.00    +0.000 OA
ATOM      8  N   UNL     1       2.521   5.829  17.703  0.00  0.00    +0.000 N 
ATOM      9  N   UNL     1       1.048   9.255  19.911  0.00  0.00    +0.000 NA
ATOM     10  H   UNL     1       2.446   8.194  17.144  0.00  0.00    +0.000 HD
ATOM     11  H   UNL     1       2.229   5.985  16.751  0.00  0.00    +0.000 HD
ENDROOT
BRANCH   8  12
ATOM     12  C   UNL     1       2.594   4.465  18.117  0.00  0.00    +0.000 A 
ATOM     13  C   UNL     1       1.369   3.793  18.257  0.00  0.00    +0.000 A 
ATOM     14  C   UNL     1       1.321   2.487  18.720  0.00  0.00    +0.000 A 
ATOM     15  C   UNL     1       2.505   1.828  19.012  0.00  0.00    +0.000 A 
ATOM     16  C   UNL     1       3.730   2.487  18.858  0.00  0.00    +0.000 A 
ATOM     17  C   UNL     1       3.823   3.836  18.437  0.00  0.00    +0.000 A 
BRANCH  17  18
ATOM     18  C   UNL     1       5.173   4.460  18.305  0.00  0.00    +0.000 A 
ATOM     19  C   UNL     1       5.792   5.167  19.353  0.00  0.00    +0.000 A 
ATOM     20  C   UNL     1       7.077   5.709  19.223  0.00  0.00    +0.000 A 
ATOM     21  C   UNL     1       7.758   5.615  18.015  0.00  0.00    +0.000 A 
ATOM     22  C   UNL     1       7.151   4.981  16.938  0.00  0.00    +0.000 A 
ATOM     23  C   UNL     1       5.884   4.402  17.087  0.00  0.00    +0.000 A 
ENDBRANCH  17  18
ENDBRANCH   8  12
BRANCH   1  24
ATOM     24  C   UNL     1       0.368  10.995  21.618  0.00  0.00    +0.000 C 
BRANCH  24  25
ATOM     25  C   UNL     1      -1.177  11.186  21.649  0.00  0.00    +0.000 C 
ATOM     26  C   UNL     1      -1.660  11.755  23.008  0.00  0.00    +0.000 C 
ATOM     27  C   UNL     1      -1.279  13.224  23.201  0.00  0.00    +0.000 C 
ATOM     28  C   UNL     1      -1.826  14.092  22.073  0.00  0.00    +0.000 C 
ATOM     29  C   UNL     1      -1.415  13.567  20.701  0.00  0.00    +0.000 C 
ATOM     30  C   UNL     1      -1.746  12.084  20.530  0.00  0.00    +0.000 C 
ENDBRANCH  24  25
BRANCH  24  31
ATOM     31  N   UNL     1       0.754   9.952  22.587  0.00  0.00    +0.000 NA
ATOM     32  H   UNL     1       1.699  10.156  22.915  0.00  0.00    +0.000 HD
ATOM     33  H   UNL     1       0.897   9.091  22.044  0.00  0.00    +0.000 HD
ENDBRANCH  24  31
ENDBRANCH   1  24
TORSDOF 5
ENDMDL
MODEL 3
REMARK VINA RESULT:      -8.2      2.914      4.734
REMARK  Name = 
REMARK  5 active torsions:
REMARK  status: ('A' for Active; 'I' for Inactive)
REMARK    1  A    between atoms: N_1  and  C_2
REMARK    2  A    between atoms: C_2  and  C_3
REMARK    3  A    between atoms: C_2  and  C_24
REMARK    4  A    between atoms: N_10  and  C_11
REMARK    5  A    between atoms: C_16  and  C_17
REMARK                            x       y       z     vdW  Elec       q    Type
REMARK                         _______ _______ _______ _____ _____    ______ ____
ROOT
ATOM      1  C   UNL     1       0.699  11.170  20.448  0.00  0.00    +0.000 A 
ATOM      2  C   UNL     1       1.187  12.123  19.568  0.00  0.00    +0.000 A 
ATOM      3  S   UNL     1       1.846  11.370  18.178  0.00  0.00    +0.000 S 
ATOM      4  C   UNL     1       1.565   9.844  18.895  0.00  0.00    +0.000 A 
ATOM      5  N   UNL     1       2.067   8.798  18.161  0.00  0.00    +0.000 N 
ATOM      6  C   UNL     1       2.248   7.554  18.713  0.00  0.00    +0.000 C 
ATOM      7  O   UNL     1       1.984   7.233  19.865  0.00  0.00    +0.000 OA
ATOM      8  N   UNL     1       2.771   6.661  17.760  0.00  0.00    +0.000 N 
ATOM      9  N   UNL     1       0.934   9.855  20.042  0.00  0.00    +0.000 NA
ATOM     10  H   UNL     1       2.520   9.034  17.295  0.00  0.00    +0.000 HD
ATOM     11  H   UNL     1       2.503   6.834  16.804  0.00  0.00    +0.000 HD
ENDROOT
BRANCH   8  12
ATOM     12  C   UNL     1       2.941   5.291  18.121  0.00  0.00    +0.000 A 
ATOM     13  C   UNL     1       1.771   4.521  18.205  0.00  0.00    +0.000 A 
ATOM     14  C   UNL     1       1.815   3.197  18.615  0.00  0.00    +0.000 A 
ATOM     15  C   UNL     1       3.041   2.619  18.908  0.00  0.00    +0.000 A 
ATOM     16  C   UNL     1       4.214   3.377  18.809  0.00  0.00    +0.000 A 
ATOM     17  C   UNL     1       4.209   4.745  18.444  0.00  0.00    +0.000 A 
BRANCH  17  18
ATOM     18  C   UNL     1       5.509   5.477  18.368  0.00  0.00    +0.000 A 
ATOM     19  C   UNL     1       5.805   6.401  17.348  0.00  0.00    +0.000 A 
ATOM     20  C   UNL     1       7.014   7.108  17.318  0.00  0.00    +0.000 A 
ATOM     21  C   UNL     1       7.992   6.865  18.276  0.00  0.00    +0.000 A 
ATOM     22  C   UNL     1       7.760   5.912  19.260  0.00  0.00    +0.000 A 
ATOM     23  C   UNL     1       6.532   5.240  19.311  0.00  0.00    +0.000 A 
ENDBRANCH  17  18
ENDBRANCH   8  12
BRANCH   1  24
ATOM     24  C   UNL     1       0.047  11.456  21.789  0.00  0.00    +0.000 C 
BRANCH  24  25
ATOM     25  C   UNL     1      -1.488  11.710  21.733  0.00  0.00    +0.000 C 
ATOM     26  C   UNL     1      -2.059  12.107  23.120  0.00  0.00    +0.000 C 
ATOM     27  C   UNL     1      -1.645  13.517  23.545  0.00  0.00    +0.000 C 
ATOM     28  C   UNL     1      -2.071  14.555  22.513  0.00  0.00    +0.000 C 
ATOM     29  C   UNL     1      -1.571  14.207  21.115  0.00  0.00    +0.000 C 
ATOM     30  C   UNL     1      -1.937  12.778  20.713  0.00  0.00    +0.000 C 
ENDBRANCH  24  25
BRANCH  24  31
ATOM     31  N   UNL     1       0.324  10.310  22.674  0.00  0.00    +0.000 NA
ATOM     32  H   UNL     1       0.359  10.651  23.635  0.00  0.00    +0.000 HD
ATOM     33  H   UNL     1       1.302  10.043  22.505  0.00  0.00    +0.000 HD
ENDBRANCH  24  31
ENDBRANCH   1  24
TORSDOF 5
ENDMDL
MODEL 4
REMARK VINA RESULT:      -8.1      2.934      4.710
REMARK  Name = 
REMARK  5 active torsions:
REMARK  status: ('A' for Active; 'I' for Inactive)
REMARK    1  A    between atoms: N_1  and  C_2
REMARK    2  A    between atoms: C_2  and  C_3
REMARK    3  A    between atoms: C_2  and  C_24
REMARK    4  A    between atoms: N_10  and  C_11
REMARK    5  A    between atoms: C_16  and  C_17
REMARK                            x       y       z     vdW  Elec       q    Type
REMARK                         _______ _______ _______ _____ _____    ______ ____
ROOT
ATOM      1  C   UNL     1       0.317  11.224  20.747  0.00  0.00    +0.000 A 
ATOM      2  C   UNL     1       0.903  11.999  19.759  0.00  0.00    +0.000 A 
ATOM      3  S   UNL     1       1.639  11.003  18.577  0.00  0.00    +0.000 S 
ATOM      4  C   UNL     1       1.252   9.631  19.520  0.00  0.00    +0.000 A 
ATOM      5  N   UNL     1       1.771   8.462  19.019  0.00  0.00    +0.000 N 
ATOM      6  C   UNL     1       1.866   7.330  19.788  0.00  0.00    +0.000 C 
ATOM      7  O   UNL     1       1.505   7.219  20.953  0.00  0.00    +0.000 OA
ATOM      8  N   UNL     1       2.429   6.274  19.049  0.00  0.00    +0.000 N 
ATOM      9  N   UNL     1       0.537   9.854  20.593  0.00  0.00    +0.000 NA
ATOM     10  H   UNL     1       2.297   8.535  18.165  0.00  0.00    +0.000 HD
ATOM     11  H   UNL     1       2.241   6.285  18.058  0.00  0.00    +0.000 HD
ENDROOT
BRANCH   8  12
ATOM     12  C   UNL     1       2.524   4.984  19.651  0.00  0.00    +0.000 A 
ATOM     13  C   UNL     1       1.422   4.575  20.419  0.00  0.00    +0.000 A 
ATOM     14  C   UNL     1       1.438   3.370  21.105  0.00  0.00    +0.000 A 
ATOM     15  C   UNL     1       2.546   2.544  20.997  0.00  0.00    +0.000 A 
ATOM     16  C   UNL     1       3.641   2.939  20.218  0.00  0.00    +0.000 A 
ATOM     17  C   UNL     1       3.688   4.182  19.543  0.00  0.00    +0.000 A 
BRANCH  17  18
ATOM     18  C   UNL     1       4.899   4.522  18.738  0.00  0.00    +0.000 A 
ATOM     19  C   UNL     1       5.979   5.258  19.261  0.00  0.00    +0.000 A 
ATOM     20  C   UNL     1       7.125   5.531  18.502  0.00  0.00    +0.000 A 
ATOM     21  C   UNL     1       7.198   5.127  17.174  0.00  0.00    +0.000 A 
ATOM     22  C   UNL     1       6.124   4.454  16.606  0.00  0.00    +0.000 A 
ATOM     23  C   UNL     1       4.999   4.147  17.382  0.00  0.00    +0.000 A 
ENDBRANCH  17  18
ENDBRANCH   8  12
BRANCH   1  24
ATOM     24  C   UNL     1      -0.425  11.752  21.962  0.00  0.00    +0.000 C 
BRANCH  24  25
ATOM     25  C   UNL     1      -1.944  12.017  21.741  0.00  0.00    +0.000 C 
ATOM     26  C   UNL     1      -2.675  12.326  23.074  0.00  0.00    +0.000 C 
ATOM     27  C   UNL     1      -2.318  13.703  23.638  0.00  0.00    +0.000 C 
ATOM     28  C   UNL     1      -2.621  14.809  22.633  0.00  0.00    +0.000 C 
ATOM     29  C   UNL     1      -1.958  14.551  21.284  0.00  0.00    +0.000 C 
ATOM     30  C   UNL     1      -2.270  13.153  20.748  0.00  0.00    +0.000 C 
ENDBRANCH  24  25
BRANCH  24  31
ATOM     31  N   UNL     1      -0.250  10.775  23.052  0.00  0.00    +0.000 NA
ATOM     32  H   UNL     1      -0.297  11.276  23.940  0.00  0.00    +0.000 HD
ATOM     33  H   UNL     1       0.735  10.482  23.024  0.00  0.00    +0.000 HD
ENDBRANCH  24  31
ENDBRANCH   1  24
TORSDOF 5
ENDMDL
MODEL 5
REMARK VINA RESULT:      -8.0      0.525      1.347
REMARK  Name = 
REMARK  5 active torsions:
REMARK  status: ('A' for Active; 'I' for Inactive)
REMARK    1  A    between atoms: N_1  and  C_2
REMARK    2  A    between atoms: C_2  and  C_3
REMARK    3  A    between atoms: C_2  and  C_24
REMARK    4  A    between atoms: N_10  and  C_11
REMARK    5  A    between atoms: C_16  and  C_17
REMARK                            x       y       z     vdW  Elec       q    Type
REMARK                         _______ _______ _______ _____ _____    ______ ____
ROOT
ATOM      1  C   UNL     1      -0.750  10.945  18.818  0.00  0.00    +0.000 A 
ATOM      2  C   UNL     1      -0.884  11.075  20.192  0.00  0.00    +0.000 A 
ATOM      3  S   UNL     1       0.363  10.223  20.997  0.00  0.00    +0.000 S 
ATOM      4  C   UNL     1       0.910   9.635  19.489  0.00  0.00    +0.000 A 
ATOM      5  N   UNL     1       1.930   8.723  19.597  0.00  0.00    +0.000 N 
ATOM      6  C   UNL     1       2.268   7.895  18.556  0.00  0.00    +0.000 C 
ATOM      7  O   UNL     1       1.741   7.876  17.451  0.00  0.00    +0.000 OA
ATOM      8  N   UNL     1       3.339   7.057  18.917  0.00  0.00    +0.000 N 
ATOM      9  N   UNL     1       0.293  10.101  18.431  0.00  0.00    +0.000 NA
ATOM     10  H   UNL     1       2.249   8.515  20.528  0.00  0.00    +0.000 HD
ATOM     11  H   UNL     1       3.991   7.442  19.583  0.00  0.00    +0.000 HD
ENDROOT
BRANCH   8  12
ATOM     12  C   UNL     1       3.896   6.187  17.933  0.00  0.00    +0.000 A 
ATOM     13  C   UNL     1       4.734   6.784  16.979  0.00  0.00    +0.000 A 
ATOM     14  C   UNL     1       5.272   6.043  15.937  0.00  0.00    +0.000 A 
ATOM     15  C   UNL     1       5.004   4.685  15.863  0.00  0.00    +0.000 A 
ATOM     16  C   UNL     1       4.182   4.080  16.822  0.00  0.00    +0.000 A 
ATOM     17  C   UNL     1       3.572   4.808  17.872  0.00  0.00    +0.000 A 
BRANCH  17  18
ATOM     18  C   UNL     1       2.706   4.080  18.847  0.00  0.00    +0.000 A 
ATOM     19  C   UNL     1       1.468   3.512  18.492  0.00  0.00    +0.000 A 
ATOM     20  C   UNL     1       0.691   2.797  19.412  0.00  0.00    +0.000 A 
ATOM     21  C   UNL     1       1.100   2.682  20.735  0.00  0.00    +0.000 A 
ATOM     22  C   UNL     1       2.286   3.284  21.137  0.00  0.00    +0.000 A 
ATOM     23  C   UNL     1       3.080   3.961  20.203  0.00  0.00    +0.000 A 
ENDBRANCH  17  18
ENDBRANCH   8  12
BRANCH   1  24
ATOM     24  C   UNL     1      -1.670  11.557  17.778  0.00  0.00    +0.000 C 
BRANCH  24  25
ATOM     25  C   UNL     1      -2.483  10.531  16.934  0.00  0.00    +0.000 C 
ATOM     26  C   UNL     1      -3.280   9.548  17.831  0.00  0.00    +0.000 C 
ATOM     27  C   UNL     1      -4.470  10.216  18.524  0.00  0.00    +0.000 C 
ATOM     28  C   UNL     1      -5.417  10.848  17.511  0.00  0.00    +0.000 C 
ATOM     29  C   UNL     1      -4.690  11.804  16.570  0.00  0.00    +0.000 C 
ATOM     30  C   UNL     1      -3.468  11.153  15.922  0.00  0.00    +0.000 C 
ENDBRANCH  24  25
BRANCH  24  31
ATOM     31  N   UNL     1      -2.600  12.461  18.480  0.00  0.00    +0.000 NA
ATOM     32  H   UNL     1      -3.493  12.447  17.985  0.00  0.00    +0.000 HD
ATOM     33  H   UNL     1      -2.268  13.417  18.296  0.00  0.00    +0.000 HD
ENDBRANCH  24  31
ENDBRANCH   1  24
TORSDOF 5
ENDMDL
MODEL 6
REMARK VINA RESULT:      -7.9      1.520      3.269
REMARK  Name = 
REMARK  5 active torsions:
REMARK  status: ('A' for Active; 'I' for Inactive)
REMARK    1  A    between atoms: N_1  and  C_2
REMARK    2  A    between atoms: C_2  and  C_3
REMARK    3  A    between atoms: C_2  and  C_24
REMARK    4  A    between atoms: N_10  and  C_11
REMARK    5  A    between atoms: C_16  and  C_17
REMARK                            x       y       z     vdW  Elec       q    Type
REMARK                         _______ _______ _______ _____ _____    ______ ____
ROOT
ATOM      1  C   UNL     1      -0.094  10.271  19.320  0.00  0.00    +0.000 A 
ATOM      2  C   UNL     1       0.006  10.762  20.612  0.00  0.00    +0.000 A 
ATOM      3  S   UNL     1       1.152   9.858  21.507  0.00  0.00    +0.000 S 
ATOM      4  C   UNL     1       1.334   8.804  20.174  0.00  0.00    +0.000 A 
ATOM      5  N   UNL     1       2.144   7.728  20.438  0.00  0.00    +0.000 N 
ATOM      6  C   UNL     1       2.143   6.614  19.637  0.00  0.00    +0.000 C 
ATOM      7  O   UNL     1       1.466   6.453  18.629  0.00  0.00    +0.000 OA
ATOM      8  N   UNL     1       3.055   5.656  20.117  0.00  0.00    +0.000 N 
ATOM      9  N   UNL     1       0.679   9.132  19.088  0.00  0.00    +0.000 NA
ATOM     10  H   UNL     1       2.546   7.684  21.358  0.00  0.00    +0.000 HD
ATOM     11  H   UNL     1       3.865   6.024  20.593  0.00  0.00    +0.000 HD
ENDROOT
BRANCH   8  12
ATOM     12  C   UNL     1       3.265   4.464  19.362  0.00  0.00    +0.000 A 
ATOM     13  C   UNL     1       2.294   3.460  19.506  0.00  0.00    +0.000 A 
ATOM     14  C   UNL     1       2.436   2.234  18.872  0.00  0.00    +0.000 A 
ATOM     15  C   UNL     1       3.535   2.017  18.056  0.00  0.00    +0.000 A 
ATOM     16  C   UNL     1       4.497   3.021  17.895  0.00  0.00    +0.000 A 
ATOM     17  C   UNL     1       4.418   4.267  18.563  0.00  0.00    +0.000 A 
BRANCH  17  18
ATOM     18  C   UNL     1       5.494   5.279  18.334  0.00  0.00    +0.000 A 
ATOM     19  C   UNL     1       6.692   5.297  19.073  0.00  0.00    +0.000 A 
ATOM     20  C   UNL     1       7.706   6.228  18.815  0.00  0.00    +0.000 A 
ATOM     21  C   UNL     1       7.525   7.212  17.850  0.00  0.00    +0.000 A 
ATOM     22  C   UNL     1       6.328   7.264  17.146  0.00  0.00    +0.000 A 
ATOM     23  C   UNL     1       5.336   6.304  17.377  0.00  0.00    +0.000 A 
ENDBRANCH  17  18
ENDBRANCH   8  12
BRANCH   1  24
ATOM     24  C   UNL     1      -1.009  10.813  18.236  0.00  0.00    +0.000 C 
BRANCH  24  25
ATOM     25  C   UNL     1      -2.141   9.842  17.785  0.00  0.00    +0.000 C 
ATOM     26  C   UNL     1      -3.531  10.298  18.299  0.00  0.00    +0.000 C 
ATOM     27  C   UNL     1      -4.046  11.545  17.578  0.00  0.00    +0.000 C 
ATOM     28  C   UNL     1      -4.118  11.325  16.071  0.00  0.00    +0.000 C 
ATOM     29  C   UNL     1      -2.788  10.841  15.503  0.00  0.00    +0.000 C 
ATOM     30  C   UNL     1      -2.246   9.628  16.260  0.00  0.00    +0.000 C 
ENDBRANCH  24  25
BRANCH  24  31
ATOM     31  N   UNL     1      -1.607  12.063  18.740  0.00  0.00    +0.000 NA
ATOM     32  H   UNL     1      -2.470  11.828  19.232  0.00  0.00    +0.000 HD
ATOM     33  H   UNL     1      -1.960  12.568  17.917  0.00  0.00    +0.000 HD
ENDBRANCH  24  31
ENDBRANCH   1  24
TORSDOF 5
ENDMDL
MODEL 7
REMARK VINA RESULT:      -7.9      3.320      5.230
REMARK  Name = 
REMARK  5 active torsions:
REMARK  status: ('A' for Active; 'I' for Inactive)
REMARK    1  A    between atoms: N_1  and  C_2
REMARK    2  A    between atoms: C_2  and  C_3
REMARK    3  A    between atoms: C_2  and  C_24
REMARK    4  A    between atoms: N_10  and  C_11
REMARK    5  A    between atoms: C_16  and  C_17
REMARK                            x       y       z     vdW  Elec       q    Type
REMARK                         _______ _______ _______ _____ _____    ______ ____
ROOT
ATOM      1  C   UNL     1       1.916   7.027  20.265  0.00  0.00    +0.000 A 
ATOM      2  C   UNL     1       1.170   6.001  20.823  0.00  0.00    +0.000 A 
ATOM      3  S   UNL     1       1.718   4.484  20.249  0.00  0.00    +0.000 S 
ATOM      4  C   UNL     1       2.805   5.292  19.207  0.00  0.00    +0.000 A 
ATOM      5  N   UNL     1       3.477   4.446  18.359  0.00  0.00    +0.000 N 
ATOM      6  C   UNL     1       4.121   4.911  17.241  0.00  0.00    +0.000 C 
ATOM      7  O   UNL     1       4.188   6.081  16.883  0.00  0.00    +0.000 OA
ATOM      8  N   UNL     1       4.730   3.852  16.543  0.00  0.00    +0.000 N 
ATOM      9  N   UNL     1       2.855   6.595  19.325  0.00  0.00    +0.000 NA
ATOM     10  H   UNL     1       3.275   3.466  18.451  0.00  0.00    +0.000 HD
ATOM     11  H   UNL     1       5.043   3.078  17.108  0.00  0.00    +0.000 HD
ENDROOT
BRANCH   8  12
ATOM     12  C   UNL     1       5.528   4.150  15.398  0.00  0.00    +0.000 A 
ATOM     13  C   UNL     1       5.104   3.592  14.182  0.00  0.00    +0.000 A 
ATOM     14  C   UNL     1       5.844   3.760  13.022  0.00  0.00    +0.000 A 
ATOM     15  C   UNL     1       7.000   4.525  13.061  0.00  0.00    +0.000 A 
ATOM     16  C   UNL     1       7.420   5.099  14.268  0.00  0.00    +0.000 A 
ATOM     17  C   UNL     1       6.722   4.910  15.485  0.00  0.00    +0.000 A 
BRANCH  17  18
ATOM     18  C   UNL     1       7.245   5.558  16.725  0.00  0.00    +0.000 A 
ATOM     19  C   UNL     1       7.606   4.827  17.873  0.00  0.00    +0.000 A 
ATOM     20  C   UNL     1       8.134   5.449  19.011  0.00  0.00    +0.000 A 
ATOM     21  C   UNL     1       8.259   6.833  19.059  0.00  0.00    +0.000 A 
ATOM     22  C   UNL     1       7.853   7.592  17.968  0.00  0.00    +0.000 A 
ATOM     23  C   UNL     1       7.366   6.961  16.817  0.00  0.00    +0.000 A 
ENDBRANCH  17  18
ENDBRANCH   8  12
BRANCH   1  24
ATOM     24  C   UNL     1       1.720   8.509  20.531  0.00  0.00    +0.000 C 
BRANCH  24  25
ATOM     25  C   UNL     1       0.604   9.188  19.684  0.00  0.00    +0.000 C 
ATOM     26  C   UNL     1       0.115  10.511  20.328  0.00  0.00    +0.000 C 
ATOM     27  C   UNL     1       1.148  11.635  20.225  0.00  0.00    +0.000 C 
ATOM     28  C   UNL     1       1.536  11.899  18.775  0.00  0.00    +0.000 C 
ATOM     29  C   UNL     1       1.997  10.628  18.067  0.00  0.00    +0.000 C 
ATOM     30  C   UNL     1       0.989   9.489  18.219  0.00  0.00    +0.000 C 
ENDBRANCH  24  25
BRANCH  24  31
ATOM     31  N   UNL     1       1.414   8.668  21.965  0.00  0.00    +0.000 NA
ATOM     32  H   UNL     1       0.453   8.364  22.121  0.00  0.00    +0.000 HD
ATOM     33  H   UNL     1       1.350   9.680  22.136  0.00  0.00    +0.000 HD
ENDBRANCH  24  31
ENDBRANCH   1  24
TORSDOF 5
ENDMDL
MODEL 8
REMARK VINA RESULT:      -7.8      2.862      8.803
REMARK  Name = 
REMARK  5 active torsions:
REMARK  status: ('A' for Active; 'I' for Inactive)
REMARK    1  A    between atoms: N_1  and  C_2
REMARK    2  A    between atoms: C_2  and  C_3
REMARK    3  A    between atoms: C_2  and  C_24
REMARK    4  A    between atoms: N_10  and  C_11
REMARK    5  A    between atoms: C_16  and  C_17
REMARK                            x       y       z     vdW  Elec       q    Type
REMARK                         _______ _______ _______ _____ _____    ______ ____
ROOT
ATOM      1  C   UNL     1       4.290   5.449  18.391  0.00  0.00    +0.000 A 
ATOM      2  C   UNL     1       5.009   5.507  17.207  0.00  0.00    +0.000 A 
ATOM      3  S   UNL     1       4.795   7.029  16.454  0.00  0.00    +0.000 S 
ATOM      4  C   UNL     1       3.668   7.451  17.668  0.00  0.00    +0.000 A 
ATOM      5  N   UNL     1       3.054   8.659  17.445  0.00  0.00    +0.000 N 
ATOM      6  C   UNL     1       1.899   9.009  18.098  0.00  0.00    +0.000 C 
ATOM      7  O   UNL     1       1.310   8.332  18.931  0.00  0.00    +0.000 OA
ATOM      8  N   UNL     1       1.472  10.288  17.697  0.00  0.00    +0.000 N 
ATOM      9  N   UNL     1       3.514   6.583  18.637  0.00  0.00    +0.000 NA
ATOM     10  H   UNL     1       3.336   9.160  16.621  0.00  0.00    +0.000 HD
ATOM     11  H   UNL     1       2.202  10.931  17.432  0.00  0.00    +0.000 HD
ENDROOT
BRANCH   8  12
ATOM     12  C   UNL     1       0.335  10.867  18.337  0.00  0.00    +0.000 A 
ATOM     13  C   UNL     1      -0.875  10.169  18.205  0.00  0.00    +0.000 A 
ATOM     14  C   UNL     1      -2.054  10.678  18.729  0.00  0.00    +0.000 A 
ATOM     15  C   UNL     1      -2.024  11.876  19.425  0.00  0.00    +0.000 A 
ATOM     16  C   UNL     1      -0.817  12.569  19.574  0.00  0.00    +0.000 A 
ATOM     17  C   UNL     1       0.400  12.112  19.013  0.00  0.00    +0.000 A 
BRANCH  17  18
ATOM     18  C   UNL     1       1.640  12.919  19.220  0.00  0.00    +0.000 A 
ATOM     19  C   UNL     1       2.419  13.407  18.154  0.00  0.00    +0.000 A 
ATOM     20  C   UNL     1       3.555  14.197  18.369  0.00  0.00    +0.000 A 
ATOM     21  C   UNL     1       3.983  14.472  19.662  0.00  0.00    +0.000 A 
ATOM     22  C   UNL     1       3.275  13.953  20.739  0.00  0.00    +0.000 A 
ATOM     23  C   UNL     1       2.115  13.200  20.519  0.00  0.00    +0.000 A 
ENDBRANCH  17  18
ENDBRANCH   8  12
BRANCH   1  24
ATOM     24  C   UNL     1       4.231   4.258  19.331  0.00  0.00    +0.000 C 
BRANCH  24  25
ATOM     25  C   UNL     1       3.117   3.219  19.007  0.00  0.00    +0.000 C 
ATOM     26  C   UNL     1       3.106   2.048  20.025  0.00  0.00    +0.000 C 
ATOM     27  C   UNL     1       2.585   2.468  21.400  0.00  0.00    +0.000 C 
ATOM     28  C   UNL     1       1.183   3.061  21.304  0.00  0.00    +0.000 C 
ATOM     29  C   UNL     1       1.114   4.199  20.292  0.00  0.00    +0.000 C 
ATOM     30  C   UNL     1       1.687   3.796  18.933  0.00  0.00    +0.000 C 
ENDBRANCH  24  25
BRANCH  24  31
ATOM     31  N   UNL     1       5.547   3.595  19.297  0.00  0.00    +0.000 NA
ATOM     32  H   UNL     1       5.928   3.593  20.244  0.00  0.00    +0.000 HD
ATOM     33  H   UNL     1       6.184   4.240  18.811  0.00  0.00    +0.000 HD
ENDBRANCH  24  31
ENDBRANCH   1  24
TORSDOF 5
ENDMDL
MODEL 9
REMARK VINA RESULT:      -7.7      2.332      3.399
REMARK  Name = 
REMARK  5 active torsions:
REMARK  status: ('A' for Active; 'I' for Inactive)
REMARK    1  A    between atoms: N_1  and  C_2
REMARK    2  A    between atoms: C_2  and  C_3
REMARK    3  A    between atoms: C_2  and  C_24
REMARK    4  A    between atoms: N_10  and  C_11
REMARK    5  A    between atoms: C_16  and  C_17
REMARK                            x       y       z     vdW  Elec       q    Type
REMARK                         _______ _______ _______ _____ _____    ______ ____
ROOT
ATOM      1  C   UNL     1      -0.091  11.103  19.946  0.00  0.00    +0.000 A 
ATOM      2  C   UNL     1      -0.651  10.660  21.133  0.00  0.00    +0.000 A 
ATOM      3  S   UNL     1       0.131   9.234  21.667  0.00  0.00    +0.000 S 
ATOM      4  C   UNL     1       1.058   9.227  20.231  0.00  0.00    +0.000 A 
ATOM      5  N   UNL     1       1.849   8.113  20.100  0.00  0.00    +0.000 N 
ATOM      6  C   UNL     1       2.394   7.757  18.892  0.00  0.00    +0.000 C 
ATOM      7  O   UNL     1       2.263   8.364  17.836  0.00  0.00    +0.000 OA
ATOM      8  N   UNL     1       3.160   6.583  19.020  0.00  0.00    +0.000 N 
ATOM      9  N   UNL     1       0.895  10.255  19.436  0.00  0.00    +0.000 NA
ATOM     10  H   UNL     1       1.811   7.445  20.850  0.00  0.00    +0.000 HD
ATOM     11  H   UNL     1       3.602   6.445  19.915  0.00  0.00    +0.000 HD
ENDROOT
BRANCH   8  12
ATOM     12  C   UNL     1       3.884   6.106  17.887  0.00  0.00    +0.000 A 
ATOM     13  C   UNL     1       4.709   7.039  17.239  0.00  0.00    +0.000 A 
ATOM     14  C   UNL     1       5.403   6.700  16.087  0.00  0.00    +0.000 A 
ATOM     15  C   UNL     1       5.307   5.408  15.595  0.00  0.00    +0.000 A 
ATOM     16  C   UNL     1       4.499   4.468  16.246  0.00  0.00    +0.000 A 
ATOM     17  C   UNL     1       3.734   4.785  17.395  0.00  0.00    +0.000 A 
BRANCH  17  18
ATOM     18  C   UNL     1       2.897   3.719  18.022  0.00  0.00    +0.000 A 
ATOM     19  C   UNL     1       1.491   3.782  18.067  0.00  0.00    +0.000 A 
ATOM     20  C   UNL     1       0.722   2.752  18.624  0.00  0.00    +0.000 A 
ATOM     21  C   UNL     1       1.341   1.653  19.209  0.00  0.00    +0.000 A 
ATOM     22  C   UNL     1       2.728   1.589  19.240  0.00  0.00    +0.000 A 
ATOM     23  C   UNL     1       3.491   2.601  18.644  0.00  0.00    +0.000 A 
ENDBRANCH  17  18
ENDBRANCH   8  12
BRANCH   1  24
ATOM     24  C   UNL     1      -0.523  12.333  19.168  0.00  0.00    +0.000 C 
BRANCH  24  25
ATOM     25  C   UNL     1       0.557  13.449  19.047  0.00  0.00    +0.000 C 
ATOM     26  C   UNL     1      -0.071  14.826  18.708  0.00  0.00    +0.000 C 
ATOM     27  C   UNL     1      -0.841  15.428  19.885  0.00  0.00    +0.000 C 
ATOM     28  C   UNL     1       0.050  15.573  21.114  0.00  0.00    +0.000 C 
ATOM     29  C   UNL     1       0.729  14.259  21.484  0.00  0.00    +0.000 C 
ATOM     30  C   UNL     1       1.451  13.629  20.293  0.00  0.00    +0.000 C 
ENDBRANCH  24  25
BRANCH  24  31
ATOM     31  N   UNL     1      -0.926  11.891  17.820  0.00  0.00    +0.000 NA
ATOM     32  H   UNL     1      -1.647  11.175  17.922  0.00  0.00    +0.000 HD
ATOM     33  H   UNL     1      -0.137  11.349  17.445  0.00  0.00    +0.000 HD
ENDBRANCH  24  31
ENDBRANCH   1  24
TORSDOF 5
ENDMDL
