MODEL 1
REMARK VINA RESULT:      -7.3      0.000      0.000
REMARK  Name = 
REMARK  8 active torsions:
REMARK  status: ('A' for Active; 'I' for Inactive)
REMARK    1  A    between atoms: C_1  and  C_2
REMARK    2  A    between atoms: C_2  and  C_18
REMARK    3  A    between atoms: N_3  and  O_4
REMARK    4  A    between atoms: O_4  and  C_5
REMARK    5  A    between atoms: C_5  and  C_6
REMARK    6  A    between atoms: N_8  and  N_9
REMARK    7  A    between atoms: C_10  and  C_11
REMARK    8  A    between atoms: C_16  and  O_17
REMARK                            x       y       z     vdW  Elec       q    Type
REMARK                         _______ _______ _______ _____ _____    ______ ____
ROOT
ATOM      1  C   UNL     1       8.062   7.467  18.237  0.00  0.00    +0.000 C 
ATOM      2  O   UNL     1       7.603   7.739  17.126  0.00  0.00    +0.000 OA
ATOM      3  N   UNL     1       8.781   8.373  19.016  0.00  0.00    +0.000 N 
ATOM      4  H   UNL     1       9.117   8.147  19.944  0.00  0.00    +0.000 HD
ENDROOT
BRANCH   3   5
ATOM      5  N   UNL     1       8.916   9.643  18.540  0.00  0.00    +0.000 NA
ATOM      6  C   UNL     1       9.469  10.536  19.297  0.00  0.00    +0.000 C 
BRANCH   6   7
ATOM      7  C   UNL     1       9.591  11.935  18.820  0.00  0.00    +0.000 A 
ATOM      8  C   UNL     1       8.810  12.934  19.418  0.00  0.00    +0.000 A 
ATOM      9  C   UNL     1       8.934  14.264  19.014  0.00  0.00    +0.000 A 
ATOM     10  C   UNL     1       9.836  14.604  18.008  0.00  0.00    +0.000 A 
ATOM     11  C   UNL     1      10.611  13.614  17.400  0.00  0.00    +0.000 A 
ATOM     12  C   UNL     1      10.488  12.280  17.807  0.00  0.00    +0.000 A 
BRANCH  12  13
ATOM     13  O   UNL     1      11.256  11.320  17.208  0.00  0.00    +0.000 OA
ATOM     14  H   UNL     1      12.192  11.574  17.287  0.00  0.00    +0.000 HD
ENDBRANCH  12  13
ENDBRANCH   6   7
ENDBRANCH   3   5
BRANCH   1  15
ATOM     15  C   UNL     1       7.882   6.090  18.871  0.00  0.00    +0.000 C 
BRANCH  15  16
ATOM     16  O   UNL     1       7.271   5.258  17.888  0.00  0.00    +0.000 OA
BRANCH  16  19
ATOM     17  C   UNL     1       5.154   5.057  16.309  0.00  0.00    +0.000 C 
ATOM     18  C   UNL     1       5.238   4.366  17.664  0.00  0.00    +0.000 C 
ATOM     19  N   UNL     1       6.272   4.456  18.459  0.00  0.00    +0.000 NA
BRANCH  18  20
ATOM     20  C   UNL     1       4.062   3.585  18.056  0.00  0.00    +0.000 A 
ATOM     21  C   UNL     1       2.888   3.382  17.346  0.00  0.00    +0.000 A 
ATOM     22  C   UNL     1       1.939   2.588  18.054  0.00  0.00    +0.000 A 
ATOM     23  C   UNL     1       2.416   2.196  19.282  0.00  0.00    +0.000 A 
ATOM     24  S   UNL     1       3.999   2.776  19.570  0.00  0.00    +0.000 S 
ENDBRANCH  18  20
ENDBRANCH  16  19
ENDBRANCH  15  16
ENDBRANCH   1  15
TORSDOF 7
ENDMDL
MODEL 2
REMARK VINA RESULT:      -7.2      1.902      2.374
REMARK  Name = 
REMARK  8 active torsions:
REMARK  status: ('A' for Active; 'I' for Inactive)
REMARK    1  A    between atoms: C_1  and  C_2
REMARK    2  A    between atoms: C_2  and  C_18
REMARK    3  A    between atoms: N_3  and  O_4
REMARK    4  A    between atoms: O_4  and  C_5
REMARK    5  A    between atoms: C_5  and  C_6
REMARK    6  A    between atoms: N_8  and  N_9
REMARK    7  A    between atoms: C_10  and  C_11
REMARK    8  A    between atoms: C_16  and  O_17
REMARK                            x       y       z     vdW  Elec       q    Type
REMARK                         _______ _______ _______ _____ _____    ______ ____
ROOT
ATOM      1  C   UNL     1       7.576   6.722  18.246  0.00  0.00    +0.000 C 
ATOM      2  O   UNL     1       8.299   6.231  19.117  0.00  0.00    +0.000 OA
ATOM      3  N   UNL     1       7.686   8.042  17.810  0.00  0.00    +0.000 N 
ATOM      4  H   UNL     1       7.111   8.419  17.065  0.00  0.00    +0.000 HD
ENDROOT
BRANCH   3   5
ATOM      5  N   UNL     1       8.693   8.796  18.332  0.00  0.00    +0.000 NA
ATOM      6  C   UNL     1       8.650  10.081  18.184  0.00  0.00    +0.000 C 
BRANCH   6   7
ATOM      7  C   UNL     1       9.755  10.922  18.707  0.00  0.00    +0.000 A 
ATOM      8  C   UNL     1      10.588  11.600  17.804  0.00  0.00    +0.000 A 
ATOM      9  C   UNL     1      11.610  12.427  18.271  0.00  0.00    +0.000 A 
ATOM     10  C   UNL     1      11.809  12.581  19.641  0.00  0.00    +0.000 A 
ATOM     11  C   UNL     1      10.992  11.901  20.547  0.00  0.00    +0.000 A 
ATOM     12  C   UNL     1       9.965  11.073  20.079  0.00  0.00    +0.000 A 
BRANCH  12  13
ATOM     13  O   UNL     1       9.167  10.417  20.976  0.00  0.00    +0.000 OA
ATOM     14  H   UNL     1       8.462   9.957  20.487  0.00  0.00    +0.000 HD
ENDBRANCH  12  13
ENDBRANCH   6   7
ENDBRANCH   3   5
BRANCH   1  15
ATOM     15  C   UNL     1       6.478   5.916  17.558  0.00  0.00    +0.000 C 
BRANCH  15  16
ATOM     16  O   UNL     1       6.510   4.607  18.120  0.00  0.00    +0.000 OA
BRANCH  16  19
ATOM     17  C   UNL     1       4.296   3.573  17.097  0.00  0.00    +0.000 C 
ATOM     18  C   UNL     1       4.429   3.938  18.570  0.00  0.00    +0.000 C 
ATOM     19  N   UNL     1       5.511   4.452  19.093  0.00  0.00    +0.000 NA
BRANCH  18  20
ATOM     20  C   UNL     1       3.244   3.694  19.397  0.00  0.00    +0.000 A 
ATOM     21  C   UNL     1       2.721   4.487  20.407  0.00  0.00    +0.000 A 
ATOM     22  C   UNL     1       1.569   3.916  21.024  0.00  0.00    +0.000 A 
ATOM     23  C   UNL     1       1.237   2.706  20.463  0.00  0.00    +0.000 A 
ATOM     24  S   UNL     1       2.301   2.272  19.197  0.00  0.00    +0.000 S 
ENDBRANCH  18  20
ENDBRANCH  16  19
ENDBRANCH  15  16
ENDBRANCH   1  15
TORSDOF 7
ENDMDL
MODEL 3
REMARK VINA RESULT:      -7.1      5.149      7.426
REMARK  Name = 
REMARK  8 active torsions:
REMARK  status: ('A' for Active; 'I' for Inactive)
REMARK    1  A    between atoms: C_1  and  C_2
REMARK    2  A    between atoms: C_2  and  C_18
REMARK    3  A    between atoms: N_3  and  O_4
REMARK    4  A    between atoms: O_4  and  C_5
REMARK    5  A    between atoms: C_5  and  C_6
REMARK    6  A    between atoms: N_8  and  N_9
REMARK    7  A    between atoms: C_10  and  C_11
REMARK    8  A    between atoms: C_16  and  O_17
REMARK                            x       y       z     vdW  Elec       q    Type
REMARK                         _______ _______ _______ _____ _____    ______ ____
ROOT
ATOM      1  C   UNL     1       2.407   3.886  19.835  0.00  0.00    +0.000 C 
ATOM      2  O   UNL     1       1.538   3.926  18.961  0.00  0.00    +0.000 OA
ATOM      3  N   UNL     1       2.741   4.976  20.638  0.00  0.00    +0.000 N 
ATOM      4  H   UNL     1       3.430   4.916  21.379  0.00  0.00    +0.000 HD
ENDROOT
BRANCH   3   5
ATOM      5  N   UNL     1       2.013   6.117  20.485  0.00  0.00    +0.000 NA
ATOM      6  C   UNL     1       2.445   7.029  19.674  0.00  0.00    +0.000 C 
BRANCH   6   7
ATOM      7  C   UNL     1       1.693   8.298  19.520  0.00  0.00    +0.000 A 
ATOM      8  C   UNL     1       1.468   8.810  18.234  0.00  0.00    +0.000 A 
ATOM      9  C   UNL     1       0.730   9.981  18.059  0.00  0.00    +0.000 A 
ATOM     10  C   UNL     1       0.215  10.650  19.167  0.00  0.00    +0.000 A 
ATOM     11  C   UNL     1       0.443  10.154  20.452  0.00  0.00    +0.000 A 
ATOM     12  C   UNL     1       1.181   8.977  20.628  0.00  0.00    +0.000 A 
BRANCH  12  13
ATOM     13  O   UNL     1       1.394   8.496  21.890  0.00  0.00    +0.000 OA
ATOM     14  H   UNL     1       1.763   9.211  22.438  0.00  0.00    +0.000 HD
ENDBRANCH  12  13
ENDBRANCH   6   7
ENDBRANCH   3   5
BRANCH   1  15
ATOM     15  C   UNL     1       3.210   2.620  20.119  0.00  0.00    +0.000 C 
BRANCH  15  16
ATOM     16  O   UNL     1       4.254   2.564  19.151  0.00  0.00    +0.000 OA
BRANCH  16  19
ATOM     17  C   UNL     1       4.756   3.804  16.864  0.00  0.00    +0.000 C 
ATOM     18  C   UNL     1       5.389   4.225  18.184  0.00  0.00    +0.000 C 
ATOM     19  N   UNL     1       5.156   3.624  19.322  0.00  0.00    +0.000 NA
BRANCH  18  20
ATOM     20  C   UNL     1       6.312   5.360  18.116  0.00  0.00    +0.000 A 
ATOM     21  C   UNL     1       7.393   5.642  18.937  0.00  0.00    +0.000 A 
ATOM     22  C   UNL     1       8.052   6.859  18.595  0.00  0.00    +0.000 A 
ATOM     23  C   UNL     1       7.463   7.472  17.514  0.00  0.00    +0.000 A 
ATOM     24  S   UNL     1       6.133   6.577  16.916  0.00  0.00    +0.000 S 
ENDBRANCH  18  20
ENDBRANCH  16  19
ENDBRANCH  15  16
ENDBRANCH   1  15
TORSDOF 7
ENDMDL
MODEL 4
REMARK VINA RESULT:      -7.1      5.161      6.870
REMARK  Name = 
REMARK  8 active torsions:
REMARK  status: ('A' for Active; 'I' for Inactive)
REMARK    1  A    between atoms: C_1  and  C_2
REMARK    2  A    between atoms: C_2  and  C_18
REMARK    3  A    between atoms: N_3  and  O_4
REMARK    4  A    between atoms: O_4  and  C_5
REMARK    5  A    between atoms: C_5  and  C_6
REMARK    6  A    between atoms: N_8  and  N_9
REMARK    7  A    between atoms: C_10  and  C_11
REMARK    8  A    between atoms: C_16  and  O_17
REMARK                            x       y       z     vdW  Elec       q    Type
REMARK                         _______ _______ _______ _____ _____    ______ ____
ROOT
ATOM      1  C   UNL     1       7.658   4.971  18.196  0.00  0.00    +0.000 C 
ATOM      2  O   UNL     1       8.472   4.064  18.006  0.00  0.00    +0.000 OA
ATOM      3  N   UNL     1       6.988   5.632  17.168  0.00  0.00    +0.000 N 
ATOM      4  H   UNL     1       6.292   6.347  17.343  0.00  0.00    +0.000 HD
ENDROOT
BRANCH   3   5
ATOM      5  N   UNL     1       7.201   5.195  15.895  0.00  0.00    +0.000 NA
ATOM      6  C   UNL     1       6.178   4.931  15.148  0.00  0.00    +0.000 C 
BRANCH   6   7
ATOM      7  C   UNL     1       6.382   4.415  13.772  0.00  0.00    +0.000 A 
ATOM      8  C   UNL     1       5.492   3.460  13.258  0.00  0.00    +0.000 A 
ATOM      9  C   UNL     1       5.639   2.987  11.954  0.00  0.00    +0.000 A 
ATOM     10  C   UNL     1       6.677   3.462  11.155  0.00  0.00    +0.000 A 
ATOM     11  C   UNL     1       7.575   4.404  11.662  0.00  0.00    +0.000 A 
ATOM     12  C   UNL     1       7.426   4.880  12.970  0.00  0.00    +0.000 A 
BRANCH  12  13
ATOM     13  O   UNL     1       8.307   5.808  13.454  0.00  0.00    +0.000 OA
ATOM     14  H   UNL     1       8.266   5.799  14.426  0.00  0.00    +0.000 HD
ENDBRANCH  12  13
ENDBRANCH   6   7
ENDBRANCH   3   5
BRANCH   1  15
ATOM     15  C   UNL     1       7.308   5.460  19.599  0.00  0.00    +0.000 C 
BRANCH  15  16
ATOM     16  O   UNL     1       5.942   5.867  19.568  0.00  0.00    +0.000 OA
BRANCH  16  19
ATOM     17  C   UNL     1       3.476   6.509  18.845  0.00  0.00    +0.000 C 
ATOM     18  C   UNL     1       3.876   5.092  19.236  0.00  0.00    +0.000 C 
ATOM     19  N   UNL     1       5.086   4.756  19.598  0.00  0.00    +0.000 NA
BRANCH  18  20
ATOM     20  C   UNL     1       2.804   4.094  19.201  0.00  0.00    +0.000 A 
ATOM     21  C   UNL     1       1.641   4.054  19.955  0.00  0.00    +0.000 A 
ATOM     22  C   UNL     1       0.836   2.910  19.678  0.00  0.00    +0.000 A 
ATOM     23  C   UNL     1       1.400   2.111  18.712  0.00  0.00    +0.000 A 
ATOM     24  S   UNL     1       2.882   2.745  18.141  0.00  0.00    +0.000 S 
ENDBRANCH  18  20
ENDBRANCH  16  19
ENDBRANCH  15  16
ENDBRANCH   1  15
TORSDOF 7
ENDMDL
MODEL 5
REMARK VINA RESULT:      -6.9      2.939      9.940
REMARK  Name = 
REMARK  8 active torsions:
REMARK  status: ('A' for Active; 'I' for Inactive)
REMARK    1  A    between atoms: C_1  and  C_2
REMARK    2  A    between atoms: C_2  and  C_18
REMARK    3  A    between atoms: N_3  and  O_4
REMARK    4  A    between atoms: O_4  and  C_5
REMARK    5  A    between atoms: C_5  and  C_6
REMARK    6  A    between atoms: N_8  and  N_9
REMARK    7  A    between atoms: C_10  and  C_11
REMARK    8  A    between atoms: C_16  and  O_17
REMARK                            x       y       z     vdW  Elec       q    Type
REMARK                         _______ _______ _______ _____ _____    ______ ____
ROOT
ATOM      1  C   UNL     1       7.173   6.843  17.962  0.00  0.00    +0.000 C 
ATOM      2  O   UNL     1       7.662   6.042  18.761  0.00  0.00    +0.000 OA
ATOM      3  N   UNL     1       5.834   6.821  17.572  0.00  0.00    +0.000 N 
ATOM      4  H   UNL     1       5.438   7.512  16.945  0.00  0.00    +0.000 HD
ENDROOT
BRANCH   3   5
ATOM      5  N   UNL     1       5.021   5.904  18.167  0.00  0.00    +0.000 NA
ATOM      6  C   UNL     1       4.345   5.093  17.418  0.00  0.00    +0.000 C 
BRANCH   6   7
ATOM      7  C   UNL     1       3.420   4.113  18.038  0.00  0.00    +0.000 A 
ATOM      8  C   UNL     1       2.051   4.179  17.743  0.00  0.00    +0.000 A 
ATOM      9  C   UNL     1       1.166   3.246  18.282  0.00  0.00    +0.000 A 
ATOM     10  C   UNL     1       1.642   2.241  19.122  0.00  0.00    +0.000 A 
ATOM     11  C   UNL     1       3.002   2.173  19.431  0.00  0.00    +0.000 A 
ATOM     12  C   UNL     1       3.890   3.109  18.887  0.00  0.00    +0.000 A 
BRANCH  12  13
ATOM     13  O   UNL     1       5.222   3.029  19.191  0.00  0.00    +0.000 OA
ATOM     14  H   UNL     1       5.571   2.189  18.845  0.00  0.00    +0.000 HD
ENDBRANCH  12  13
ENDBRANCH   6   7
ENDBRANCH   3   5
BRANCH   1  15
ATOM     15  C   UNL     1       8.003   7.948  17.315  0.00  0.00    +0.000 C 
BRANCH  15  16
ATOM     16  O   UNL     1       8.196   8.956  18.304  0.00  0.00    +0.000 OA
BRANCH  16  19
ATOM     17  C   UNL     1       9.512  10.513  19.995  0.00  0.00    +0.000 C 
ATOM     18  C   UNL     1       9.203  10.930  18.563  0.00  0.00    +0.000 C 
ATOM     19  N   UNL     1       8.552  10.178  17.715  0.00  0.00    +0.000 NA
BRANCH  18  20
ATOM     20  C   UNL     1       9.669  12.263  18.172  0.00  0.00    +0.000 A 
ATOM     21  C   UNL     1      10.800  12.600  17.442  0.00  0.00    +0.000 A 
ATOM     22  C   UNL     1      10.959  14.007  17.278  0.00  0.00    +0.000 A 
ATOM     23  C   UNL     1       9.940  14.709  17.877  0.00  0.00    +0.000 A 
ATOM     24  S   UNL     1       8.799  13.674  18.621  0.00  0.00    +0.000 S 
ENDBRANCH  18  20
ENDBRANCH  16  19
ENDBRANCH  15  16
ENDBRANCH   1  15
TORSDOF 7
ENDMDL
MODEL 6
REMARK VINA RESULT:      -6.9      6.226      7.436
REMARK  Name = 
REMARK  8 active torsions:
REMARK  status: ('A' for Active; 'I' for Inactive)
REMARK    1  A    between atoms: C_1  and  C_2
REMARK    2  A    between atoms: C_2  and  C_18
REMARK    3  A    between atoms: N_3  and  O_4
REMARK    4  A    between atoms: O_4  and  C_5
REMARK    5  A    between atoms: C_5  and  C_6
REMARK    6  A    between atoms: N_8  and  N_9
REMARK    7  A    between atoms: C_10  and  C_11
REMARK    8  A    between atoms: C_16  and  O_17
REMARK                            x       y       z     vdW  Elec       q    Type
REMARK                         _______ _______ _______ _____ _____    ______ ____
ROOT
ATOM      1  C   UNL     1       1.771   3.996  20.893  0.00  0.00    +0.000 C 
ATOM      2  O   UNL     1       0.689   3.846  20.320  0.00  0.00    +0.000 OA
ATOM      3  N   UNL     1       2.362   5.241  21.107  0.00  0.00    +0.000 N 
ATOM      4  H   UNL     1       3.232   5.350  21.616  0.00  0.00    +0.000 HD
ENDROOT
BRANCH   3   5
ATOM      5  N   UNL     1       1.664   6.344  20.720  0.00  0.00    +0.000 NA
ATOM      6  C   UNL     1       2.271   7.256  20.031  0.00  0.00    +0.000 C 
BRANCH   6   7
ATOM      7  C   UNL     1       1.545   8.486  19.632  0.00  0.00    +0.000 A 
ATOM      8  C   UNL     1       1.554   8.882  18.286  0.00  0.00    +0.000 A 
ATOM      9  C   UNL     1       0.848  10.014  17.878  0.00  0.00    +0.000 A 
ATOM     10  C   UNL     1       0.130  10.760  18.811  0.00  0.00    +0.000 A 
ATOM     11  C   UNL     1       0.124  10.379  20.155  0.00  0.00    +0.000 A 
ATOM     12  C   UNL     1       0.831   9.242  20.564  0.00  0.00    +0.000 A 
BRANCH  12  13
ATOM     13  O   UNL     1       0.813   8.875  21.882  0.00  0.00    +0.000 OA
ATOM     14  H   UNL     1       1.238   8.004  21.968  0.00  0.00    +0.000 HD
ENDBRANCH  12  13
ENDBRANCH   6   7
ENDBRANCH   3   5
BRANCH   1  15
ATOM     15  C   UNL     1       2.574   2.813  21.426  0.00  0.00    +0.000 C 
BRANCH  15  16
ATOM     16  O   UNL     1       3.306   2.279  20.326  0.00  0.00    +0.000 OA
BRANCH  16  19
ATOM     17  C   UNL     1       3.258   2.087  17.685  0.00  0.00    +0.000 C 
ATOM     18  C   UNL     1       4.054   3.160  18.416  0.00  0.00    +0.000 C 
ATOM     19  N   UNL     1       4.093   3.268  19.718  0.00  0.00    +0.000 NA
BRANCH  18  20
ATOM     20  C   UNL     1       4.811   4.083  17.567  0.00  0.00    +0.000 A 
ATOM     21  C   UNL     1       4.740   4.242  16.192  0.00  0.00    +0.000 A 
ATOM     22  C   UNL     1       5.654   5.217  15.694  0.00  0.00    +0.000 A 
ATOM     23  C   UNL     1       6.392   5.785  16.705  0.00  0.00    +0.000 A 
ATOM     24  S   UNL     1       5.976   5.151  18.238  0.00  0.00    +0.000 S 
ENDBRANCH  18  20
ENDBRANCH  16  19
ENDBRANCH  15  16
ENDBRANCH   1  15
TORSDOF 7
ENDMDL
MODEL 7
REMARK VINA RESULT:      -6.9      1.706      1.948
REMARK  Name = 
REMARK  8 active torsions:
REMARK  status: ('A' for Active; 'I' for Inactive)
REMARK    1  A    between atoms: C_1  and  C_2
REMARK    2  A    between atoms: C_2  and  C_18
REMARK    3  A    between atoms: N_3  and  O_4
REMARK    4  A    between atoms: O_4  and  C_5
REMARK    5  A    between atoms: C_5  and  C_6
REMARK    6  A    between atoms: N_8  and  N_9
REMARK    7  A    between atoms: C_10  and  C_11
REMARK    8  A    between atoms: C_16  and  O_17
REMARK                            x       y       z     vdW  Elec       q    Type
REMARK                         _______ _______ _______ _____ _____    ______ ____
ROOT
ATOM      1  C   UNL     1       7.762   7.269  17.943  0.00  0.00    +0.000 C 
ATOM      2  O   UNL     1       7.645   7.647  16.775  0.00  0.00    +0.000 OA
ATOM      3  N   UNL     1       8.438   7.996  18.923  0.00  0.00    +0.000 N 
ATOM      4  H   UNL     1       8.490   7.691  19.888  0.00  0.00    +0.000 HD
ENDROOT
BRANCH   3   5
ATOM      5  N   UNL     1       8.929   9.217  18.574  0.00  0.00    +0.000 NA
ATOM      6  C   UNL     1       9.284  10.037  19.511  0.00  0.00    +0.000 C 
BRANCH   6   7
ATOM      7  C   UNL     1       9.783  11.389  19.159  0.00  0.00    +0.000 A 
ATOM      8  C   UNL     1       9.769  11.798  17.817  0.00  0.00    +0.000 A 
ATOM      9  C   UNL     1      10.197  13.078  17.464  0.00  0.00    +0.000 A 
ATOM     10  C   UNL     1      10.644  13.957  18.448  0.00  0.00    +0.000 A 
ATOM     11  C   UNL     1      10.672  13.555  19.785  0.00  0.00    +0.000 A 
ATOM     12  C   UNL     1      10.240  12.272  20.140  0.00  0.00    +0.000 A 
BRANCH  12  13
ATOM     13  O   UNL     1      10.266  11.891  21.453  0.00  0.00    +0.000 OA
ATOM     14  H   UNL     1      10.784  12.542  21.957  0.00  0.00    +0.000 HD
ENDBRANCH  12  13
ENDBRANCH   6   7
ENDBRANCH   3   5
BRANCH   1  15
ATOM     15  C   UNL     1       7.170   5.949  18.429  0.00  0.00    +0.000 C 
BRANCH  15  16
ATOM     16  O   UNL     1       5.931   5.773  17.747  0.00  0.00    +0.000 OA
BRANCH  16  19
ATOM     17  C   UNL     1       4.213   3.991  16.806  0.00  0.00    +0.000 C 
ATOM     18  C   UNL     1       4.054   4.645  18.172  0.00  0.00    +0.000 C 
ATOM     19  N   UNL     1       4.889   5.529  18.652  0.00  0.00    +0.000 NA
BRANCH  18  20
ATOM     20  C   UNL     1       2.875   4.237  18.941  0.00  0.00    +0.000 A 
ATOM     21  C   UNL     1       2.305   4.863  20.040  0.00  0.00    +0.000 A 
ATOM     22  C   UNL     1       1.178   4.162  20.559  0.00  0.00    +0.000 A 
ATOM     23  C   UNL     1       0.909   3.024  19.836  0.00  0.00    +0.000 A 
ATOM     24  S   UNL     1       2.004   2.813  18.540  0.00  0.00    +0.000 S 
ENDBRANCH  18  20
ENDBRANCH  16  19
ENDBRANCH  15  16
ENDBRANCH   1  15
TORSDOF 7
ENDMDL
MODEL 8
REMARK VINA RESULT:      -6.9      1.128      1.298
REMARK  Name = 
REMARK  8 active torsions:
REMARK  status: ('A' for Active; 'I' for Inactive)
REMARK    1  A    between atoms: C_1  and  C_2
REMARK    2  A    between atoms: C_2  and  C_18
REMARK    3  A    between atoms: N_3  and  O_4
REMARK    4  A    between atoms: O_4  and  C_5
REMARK    5  A    between atoms: C_5  and  C_6
REMARK    6  A    between atoms: N_8  and  N_9
REMARK    7  A    between atoms: C_10  and  C_11
REMARK    8  A    between atoms: C_16  and  O_17
REMARK                            x       y       z     vdW  Elec       q    Type
REMARK                         _______ _______ _______ _____ _____    ______ ____
ROOT
ATOM      1  C   UNL     1       7.849   7.296  18.058  0.00  0.00    +0.000 C 
ATOM      2  O   UNL     1       7.429   7.546  16.925  0.00  0.00    +0.000 OA
ATOM      3  N   UNL     1       8.574   8.206  18.828  0.00  0.00    +0.000 N 
ATOM      4  H   UNL     1       8.876   7.999  19.772  0.00  0.00    +0.000 HD
ENDROOT
BRANCH   3   5
ATOM      5  N   UNL     1       8.760   9.455  18.317  0.00  0.00    +0.000 NA
ATOM      6  C   UNL     1       9.581  10.256  18.916  0.00  0.00    +0.000 C 
BRANCH   6   7
ATOM      7  C   UNL     1       9.771  11.636  18.405  0.00  0.00    +0.000 A 
ATOM      8  C   UNL     1       8.708  12.548  18.480  0.00  0.00    +0.000 A 
ATOM      9  C   UNL     1       8.873  13.862  18.041  0.00  0.00    +0.000 A 
ATOM     10  C   UNL     1      10.099  14.273  17.522  0.00  0.00    +0.000 A 
ATOM     11  C   UNL     1      11.159  13.369  17.433  0.00  0.00    +0.000 A 
ATOM     12  C   UNL     1      10.995  12.051  17.875  0.00  0.00    +0.000 A 
BRANCH  12  13
ATOM     13  O   UNL     1      12.042  11.176  17.789  0.00  0.00    +0.000 OA
ATOM     14  H   UNL     1      11.721  10.283  18.006  0.00  0.00    +0.000 HD
ENDBRANCH  12  13
ENDBRANCH   6   7
ENDBRANCH   3   5
BRANCH   1  15
ATOM     15  C   UNL     1       7.610   5.946  18.728  0.00  0.00    +0.000 C 
BRANCH  15  16
ATOM     16  O   UNL     1       6.542   5.317  18.026  0.00  0.00    +0.000 OA
BRANCH  16  19
ATOM     17  C   UNL     1       4.615   3.993  16.782  0.00  0.00    +0.000 C 
ATOM     18  C   UNL     1       4.557   4.326  18.267  0.00  0.00    +0.000 C 
ATOM     19  N   UNL     1       5.496   4.981  18.898  0.00  0.00    +0.000 NA
BRANCH  18  20
ATOM     20  C   UNL     1       3.356   3.878  18.976  0.00  0.00    +0.000 A 
ATOM     21  C   UNL     1       3.271   3.168  20.164  0.00  0.00    +0.000 A 
ATOM     22  C   UNL     1       1.929   2.872  20.543  0.00  0.00    +0.000 A 
ATOM     23  C   UNL     1       1.022   3.373  19.639  0.00  0.00    +0.000 A 
ATOM     24  S   UNL     1       1.788   4.199  18.353  0.00  0.00    +0.000 S 
ENDBRANCH  18  20
ENDBRANCH  16  19
ENDBRANCH  15  16
ENDBRANCH   1  15
TORSDOF 7
ENDMDL
MODEL 9
REMARK VINA RESULT:      -6.8      1.891      2.323
REMARK  Name = 
REMARK  8 active torsions:
REMARK  status: ('A' for Active; 'I' for Inactive)
REMARK    1  A    between atoms: C_1  and  C_2
REMARK    2  A    between atoms: C_2  and  C_18
REMARK    3  A    between atoms: N_3  and  O_4
REMARK    4  A    between atoms: O_4  and  C_5
REMARK    5  A    between atoms: C_5  and  C_6
REMARK    6  A    between atoms: N_8  and  N_9
REMARK    7  A    between atoms: C_10  and  C_11
REMARK    8  A    between atoms: C_16  and  O_17
REMARK                            x       y       z     vdW  Elec       q    Type
REMARK                         _______ _______ _______ _____ _____    ______ ____
ROOT
ATOM      1  C   UNL     1       7.258   7.365  17.635  0.00  0.00    +0.000 C 
ATOM      2  O   UNL     1       7.999   6.662  18.326  0.00  0.00    +0.000 OA
ATOM      3  N   UNL     1       7.485   8.720  17.397  0.00  0.00    +0.000 N 
ATOM      4  H   UNL     1       6.888   9.274  16.793  0.00  0.00    +0.000 HD
ENDROOT
BRANCH   3   5
ATOM      5  N   UNL     1       8.626   9.266  17.903  0.00  0.00    +0.000 NA
ATOM      6  C   UNL     1       8.622  10.515  18.242  0.00  0.00    +0.000 C 
BRANCH   6   7
ATOM      7  C   UNL     1       9.862  11.144  18.758  0.00  0.00    +0.000 A 
ATOM      8  C   UNL     1      10.818  11.622  17.849  0.00  0.00    +0.000 A 
ATOM      9  C   UNL     1      11.975  12.253  18.307  0.00  0.00    +0.000 A 
ATOM     10  C   UNL     1      12.187  12.407  19.675  0.00  0.00    +0.000 A 
ATOM     11  C   UNL     1      11.247  11.924  20.588  0.00  0.00    +0.000 A 
ATOM     12  C   UNL     1      10.085  11.294  20.128  0.00  0.00    +0.000 A 
BRANCH  12  13
ATOM     13  O   UNL     1       9.167  10.831  21.031  0.00  0.00    +0.000 OA
ATOM     14  H   UNL     1       9.558  10.871  21.921  0.00  0.00    +0.000 HD
ENDBRANCH  12  13
ENDBRANCH   6   7
ENDBRANCH   3   5
BRANCH   1  15
ATOM     15  C   UNL     1       6.004   6.806  16.969  0.00  0.00    +0.000 C 
BRANCH  15  16
ATOM     16  O   UNL     1       6.140   5.388  16.953  0.00  0.00    +0.000 OA
BRANCH  16  19
ATOM     17  C   UNL     1       5.379   4.534  19.342  0.00  0.00    +0.000 C 
ATOM     18  C   UNL     1       4.526   4.351  18.094  0.00  0.00    +0.000 C 
ATOM     19  N   UNL     1       4.885   4.762  16.906  0.00  0.00    +0.000 NA
BRANCH  18  20
ATOM     20  C   UNL     1       3.251   3.657  18.288  0.00  0.00    +0.000 A 
ATOM     21  C   UNL     1       1.975   4.198  18.340  0.00  0.00    +0.000 A 
ATOM     22  C   UNL     1       0.964   3.223  18.579  0.00  0.00    +0.000 A 
ATOM     23  C   UNL     1       1.492   1.958  18.693  0.00  0.00    +0.000 A 
ATOM     24  S   UNL     1       3.192   1.954  18.504  0.00  0.00    +0.000 S 
ENDBRANCH  18  20
ENDBRANCH  16  19
ENDBRANCH  15  16
ENDBRANCH   1  15
TORSDOF 7
ENDMDL
