MODEL 1
REMARK VINA RESULT:      -8.4      0.000      0.000
REMARK  Name = 
REMARK  9 active torsions:
REMARK  status: ('A' for Active; 'I' for Inactive)
REMARK    1  A    between atoms: C_1  and  C_2
REMARK    2  A    between atoms: C_2  and  C_3
REMARK    3  A    between atoms: C_2  and  N_4
REMARK    4  A    between atoms: C_5  and  C_7
REMARK    5  A    between atoms: N_10  and  C_11
REMARK    6  A    between atoms: C_11  and  C_12
REMARK    7  A    between atoms: N_22  and  C_23
REMARK    8  A    between atoms: C_23  and  C_24
REMARK    9  A    between atoms: C_23  and  C_25
REMARK                            x       y       z     vdW  Elec       q    Type
REMARK                         _______ _______ _______ _____ _____    ______ ____
ROOT
ATOM      1  C   UNL     1       3.133   6.933  18.360  0.00  0.00    +0.000 A 
ATOM      2  N   UNL     1       4.411   6.845  17.902  0.00  0.00    +0.000 NA
ATOM      3  C   UNL     1       5.117   5.712  18.171  0.00  0.00    +0.000 A 
ATOM      4  N   UNL     1       6.429   5.597  17.780  0.00  0.00    +0.000 N 
ATOM      5  C   UNL     1       4.467   4.673  18.884  0.00  0.00    +0.000 A 
ATOM      6  N   UNL     1       4.905   3.427  19.285  0.00  0.00    +0.000 NA
ATOM      7  C   UNL     1       3.857   2.867  19.849  0.00  0.00    +0.000 A 
ATOM      8  N   UNL     1       2.758   3.694  19.842  0.00  0.00    +0.000 N 
ATOM      9  C   UNL     1       3.146   4.874  19.235  0.00  0.00    +0.000 A 
ATOM     10  N   UNL     1       2.413   5.983  19.011  0.00  0.00    +0.000 NA
ATOM     11  H   UNL     1       7.061   5.119  18.410  0.00  0.00    +0.000 HD
ENDROOT
BRANCH   1  13
ATOM     12  N   UNL     1       1.616   8.743  19.191  0.00  0.00    +0.000 N 
ATOM     13  C   UNL     1       2.435   8.272  18.163  0.00  0.00    +0.000 C 
ATOM     14  O   UNL     1       2.582   8.926  17.123  0.00  0.00    +0.000 OA
ATOM     15  H   UNL     1       1.439   8.114  19.969  0.00  0.00    +0.000 HD
BRANCH  12  17
ATOM     16  C   UNL     1      -0.376   9.860  18.211  0.00  0.00    +0.000 C 
ATOM     17  C   UNL     1       0.878  10.003  19.074  0.00  0.00    +0.000 C 
ATOM     18  C   UNL     1       0.496  10.564  20.438  0.00  0.00    +0.000 C 
ENDBRANCH  12  17
ENDBRANCH   1  13
BRANCH   8  19
ATOM     19  C   UNL     1       1.431   3.357  20.344  0.00  0.00    +0.000 C 
ATOM     20  C   UNL     1       0.605   2.568  19.321  0.00  0.00    +0.000 C 
ATOM     21  C   UNL     1       1.480   2.577  21.661  0.00  0.00    +0.000 C 
ENDBRANCH   8  19
BRANCH   4  22
ATOM     22  C   UNL     1       6.912   6.198  16.565  0.00  0.00    +0.000 C 
BRANCH  22  23
ATOM     23  C   UNL     1       6.607   5.315  15.369  0.00  0.00    +0.000 A 
ATOM     24  C   UNL     1       7.464   5.313  14.255  0.00  0.00    +0.000 A 
ATOM     25  C   UNL     1       7.205   4.489  13.156  0.00  0.00    +0.000 A 
ATOM     26  C   UNL     1       6.080   3.670  13.156  0.00  0.00    +0.000 A 
ATOM     27 CL   UNL     1       5.762   2.653  11.805  0.00  0.00    +0.000 Cl
ATOM     28  C   UNL     1       5.210   3.668  14.244  0.00  0.00    +0.000 A 
ATOM     29  C   UNL     1       5.470   4.494  15.348  0.00  0.00    +0.000 A 
ENDBRANCH  22  23
ENDBRANCH   4  22
TORSDOF 5
ENDMDL
MODEL 2
REMARK VINA RESULT:      -8.0      4.264      6.869
REMARK  Name = 
REMARK  9 active torsions:
REMARK  status: ('A' for Active; 'I' for Inactive)
REMARK    1  A    between atoms: C_1  and  C_2
REMARK    2  A    between atoms: C_2  and  C_3
REMARK    3  A    between atoms: C_2  and  N_4
REMARK    4  A    between atoms: C_5  and  C_7
REMARK    5  A    between atoms: N_10  and  C_11
REMARK    6  A    between atoms: C_11  and  C_12
REMARK    7  A    between atoms: N_22  and  C_23
REMARK    8  A    between atoms: C_23  and  C_24
REMARK    9  A    between atoms: C_23  and  C_25
REMARK                            x       y       z     vdW  Elec       q    Type
REMARK                         _______ _______ _______ _____ _____    ______ ____
ROOT
ATOM      1  C   UNL     1       5.783   5.057  15.549  0.00  0.00    +0.000 A 
ATOM      2  N   UNL     1       6.460   6.104  16.093  0.00  0.00    +0.000 NA
ATOM      3  C   UNL     1       6.087   6.544  17.327  0.00  0.00    +0.000 A 
ATOM      4  N   UNL     1       6.701   7.634  17.895  0.00  0.00    +0.000 N 
ATOM      5  C   UNL     1       5.035   5.862  17.988  0.00  0.00    +0.000 A 
ATOM      6  N   UNL     1       4.455   6.059  19.226  0.00  0.00    +0.000 NA
ATOM      7  C   UNL     1       3.574   5.089  19.342  0.00  0.00    +0.000 A 
ATOM      8  N   UNL     1       3.548   4.274  18.235  0.00  0.00    +0.000 N 
ATOM      9  C   UNL     1       4.476   4.775  17.343  0.00  0.00    +0.000 A 
ATOM     10  N   UNL     1       4.796   4.316  16.117  0.00  0.00    +0.000 NA
ATOM     11  H   UNL     1       6.121   8.266  18.432  0.00  0.00    +0.000 HD
ENDROOT
BRANCH   1  13
ATOM     12  N   UNL     1       5.237   3.908  13.392  0.00  0.00    +0.000 N 
ATOM     13  C   UNL     1       6.137   4.696  14.113  0.00  0.00    +0.000 C 
ATOM     14  O   UNL     1       7.193   5.083  13.595  0.00  0.00    +0.000 OA
ATOM     15  H   UNL     1       4.448   3.523  13.902  0.00  0.00    +0.000 HD
BRANCH  12  17
ATOM     16  C   UNL     1       6.405   2.242  11.964  0.00  0.00    +0.000 C 
ATOM     17  C   UNL     1       5.512   3.483  12.018  0.00  0.00    +0.000 C 
ATOM     18  C   UNL     1       4.230   3.220  11.239  0.00  0.00    +0.000 C 
ENDBRANCH  12  17
ENDBRANCH   1  13
BRANCH   8  19
ATOM     19  C   UNL     1       2.720   3.084  18.068  0.00  0.00    +0.000 C 
ATOM     20  C   UNL     1       3.465   1.799  18.447  0.00  0.00    +0.000 C 
ATOM     21  C   UNL     1       1.412   3.161  18.861  0.00  0.00    +0.000 C 
ENDBRANCH   8  19
BRANCH   4  22
ATOM     22  C   UNL     1       8.094   7.917  17.675  0.00  0.00    +0.000 C 
BRANCH  22  23
ATOM     23  C   UNL     1       8.438   9.320  18.141  0.00  0.00    +0.000 A 
ATOM     24  C   UNL     1       9.135   9.514  19.345  0.00  0.00    +0.000 A 
ATOM     25  C   UNL     1       9.476  10.800  19.774  0.00  0.00    +0.000 A 
ATOM     26  C   UNL     1       9.111  11.904  19.009  0.00  0.00    +0.000 A 
ATOM     27 CL   UNL     1       9.532  13.487  19.535  0.00  0.00    +0.000 Cl
ATOM     28  C   UNL     1       8.406  11.734  17.819  0.00  0.00    +0.000 A 
ATOM     29  C   UNL     1       8.064  10.443  17.388  0.00  0.00    +0.000 A 
ENDBRANCH  22  23
ENDBRANCH   4  22
TORSDOF 5
ENDMDL
MODEL 3
REMARK VINA RESULT:      -7.8      4.380      7.038
REMARK  Name = 
REMARK  9 active torsions:
REMARK  status: ('A' for Active; 'I' for Inactive)
REMARK    1  A    between atoms: C_1  and  C_2
REMARK    2  A    between atoms: C_2  and  C_3
REMARK    3  A    between atoms: C_2  and  N_4
REMARK    4  A    between atoms: C_5  and  C_7
REMARK    5  A    between atoms: N_10  and  C_11
REMARK    6  A    between atoms: C_11  and  C_12
REMARK    7  A    between atoms: N_22  and  C_23
REMARK    8  A    between atoms: C_23  and  C_24
REMARK    9  A    between atoms: C_23  and  C_25
REMARK                            x       y       z     vdW  Elec       q    Type
REMARK                         _______ _______ _______ _____ _____    ______ ____
ROOT
ATOM      1  C   UNL     1       6.160   5.089  15.562  0.00  0.00    +0.000 A 
ATOM      2  N   UNL     1       6.737   6.227  16.032  0.00  0.00    +0.000 NA
ATOM      3  C   UNL     1       6.429   6.634  17.295  0.00  0.00    +0.000 A 
ATOM      4  N   UNL     1       6.939   7.808  17.795  0.00  0.00    +0.000 N 
ATOM      5  C   UNL     1       5.550   5.827  18.060  0.00  0.00    +0.000 A 
ATOM      6  N   UNL     1       5.072   5.965  19.348  0.00  0.00    +0.000 NA
ATOM      7  C   UNL     1       4.348   4.886  19.555  0.00  0.00    +0.000 A 
ATOM      8  N   UNL     1       4.326   4.056  18.459  0.00  0.00    +0.000 N 
ATOM      9  C   UNL     1       5.086   4.663  17.478  0.00  0.00    +0.000 A 
ATOM     10  N   UNL     1       5.345   4.230  16.228  0.00  0.00    +0.000 NA
ATOM     11  H   UNL     1       6.333   8.364  18.384  0.00  0.00    +0.000 HD
ENDROOT
BRANCH   1  13
ATOM     12  N   UNL     1       5.516   3.911  13.448  0.00  0.00    +0.000 N 
ATOM     13  C   UNL     1       6.419   4.754  14.099  0.00  0.00    +0.000 C 
ATOM     14  O   UNL     1       7.402   5.209  13.500  0.00  0.00    +0.000 OA
ATOM     15  H   UNL     1       4.797   3.475  14.017  0.00  0.00    +0.000 HD
BRANCH  12  17
ATOM     16  C   UNL     1       6.615   2.285  11.923  0.00  0.00    +0.000 C 
ATOM     17  C   UNL     1       5.705   3.507  12.053  0.00  0.00    +0.000 C 
ATOM     18  C   UNL     1       4.378   3.229  11.360  0.00  0.00    +0.000 C 
ENDBRANCH  12  17
ENDBRANCH   1  13
BRANCH   8  19
ATOM     19  C   UNL     1       3.658   2.761  18.380  0.00  0.00    +0.000 C 
ATOM     20  C   UNL     1       3.315   2.197  19.763  0.00  0.00    +0.000 C 
ATOM     21  C   UNL     1       2.388   2.806  17.525  0.00  0.00    +0.000 C 
ENDBRANCH   8  19
BRANCH   4  22
ATOM     22  C   UNL     1       8.252   8.274  17.437  0.00  0.00    +0.000 C 
BRANCH  22  23
ATOM     23  C   UNL     1       8.577   9.571  18.156  0.00  0.00    +0.000 A 
ATOM     24  C   UNL     1       8.353  10.806  17.524  0.00  0.00    +0.000 A 
ATOM     25  C   UNL     1       8.629  12.007  18.184  0.00  0.00    +0.000 A 
ATOM     26  C   UNL     1       9.146  11.983  19.476  0.00  0.00    +0.000 A 
ATOM     27 CL   UNL     1       9.484  13.461  20.290  0.00  0.00    +0.000 Cl
ATOM     28  C   UNL     1       9.389  10.769  20.115  0.00  0.00    +0.000 A 
ATOM     29  C   UNL     1       9.112   9.563  19.453  0.00  0.00    +0.000 A 
ENDBRANCH  22  23
ENDBRANCH   4  22
TORSDOF 5
ENDMDL
MODEL 4
REMARK VINA RESULT:      -7.5      0.514      1.230
REMARK  Name = 
REMARK  9 active torsions:
REMARK  status: ('A' for Active; 'I' for Inactive)
REMARK    1  A    between atoms: C_1  and  C_2
REMARK    2  A    between atoms: C_2  and  C_3
REMARK    3  A    between atoms: C_2  and  N_4
REMARK    4  A    between atoms: C_5  and  C_7
REMARK    5  A    between atoms: N_10  and  C_11
REMARK    6  A    between atoms: C_11  and  C_12
REMARK    7  A    between atoms: N_22  and  C_23
REMARK    8  A    between atoms: C_23  and  C_24
REMARK    9  A    between atoms: C_23  and  C_25
REMARK                            x       y       z     vdW  Elec       q    Type
REMARK                         _______ _______ _______ _____ _____    ______ ____
ROOT
ATOM      1  C   UNL     1       3.312   6.580  18.270  0.00  0.00    +0.000 A 
ATOM      2  N   UNL     1       4.579   6.526  17.777  0.00  0.00    +0.000 NA
ATOM      3  C   UNL     1       5.304   5.391  17.980  0.00  0.00    +0.000 A 
ATOM      4  N   UNL     1       6.607   5.309  17.553  0.00  0.00    +0.000 N 
ATOM      5  C   UNL     1       4.683   4.316  18.665  0.00  0.00    +0.000 A 
ATOM      6  N   UNL     1       5.144   3.059  19.002  0.00  0.00    +0.000 NA
ATOM      7  C   UNL     1       4.117   2.464  19.568  0.00  0.00    +0.000 A 
ATOM      8  N   UNL     1       3.009   3.278  19.622  0.00  0.00    +0.000 N 
ATOM      9  C   UNL     1       3.369   4.486  19.057  0.00  0.00    +0.000 A 
ATOM     10  N   UNL     1       2.619   5.595  18.898  0.00  0.00    +0.000 NA
ATOM     11  H   UNL     1       7.259   4.812  18.146  0.00  0.00    +0.000 HD
ENDROOT
BRANCH   1  13
ATOM     12  N   UNL     1       1.792   8.333  19.211  0.00  0.00    +0.000 N 
ATOM     13  C   UNL     1       2.595   7.918  18.147  0.00  0.00    +0.000 C 
ATOM     14  O   UNL     1       2.713   8.619  17.134  0.00  0.00    +0.000 OA
ATOM     15  H   UNL     1       1.639   7.668  19.963  0.00  0.00    +0.000 HD
BRANCH  12  17
ATOM     16  C   UNL     1      -0.038   9.576  18.079  0.00  0.00    +0.000 C 
ATOM     17  C   UNL     1       1.038   9.587  19.165  0.00  0.00    +0.000 C 
ATOM     18  C   UNL     1       0.400   9.914  20.509  0.00  0.00    +0.000 C 
ENDBRANCH  12  17
ENDBRANCH   1  13
BRANCH   8  19
ATOM     19  C   UNL     1       1.698   2.904  20.141  0.00  0.00    +0.000 C 
ATOM     20  C   UNL     1       1.117   3.971  21.076  0.00  0.00    +0.000 C 
ATOM     21  C   UNL     1       0.688   2.604  19.030  0.00  0.00    +0.000 C 
ENDBRANCH   8  19
BRANCH   4  22
ATOM     22  C   UNL     1       7.052   5.965  16.353  0.00  0.00    +0.000 C 
BRANCH  22  23
ATOM     23  C   UNL     1       6.724   5.131  15.128  0.00  0.00    +0.000 A 
ATOM     24  C   UNL     1       5.597   4.292  15.126  0.00  0.00    +0.000 A 
ATOM     25  C   UNL     1       5.273   3.534  13.996  0.00  0.00    +0.000 A 
ATOM     26  C   UNL     1       6.081   3.599  12.865  0.00  0.00    +0.000 A 
ATOM     27 CL   UNL     1       5.681   2.670  11.473  0.00  0.00    +0.000 Cl
ATOM     28  C   UNL     1       7.211   4.415  12.852  0.00  0.00    +0.000 A 
ATOM     29  C   UNL     1       7.537   5.175  13.986  0.00  0.00    +0.000 A 
ENDBRANCH  22  23
ENDBRANCH   4  22
TORSDOF 5
ENDMDL
MODEL 5
REMARK VINA RESULT:      -7.4      1.163      1.478
REMARK  Name = 
REMARK  9 active torsions:
REMARK  status: ('A' for Active; 'I' for Inactive)
REMARK    1  A    between atoms: C_1  and  C_2
REMARK    2  A    between atoms: C_2  and  C_3
REMARK    3  A    between atoms: C_2  and  N_4
REMARK    4  A    between atoms: C_5  and  C_7
REMARK    5  A    between atoms: N_10  and  C_11
REMARK    6  A    between atoms: C_11  and  C_12
REMARK    7  A    between atoms: N_22  and  C_23
REMARK    8  A    between atoms: C_23  and  C_24
REMARK    9  A    between atoms: C_23  and  C_25
REMARK                            x       y       z     vdW  Elec       q    Type
REMARK                         _______ _______ _______ _____ _____    ______ ____
ROOT
ATOM      1  C   UNL     1       2.970   6.315  19.375  0.00  0.00    +0.000 A 
ATOM      2  N   UNL     1       4.195   6.428  18.796  0.00  0.00    +0.000 NA
ATOM      3  C   UNL     1       4.997   5.328  18.760  0.00  0.00    +0.000 A 
ATOM      4  N   UNL     1       6.266   5.405  18.238  0.00  0.00    +0.000 N 
ATOM      5  C   UNL     1       4.493   4.117  19.297  0.00  0.00    +0.000 A 
ATOM      6  N   UNL     1       5.051   2.857  19.390  0.00  0.00    +0.000 NA
ATOM      7  C   UNL     1       4.105   2.109  19.917  0.00  0.00    +0.000 A 
ATOM      8  N   UNL     1       2.961   2.825  20.179  0.00  0.00    +0.000 N 
ATOM      9  C   UNL     1       3.206   4.130  19.799  0.00  0.00    +0.000 A 
ATOM     10  N   UNL     1       2.384   5.196  19.876  0.00  0.00    +0.000 NA
ATOM     11  H   UNL     1       6.990   4.866  18.696  0.00  0.00    +0.000 HD
ENDROOT
BRANCH   1  13
ATOM     12  N   UNL     1       2.140   8.485  18.442  0.00  0.00    +0.000 N 
ATOM     13  C   UNL     1       2.170   7.602  19.523  0.00  0.00    +0.000 C 
ATOM     14  O   UNL     1       1.567   7.867  20.572  0.00  0.00    +0.000 OA
ATOM     15  H   UNL     1       2.746   8.274  17.655  0.00  0.00    +0.000 HD
BRANCH  12  17
ATOM     16  C   UNL     1       2.224  10.903  17.873  0.00  0.00    +0.000 C 
ATOM     17  C   UNL     1       1.427   9.762  18.508  0.00  0.00    +0.000 C 
ATOM     18  C   UNL     1       0.053   9.678  17.857  0.00  0.00    +0.000 C 
ENDBRANCH  12  17
ENDBRANCH   1  13
BRANCH   8  19
ATOM     19  C   UNL     1       1.717   2.283  20.716  0.00  0.00    +0.000 C 
ATOM     20  C   UNL     1       1.441   2.767  22.144  0.00  0.00    +0.000 C 
ATOM     21  C   UNL     1       0.507   2.601  19.833  0.00  0.00    +0.000 C 
ENDBRANCH   8  19
BRANCH   4  22
ATOM     22  C   UNL     1       6.579   6.275  17.137  0.00  0.00    +0.000 C 
BRANCH  22  23
ATOM     23  C   UNL     1       6.499   5.527  15.819  0.00  0.00    +0.000 A 
ATOM     24  C   UNL     1       7.583   5.553  14.924  0.00  0.00    +0.000 A 
ATOM     25  C   UNL     1       7.529   4.851  13.716  0.00  0.00    +0.000 A 
ATOM     26  C   UNL     1       6.386   4.129  13.387  0.00  0.00    +0.000 A 
ATOM     27 CL   UNL     1       6.320   3.262  11.902  0.00  0.00    +0.000 Cl
ATOM     28  C   UNL     1       5.295   4.102  14.254  0.00  0.00    +0.000 A 
ATOM     29  C   UNL     1       5.349   4.806  15.466  0.00  0.00    +0.000 A 
ENDBRANCH  22  23
ENDBRANCH   4  22
TORSDOF 5
ENDMDL
MODEL 6
REMARK VINA RESULT:      -7.1      4.033      6.997
REMARK  Name = 
REMARK  9 active torsions:
REMARK  status: ('A' for Active; 'I' for Inactive)
REMARK    1  A    between atoms: C_1  and  C_2
REMARK    2  A    between atoms: C_2  and  C_3
REMARK    3  A    between atoms: C_2  and  N_4
REMARK    4  A    between atoms: C_5  and  C_7
REMARK    5  A    between atoms: N_10  and  C_11
REMARK    6  A    between atoms: C_11  and  C_12
REMARK    7  A    between atoms: N_22  and  C_23
REMARK    8  A    between atoms: C_23  and  C_24
REMARK    9  A    between atoms: C_23  and  C_25
REMARK                            x       y       z     vdW  Elec       q    Type
REMARK                         _______ _______ _______ _____ _____    ______ ____
ROOT
ATOM      1  C   UNL     1       5.123   4.173  16.627  0.00  0.00    +0.000 A 
ATOM      2  N   UNL     1       5.765   5.270  17.111  0.00  0.00    +0.000 NA
ATOM      3  C   UNL     1       6.719   5.856  16.335  0.00  0.00    +0.000 A 
ATOM      4  N   UNL     1       7.435   6.932  16.801  0.00  0.00    +0.000 N 
ATOM      5  C   UNL     1       6.964   5.307  15.051  0.00  0.00    +0.000 A 
ATOM      6  N   UNL     1       7.838   5.680  14.050  0.00  0.00    +0.000 NA
ATOM      7  C   UNL     1       7.586   4.854  13.058  0.00  0.00    +0.000 A 
ATOM      8  N   UNL     1       6.593   3.955  13.369  0.00  0.00    +0.000 N 
ATOM      9  C   UNL     1       6.195   4.227  14.664  0.00  0.00    +0.000 A 
ATOM     10  N   UNL     1       5.257   3.601  15.402  0.00  0.00    +0.000 NA
ATOM     11  H   UNL     1       8.415   6.981  16.551  0.00  0.00    +0.000 HD
ENDROOT
BRANCH   1  13
ATOM     12  N   UNL     1       3.281   4.251  18.321  0.00  0.00    +0.000 N 
ATOM     13  C   UNL     1       4.174   3.468  17.586  0.00  0.00    +0.000 C 
ATOM     14  O   UNL     1       4.191   2.237  17.719  0.00  0.00    +0.000 OA
ATOM     15  H   UNL     1       3.390   5.259  18.260  0.00  0.00    +0.000 HD
BRANCH  12  17
ATOM     16  C   UNL     1       2.017   4.629  20.427  0.00  0.00    +0.000 C 
ATOM     17  C   UNL     1       2.356   3.662  19.292  0.00  0.00    +0.000 C 
ATOM     18  C   UNL     1       1.070   3.182  18.631  0.00  0.00    +0.000 C 
ENDBRANCH  12  17
ENDBRANCH   1  13
BRANCH   8  19
ATOM     19  C   UNL     1       6.045   2.942  12.474  0.00  0.00    +0.000 C 
ATOM     20  C   UNL     1       4.753   3.404  11.792  0.00  0.00    +0.000 C 
ATOM     21  C   UNL     1       7.048   2.498  11.404  0.00  0.00    +0.000 C 
ENDBRANCH   8  19
BRANCH   4  22
ATOM     22  C   UNL     1       6.847   7.911  17.675  0.00  0.00    +0.000 C 
BRANCH  22  23
ATOM     23  C   UNL     1       7.832   9.026  17.975  0.00  0.00    +0.000 A 
ATOM     24  C   UNL     1       7.737  10.254  17.299  0.00  0.00    +0.000 A 
ATOM     25  C   UNL     1       8.626  11.296  17.581  0.00  0.00    +0.000 A 
ATOM     26  C   UNL     1       9.625  11.114  18.532  0.00  0.00    +0.000 A 
ATOM     27 CL   UNL     1      10.717  12.396  18.883  0.00  0.00    +0.000 Cl
ATOM     28  C   UNL     1       9.745   9.899  19.204  0.00  0.00    +0.000 A 
ATOM     29  C   UNL     1       8.853   8.853  18.921  0.00  0.00    +0.000 A 
ENDBRANCH  22  23
ENDBRANCH   4  22
TORSDOF 5
ENDMDL
MODEL 7
REMARK VINA RESULT:      -7.1      3.890      7.752
REMARK  Name = 
REMARK  9 active torsions:
REMARK  status: ('A' for Active; 'I' for Inactive)
REMARK    1  A    between atoms: C_1  and  C_2
REMARK    2  A    between atoms: C_2  and  C_3
REMARK    3  A    between atoms: C_2  and  N_4
REMARK    4  A    between atoms: C_5  and  C_7
REMARK    5  A    between atoms: N_10  and  C_11
REMARK    6  A    between atoms: C_11  and  C_12
REMARK    7  A    between atoms: N_22  and  C_23
REMARK    8  A    between atoms: C_23  and  C_24
REMARK    9  A    between atoms: C_23  and  C_25
REMARK                            x       y       z     vdW  Elec       q    Type
REMARK                         _______ _______ _______ _____ _____    ______ ____
ROOT
ATOM      1  C   UNL     1      -1.227  11.267  18.357  0.00  0.00    +0.000 A 
ATOM      2  N   UNL     1      -0.325  10.249  18.352  0.00  0.00    +0.000 NA
ATOM      3  C   UNL     1       1.000  10.559  18.398  0.00  0.00    +0.000 A 
ATOM      4  N   UNL     1       1.952   9.571  18.338  0.00  0.00    +0.000 N 
ATOM      5  C   UNL     1       1.362  11.927  18.484  0.00  0.00    +0.000 A 
ATOM      6  N   UNL     1       2.596  12.543  18.559  0.00  0.00    +0.000 NA
ATOM      7  C   UNL     1       2.326  13.824  18.688  0.00  0.00    +0.000 A 
ATOM      8  N   UNL     1       0.973  14.072  18.692  0.00  0.00    +0.000 N 
ATOM      9  C   UNL     1       0.339  12.854  18.542  0.00  0.00    +0.000 A 
ATOM     10  N   UNL     1      -0.983  12.597  18.478  0.00  0.00    +0.000 NA
ATOM     11  H   UNL     1       2.797   9.770  17.817  0.00  0.00    +0.000 HD
ENDROOT
BRANCH   1  13
ATOM     12  N   UNL     1      -3.660  11.857  18.360  0.00  0.00    +0.000 N 
ATOM     13  C   UNL     1      -2.686  10.878  18.156  0.00  0.00    +0.000 C 
ATOM     14  O   UNL     1      -3.004   9.728  17.828  0.00  0.00    +0.000 OA
ATOM     15  H   UNL     1      -3.352  12.746  18.741  0.00  0.00    +0.000 HD
BRANCH  12  17
ATOM     16  C   UNL     1      -5.848  11.768  19.536  0.00  0.00    +0.000 C 
ATOM     17  C   UNL     1      -5.089  11.563  18.224  0.00  0.00    +0.000 C 
ATOM     18  C   UNL     1      -5.737  12.397  17.127  0.00  0.00    +0.000 C 
ENDBRANCH  12  17
ENDBRANCH   1  13
BRANCH   8  19
ATOM     19  C   UNL     1       0.343  15.377  18.866  0.00  0.00    +0.000 C 
ATOM     20  C   UNL     1      -0.161  15.593  20.297  0.00  0.00    +0.000 C 
ATOM     21  C   UNL     1       1.270  16.533  18.478  0.00  0.00    +0.000 C 
ENDBRANCH   8  19
BRANCH   4  22
ATOM     22  C   UNL     1       1.734   8.273  18.919  0.00  0.00    +0.000 C 
BRANCH  22  23
ATOM     23  C   UNL     1       2.630   7.234  18.271  0.00  0.00    +0.000 A 
ATOM     24  C   UNL     1       3.738   7.635  17.505  0.00  0.00    +0.000 A 
ATOM     25  C   UNL     1       4.582   6.687  16.920  0.00  0.00    +0.000 A 
ATOM     26  C   UNL     1       4.319   5.331  17.085  0.00  0.00    +0.000 A 
ATOM     27 CL   UNL     1       5.360   4.163  16.368  0.00  0.00    +0.000 Cl
ATOM     28  C   UNL     1       3.218   4.913  17.830  0.00  0.00    +0.000 A 
ATOM     29  C   UNL     1       2.369   5.864  18.417  0.00  0.00    +0.000 A 
ENDBRANCH  22  23
ENDBRANCH   4  22
TORSDOF 5
ENDMDL
MODEL 8
REMARK VINA RESULT:      -7.0      1.081      1.631
REMARK  Name = 
REMARK  9 active torsions:
REMARK  status: ('A' for Active; 'I' for Inactive)
REMARK    1  A    between atoms: C_1  and  C_2
REMARK    2  A    between atoms: C_2  and  C_3
REMARK    3  A    between atoms: C_2  and  N_4
REMARK    4  A    between atoms: C_5  and  C_7
REMARK    5  A    between atoms: N_10  and  C_11
REMARK    6  A    between atoms: C_11  and  C_12
REMARK    7  A    between atoms: N_22  and  C_23
REMARK    8  A    between atoms: C_23  and  C_24
REMARK    9  A    between atoms: C_23  and  C_25
REMARK                            x       y       z     vdW  Elec       q    Type
REMARK                         _______ _______ _______ _____ _____    ______ ____
ROOT
ATOM      1  C   UNL     1       2.940   6.471  18.506  0.00  0.00    +0.000 A 
ATOM      2  N   UNL     1       3.938   6.392  17.586  0.00  0.00    +0.000 NA
ATOM      3  C   UNL     1       4.573   5.197  17.422  0.00  0.00    +0.000 A 
ATOM      4  N   UNL     1       5.626   5.080  16.548  0.00  0.00    +0.000 N 
ATOM      5  C   UNL     1       4.131   4.095  18.197  0.00  0.00    +0.000 A 
ATOM      6  N   UNL     1       4.556   2.783  18.244  0.00  0.00    +0.000 NA
ATOM      7  C   UNL     1       3.741   2.195  19.093  0.00  0.00    +0.000 A 
ATOM      8  N   UNL     1       2.810   3.067  19.608  0.00  0.00    +0.000 N 
ATOM      9  C   UNL     1       3.064   4.304  19.050  0.00  0.00    +0.000 A 
ATOM     10  N   UNL     1       2.419   5.469  19.261  0.00  0.00    +0.000 NA
ATOM     11  H   UNL     1       6.394   4.481  16.823  0.00  0.00    +0.000 HD
ENDROOT
BRANCH   1  13
ATOM     12  N   UNL     1       1.668   8.073  19.950  0.00  0.00    +0.000 N 
ATOM     13  C   UNL     1       2.361   7.857  18.757  0.00  0.00    +0.000 C 
ATOM     14  O   UNL     1       2.494   8.768  17.930  0.00  0.00    +0.000 OA
ATOM     15  H   UNL     1       1.489   7.263  20.535  0.00  0.00    +0.000 HD
BRANCH  12  17
ATOM     16  C   UNL     1      -0.301   9.539  19.562  0.00  0.00    +0.000 C 
ATOM     17  C   UNL     1       1.049   9.363  20.260  0.00  0.00    +0.000 C 
ATOM     18  C   UNL     1       0.876   9.564  21.760  0.00  0.00    +0.000 C 
ENDBRANCH  12  17
ENDBRANCH   1  13
BRANCH   8  19
ATOM     19  C   UNL     1       1.738   2.722  20.535  0.00  0.00    +0.000 C 
ATOM     20  C   UNL     1       1.994   3.259  21.948  0.00  0.00    +0.000 C 
ATOM     21  C   UNL     1       0.366   3.205  20.054  0.00  0.00    +0.000 C 
ENDBRANCH   8  19
BRANCH   4  22
ATOM     22  C   UNL     1       5.681   5.834  15.325  0.00  0.00    +0.000 C 
BRANCH  22  23
ATOM     23  C   UNL     1       6.115   4.954  14.167  0.00  0.00    +0.000 A 
ATOM     24  C   UNL     1       5.268   3.936  13.697  0.00  0.00    +0.000 A 
ATOM     25  C   UNL     1       5.648   3.132  12.618  0.00  0.00    +0.000 A 
ATOM     26  C   UNL     1       6.884   3.330  12.010  0.00  0.00    +0.000 A 
ATOM     27 CL   UNL     1       7.351   2.342  10.681  0.00  0.00    +0.000 Cl
ATOM     28  C   UNL     1       7.745   4.324  12.471  0.00  0.00    +0.000 A 
ATOM     29  C   UNL     1       7.364   5.131  13.553  0.00  0.00    +0.000 A 
ENDBRANCH  22  23
ENDBRANCH   4  22
TORSDOF 5
ENDMDL
MODEL 9
REMARK VINA RESULT:      -7.0      4.042      8.098
REMARK  Name = 
REMARK  9 active torsions:
REMARK  status: ('A' for Active; 'I' for Inactive)
REMARK    1  A    between atoms: C_1  and  C_2
REMARK    2  A    between atoms: C_2  and  C_3
REMARK    3  A    between atoms: C_2  and  N_4
REMARK    4  A    between atoms: C_5  and  C_7
REMARK    5  A    between atoms: N_10  and  C_11
REMARK    6  A    between atoms: C_11  and  C_12
REMARK    7  A    between atoms: N_22  and  C_23
REMARK    8  A    between atoms: C_23  and  C_24
REMARK    9  A    between atoms: C_23  and  C_25
REMARK                            x       y       z     vdW  Elec       q    Type
REMARK                         _______ _______ _______ _____ _____    ______ ____
ROOT
ATOM      1  C   UNL     1      -1.439  11.382  18.144  0.00  0.00    +0.000 A 
ATOM      2  N   UNL     1      -0.517  10.399  18.334  0.00  0.00    +0.000 NA
ATOM      3  C   UNL     1       0.767  10.762  18.606  0.00  0.00    +0.000 A 
ATOM      4  N   UNL     1       1.746   9.809  18.749  0.00  0.00    +0.000 N 
ATOM      5  C   UNL     1       1.062  12.144  18.712  0.00  0.00    +0.000 A 
ATOM      6  N   UNL     1       2.241  12.808  18.987  0.00  0.00    +0.000 NA
ATOM      7  C   UNL     1       1.910  14.081  19.024  0.00  0.00    +0.000 A 
ATOM      8  N   UNL     1       0.571  14.277  18.778  0.00  0.00    +0.000 N 
ATOM      9  C   UNL     1       0.016  13.032  18.555  0.00  0.00    +0.000 A 
ATOM     10  N   UNL     1      -1.264  12.724  18.264  0.00  0.00    +0.000 NA
ATOM     11  H   UNL     1       2.664  10.027  18.382  0.00  0.00    +0.000 HD
ENDROOT
BRANCH   1  13
ATOM     12  N   UNL     1      -3.892  11.811  17.889  0.00  0.00    +0.000 N 
ATOM     13  C   UNL     1      -2.823  10.933  17.698  0.00  0.00    +0.000 C 
ATOM     14  O   UNL     1      -3.004   9.821  17.184  0.00  0.00    +0.000 OA
ATOM     15  H   UNL     1      -3.708  12.657  18.420  0.00  0.00    +0.000 HD
BRANCH  12  17
ATOM     16  C   UNL     1      -5.987  10.710  18.651  0.00  0.00    +0.000 C 
ATOM     17  C   UNL     1      -5.263  11.449  17.524  0.00  0.00    +0.000 C 
ATOM     18  C   UNL     1      -6.079  12.666  17.109  0.00  0.00    +0.000 C 
ENDBRANCH  12  17
ENDBRANCH   1  13
BRANCH   8  19
ATOM     19  C   UNL     1      -0.122  15.561  18.795  0.00  0.00    +0.000 C 
ATOM     20  C   UNL     1      -0.844  15.815  20.123  0.00  0.00    +0.000 C 
ATOM     21  C   UNL     1       0.811  16.737  18.495  0.00  0.00    +0.000 C 
ENDBRANCH   8  19
BRANCH   4  22
ATOM     22  C   UNL     1       1.470   8.520  19.323  0.00  0.00    +0.000 C 
BRANCH  22  23
ATOM     23  C   UNL     1       2.414   7.469  18.770  0.00  0.00    +0.000 A 
ATOM     24  C   UNL     1       2.421   6.170  19.308  0.00  0.00    +0.000 A 
ATOM     25  C   UNL     1       3.272   5.188  18.792  0.00  0.00    +0.000 A 
ATOM     26  C   UNL     1       4.133   5.500  17.744  0.00  0.00    +0.000 A 
ATOM     27 CL   UNL     1       5.178   4.291  17.107  0.00  0.00    +0.000 Cl
ATOM     28  C   UNL     1       4.152   6.785  17.206  0.00  0.00    +0.000 A 
ATOM     29  C   UNL     1       3.297   7.771  17.723  0.00  0.00    +0.000 A 
ENDBRANCH  22  23
ENDBRANCH   4  22
TORSDOF 5
ENDMDL
