MODEL 1
REMARK VINA RESULT:      -7.6      0.000      0.000
REMARK  Name = 
REMARK  4 active torsions:
REMARK  status: ('A' for Active; 'I' for Inactive)
REMARK    1  A    between atoms: C_2  and  OXT_3
REMARK    2  A    between atoms: C_2  and  CA_4
REMARK    3  A    between atoms: C_13  and  N_14
REMARK    4  A    between atoms: N_15  and  C_16
REMARK                            x       y       z     vdW  Elec       q    Type
REMARK                         _______ _______ _______ _____ _____    ______ ____
ROOT
ATOM      1  CA  UNL     1       7.175   5.751  16.071  0.00  0.00    +0.000 A 
ATOM      2  N   UNL     1       7.782   6.002  14.857  0.00  0.00    +0.000 N 
ATOM      3  C   UNL     1       7.323   5.141  13.886  0.00  0.00    +0.000 A 
ATOM      4  C   UNL     1       7.653   5.059  12.527  0.00  0.00    +0.000 A 
ATOM      5  C   UNL     1       7.033   4.061  11.769  0.00  0.00    +0.000 A 
ATOM      6  C   UNL     1       6.116   3.191  12.352  0.00  0.00    +0.000 A 
ATOM      7 CL   UNL     1       5.386   1.959  11.395  0.00  0.00    +0.000 Cl
ATOM      8  C   UNL     1       5.779   3.296  13.704  0.00  0.00    +0.000 A 
ATOM      9  C   UNL     1       6.397   4.289  14.494  0.00  0.00    +0.000 A 
ATOM     10  C   UNL     1       6.312   4.696  15.855  0.00  0.00    +0.000 A 
ATOM     11  H   UNL     1       8.467   6.734  14.714  0.00  0.00    +0.000 HD
ENDROOT
BRANCH   1  13
ATOM     12  O   UNL     1       7.700   7.734  17.223  0.00  0.00    +0.000 OA
ATOM     13  C   UNL     1       7.482   6.530  17.241  0.00  0.00    +0.000 C 
BRANCH  13  14
ATOM     14  OXT UNL     1       7.517   5.805  18.379  0.00  0.00    +0.000 OA
ATOM     15  HXT UNL     1       8.028   6.234  19.094  0.00  0.00    +0.000 HD
ENDBRANCH  13  14
ENDBRANCH   1  13
BRANCH  10  16
ATOM     16  N   UNL     1       5.459   4.200  16.852  0.00  0.00    +0.000 NA
ATOM     17  N   UNL     1       4.675   5.045  17.322  0.00  0.00    +0.000 NA
BRANCH  17  18
ATOM     18  C   UNL     1       3.828   4.509  18.318  0.00  0.00    +0.000 A 
ATOM     19  C   UNL     1       2.460   4.809  18.444  0.00  0.00    +0.000 A 
ATOM     20  C   UNL     1       1.684   4.225  19.450  0.00  0.00    +0.000 A 
ATOM     21  C   UNL     1       2.267   3.323  20.337  0.00  0.00    +0.000 A 
ATOM     22 BR   UNL     1       1.217   2.522  21.688  0.00  0.00    +0.000 Br
ATOM     23  C   UNL     1       3.617   3.004  20.226  0.00  0.00    +0.000 A 
ATOM     24  C   UNL     1       4.389   3.594  19.221  0.00  0.00    +0.000 A 
ENDBRANCH  17  18
ENDBRANCH  10  16
TORSDOF 4
ENDMDL
MODEL 2
REMARK VINA RESULT:      -7.3      4.333      7.415
REMARK  Name = 
REMARK  4 active torsions:
REMARK  status: ('A' for Active; 'I' for Inactive)
REMARK    1  A    between atoms: C_2  and  OXT_3
REMARK    2  A    between atoms: C_2  and  CA_4
REMARK    3  A    between atoms: C_13  and  N_14
REMARK    4  A    between atoms: N_15  and  C_16
REMARK                            x       y       z     vdW  Elec       q    Type
REMARK                         _______ _______ _______ _____ _____    ______ ____
ROOT
ATOM      1  CA  UNL     1       3.292   4.620  19.769  0.00  0.00    +0.000 A 
ATOM      2  N   UNL     1       2.600   5.293  20.754  0.00  0.00    +0.000 N 
ATOM      3  C   UNL     1       2.196   6.534  20.317  0.00  0.00    +0.000 A 
ATOM      4  C   UNL     1       1.460   7.526  20.977  0.00  0.00    +0.000 A 
ATOM      5  C   UNL     1       1.203   8.712  20.284  0.00  0.00    +0.000 A 
ATOM      6  C   UNL     1       1.661   8.888  18.981  0.00  0.00    +0.000 A 
ATOM      7 CL   UNL     1       1.347  10.370  18.162  0.00  0.00    +0.000 Cl
ATOM      8  C   UNL     1       2.377   7.883  18.325  0.00  0.00    +0.000 A 
ATOM      9  C   UNL     1       2.657   6.680  19.005  0.00  0.00    +0.000 A 
ATOM     10  C   UNL     1       3.329   5.467  18.681  0.00  0.00    +0.000 A 
ATOM     11  H   UNL     1       2.414   4.907  21.672  0.00  0.00    +0.000 HD
ENDROOT
BRANCH   1  13
ATOM     12  O   UNL     1       3.233   2.435  20.638  0.00  0.00    +0.000 OA
ATOM     13  C   UNL     1       3.808   3.293  19.985  0.00  0.00    +0.000 C 
BRANCH  13  14
ATOM     14  OXT UNL     1       5.006   3.078  19.399  0.00  0.00    +0.000 OA
ATOM     15  HXT UNL     1       5.363   3.869  18.950  0.00  0.00    +0.000 HD
ENDBRANCH  13  14
ENDBRANCH   1  13
BRANCH  10  16
ATOM     16  N   UNL     1       3.893   5.097  17.451  0.00  0.00    +0.000 NA
ATOM     17  N   UNL     1       5.071   5.471  17.294  0.00  0.00    +0.000 NA
BRANCH  17  18
ATOM     18  C   UNL     1       5.607   5.077  16.048  0.00  0.00    +0.000 A 
ATOM     19  C   UNL     1       6.929   5.322  15.639  0.00  0.00    +0.000 A 
ATOM     20  C   UNL     1       7.391   4.886  14.392  0.00  0.00    +0.000 A 
ATOM     21  C   UNL     1       6.535   4.188  13.545  0.00  0.00    +0.000 A 
ATOM     22 BR   UNL     1       7.159   3.585  11.866  0.00  0.00    +0.000 Br
ATOM     23  C   UNL     1       5.224   3.924  13.932  0.00  0.00    +0.000 A 
ATOM     24  C   UNL     1       4.767   4.367  15.178  0.00  0.00    +0.000 A 
ENDBRANCH  17  18
ENDBRANCH  10  16
TORSDOF 4
ENDMDL
MODEL 3
REMARK VINA RESULT:      -7.3      4.633      6.071
REMARK  Name = 
REMARK  4 active torsions:
REMARK  status: ('A' for Active; 'I' for Inactive)
REMARK    1  A    between atoms: C_2  and  OXT_3
REMARK    2  A    between atoms: C_2  and  CA_4
REMARK    3  A    between atoms: C_13  and  N_14
REMARK    4  A    between atoms: N_15  and  C_16
REMARK                            x       y       z     vdW  Elec       q    Type
REMARK                         _______ _______ _______ _____ _____    ______ ____
ROOT
ATOM      1  CA  UNL     1       2.740   4.360  18.357  0.00  0.00    +0.000 A 
ATOM      2  N   UNL     1       3.732   3.740  17.626  0.00  0.00    +0.000 N 
ATOM      3  C   UNL     1       4.814   4.573  17.453  0.00  0.00    +0.000 A 
ATOM      4  C   UNL     1       6.031   4.343  16.799  0.00  0.00    +0.000 A 
ATOM      5  C   UNL     1       6.957   5.390  16.766  0.00  0.00    +0.000 A 
ATOM      6  C   UNL     1       6.672   6.611  17.372  0.00  0.00    +0.000 A 
ATOM      7 CL   UNL     1       7.825   7.888  17.295  0.00  0.00    +0.000 Cl
ATOM      8  C   UNL     1       5.463   6.822  18.040  0.00  0.00    +0.000 A 
ATOM      9  C   UNL     1       4.508   5.784  18.080  0.00  0.00    +0.000 A 
ATOM     10  C   UNL     1       3.212   5.624  18.647  0.00  0.00    +0.000 A 
ATOM     11  H   UNL     1       3.662   2.792  17.276  0.00  0.00    +0.000 HD
ENDROOT
BRANCH   1  13
ATOM     12  O   UNL     1       0.988   2.839  17.967  0.00  0.00    +0.000 OA
ATOM     13  C   UNL     1       1.510   3.686  18.679  0.00  0.00    +0.000 C 
BRANCH  13  14
ATOM     14  OXT UNL     1       0.968   4.081  19.851  0.00  0.00    +0.000 OA
ATOM     15  HXT UNL     1       0.662   3.335  20.404  0.00  0.00    +0.000 HD
ENDBRANCH  13  14
ENDBRANCH   1  13
BRANCH  10  16
ATOM     16  N   UNL     1       2.502   6.533  19.446  0.00  0.00    +0.000 NA
ATOM     17  N   UNL     1       2.221   7.604  18.877  0.00  0.00    +0.000 NA
BRANCH  17  18
ATOM     18  C   UNL     1       1.503   8.492  19.709  0.00  0.00    +0.000 A 
ATOM     19  C   UNL     1       0.930   9.700  19.275  0.00  0.00    +0.000 A 
ATOM     20  C   UNL     1       0.220  10.520  20.159  0.00  0.00    +0.000 A 
ATOM     21  C   UNL     1       0.066  10.132  21.487  0.00  0.00    +0.000 A 
ATOM     22 BR   UNL     1      -0.904  11.230  22.680  0.00  0.00    +0.000 Br
ATOM     23  C   UNL     1       0.617   8.936  21.938  0.00  0.00    +0.000 A 
ATOM     24  C   UNL     1       1.329   8.123  21.051  0.00  0.00    +0.000 A 
ENDBRANCH  17  18
ENDBRANCH  10  16
TORSDOF 4
ENDMDL
MODEL 4
REMARK VINA RESULT:      -7.2      4.661      6.148
REMARK  Name = 
REMARK  4 active torsions:
REMARK  status: ('A' for Active; 'I' for Inactive)
REMARK    1  A    between atoms: C_2  and  OXT_3
REMARK    2  A    between atoms: C_2  and  CA_4
REMARK    3  A    between atoms: C_13  and  N_14
REMARK    4  A    between atoms: N_15  and  C_16
REMARK                            x       y       z     vdW  Elec       q    Type
REMARK                         _______ _______ _______ _____ _____    ______ ____
ROOT
ATOM      1  CA  UNL     1       2.767   4.346  18.352  0.00  0.00    +0.000 A 
ATOM      2  N   UNL     1       3.749   3.747  17.590  0.00  0.00    +0.000 N 
ATOM      3  C   UNL     1       4.833   4.581  17.432  0.00  0.00    +0.000 A 
ATOM      4  C   UNL     1       6.041   4.369  16.757  0.00  0.00    +0.000 A 
ATOM      5  C   UNL     1       6.970   5.413  16.747  0.00  0.00    +0.000 A 
ATOM      6  C   UNL     1       6.697   6.615  17.395  0.00  0.00    +0.000 A 
ATOM      7 CL   UNL     1       7.853   7.890  17.346  0.00  0.00    +0.000 Cl
ATOM      8  C   UNL     1       5.496   6.808  18.083  0.00  0.00    +0.000 A 
ATOM      9  C   UNL     1       4.537   5.773  18.100  0.00  0.00    +0.000 A 
ATOM     10  C   UNL     1       3.247   5.599  18.677  0.00  0.00    +0.000 A 
ATOM     11  H   UNL     1       3.672   2.811  17.211  0.00  0.00    +0.000 HD
ENDROOT
BRANCH   1  13
ATOM     12  O   UNL     1       0.992   2.864  17.922  0.00  0.00    +0.000 OA
ATOM     13  C   UNL     1       1.539   3.666  18.666  0.00  0.00    +0.000 C 
BRANCH  13  14
ATOM     14  OXT UNL     1       1.029   4.000  19.871  0.00  0.00    +0.000 OA
ATOM     15  HXT UNL     1       0.177   3.561  20.064  0.00  0.00    +0.000 HD
ENDBRANCH  13  14
ENDBRANCH   1  13
BRANCH  10  16
ATOM     16  N   UNL     1       2.550   6.484  19.512  0.00  0.00    +0.000 NA
ATOM     17  N   UNL     1       2.210   7.548  18.962  0.00  0.00    +0.000 NA
BRANCH  17  18
ATOM     18  C   UNL     1       1.507   8.411  19.831  0.00  0.00    +0.000 A 
ATOM     19  C   UNL     1       1.322   8.176  21.205  0.00  0.00    +0.000 A 
ATOM     20  C   UNL     1       0.624   9.088  22.004  0.00  0.00    +0.000 A 
ATOM     21  C   UNL     1       0.113  10.253  21.438  0.00  0.00    +0.000 A 
ATOM     22 BR   UNL     1      -0.819  11.493  22.518  0.00  0.00    +0.000 Br
ATOM     23  C   UNL     1       0.292  10.511  20.082  0.00  0.00    +0.000 A 
ATOM     24  C   UNL     1       0.986   9.594  19.287  0.00  0.00    +0.000 A 
ENDBRANCH  17  18
ENDBRANCH  10  16
TORSDOF 4
ENDMDL
MODEL 5
REMARK VINA RESULT:      -7.1      4.771      6.255
REMARK  Name = 
REMARK  4 active torsions:
REMARK  status: ('A' for Active; 'I' for Inactive)
REMARK    1  A    between atoms: C_2  and  OXT_3
REMARK    2  A    between atoms: C_2  and  CA_4
REMARK    3  A    between atoms: C_13  and  N_14
REMARK    4  A    between atoms: N_15  and  C_16
REMARK                            x       y       z     vdW  Elec       q    Type
REMARK                         _______ _______ _______ _____ _____    ______ ____
ROOT
ATOM      1  CA  UNL     1       2.992   4.581  18.011  0.00  0.00    +0.000 A 
ATOM      2  N   UNL     1       4.179   3.883  17.933  0.00  0.00    +0.000 N 
ATOM      3  C   UNL     1       5.253   4.739  17.836  0.00  0.00    +0.000 A 
ATOM      4  C   UNL     1       6.623   4.460  17.755  0.00  0.00    +0.000 A 
ATOM      5  C   UNL     1       7.500   5.543  17.649  0.00  0.00    +0.000 A 
ATOM      6  C   UNL     1       7.018   6.849  17.632  0.00  0.00    +0.000 A 
ATOM      7 CL   UNL     1       8.123   8.162  17.478  0.00  0.00    +0.000 Cl
ATOM      8  C   UNL     1       5.651   7.117  17.734  0.00  0.00    +0.000 A 
ATOM      9  C   UNL     1       4.744   6.041  17.833  0.00  0.00    +0.000 A 
ATOM     10  C   UNL     1       3.330   5.917  17.955  0.00  0.00    +0.000 A 
ATOM     11  H   UNL     1       4.238   2.872  17.954  0.00  0.00    +0.000 HD
ENDROOT
BRANCH   1  13
ATOM     12  O   UNL     1       1.455   3.120  19.029  0.00  0.00    +0.000 OA
ATOM     13  C   UNL     1       1.728   3.903  18.131  0.00  0.00    +0.000 C 
BRANCH  13  14
ATOM     14  OXT UNL     1       0.856   4.208  17.146  0.00  0.00    +0.000 OA
ATOM     15  HXT UNL     1       1.286   4.333  16.276  0.00  0.00    +0.000 HD
ENDBRANCH  13  14
ENDBRANCH   1  13
BRANCH  10  16
ATOM     16  N   UNL     1       2.383   6.944  18.080  0.00  0.00    +0.000 NA
ATOM     17  N   UNL     1       2.458   7.584  19.146  0.00  0.00    +0.000 NA
BRANCH  17  18
ATOM     18  C   UNL     1       1.493   8.612  19.234  0.00  0.00    +0.000 A 
ATOM     19  C   UNL     1       0.995   9.331  18.132  0.00  0.00    +0.000 A 
ATOM     20  C   UNL     1       0.028  10.327  18.300  0.00  0.00    +0.000 A 
ATOM     21  C   UNL     1      -0.461  10.608  19.573  0.00  0.00    +0.000 A 
ATOM     22 BR   UNL     1      -1.779  11.944  19.800  0.00  0.00    +0.000 Br
ATOM     23  C   UNL     1       0.010   9.903  20.677  0.00  0.00    +0.000 A 
ATOM     24  C   UNL     1       0.981   8.911  20.504  0.00  0.00    +0.000 A 
ENDBRANCH  17  18
ENDBRANCH  10  16
TORSDOF 4
ENDMDL
MODEL 6
REMARK VINA RESULT:      -7.1      4.707      6.392
REMARK  Name = 
REMARK  4 active torsions:
REMARK  status: ('A' for Active; 'I' for Inactive)
REMARK    1  A    between atoms: C_2  and  OXT_3
REMARK    2  A    between atoms: C_2  and  CA_4
REMARK    3  A    between atoms: C_13  and  N_14
REMARK    4  A    between atoms: N_15  and  C_16
REMARK                            x       y       z     vdW  Elec       q    Type
REMARK                         _______ _______ _______ _____ _____    ______ ____
ROOT
ATOM      1  CA  UNL     1       2.560   3.859  20.141  0.00  0.00    +0.000 A 
ATOM      2  N   UNL     1       3.365   3.083  19.333  0.00  0.00    +0.000 N 
ATOM      3  C   UNL     1       3.920   3.831  18.320  0.00  0.00    +0.000 A 
ATOM      4  C   UNL     1       4.802   3.452  17.300  0.00  0.00    +0.000 A 
ATOM      5  C   UNL     1       5.195   4.434  16.386  0.00  0.00    +0.000 A 
ATOM      6  C   UNL     1       4.727   5.740  16.499  0.00  0.00    +0.000 A 
ATOM      7 CL   UNL     1       5.214   6.921  15.343  0.00  0.00    +0.000 Cl
ATOM      8  C   UNL     1       3.864   6.112  17.533  0.00  0.00    +0.000 A 
ATOM      9  C   UNL     1       3.445   5.138  18.464  0.00  0.00    +0.000 A 
ATOM     10  C   UNL     1       2.606   5.134  19.614  0.00  0.00    +0.000 A 
ATOM     11  H   UNL     1       3.525   2.094  19.485  0.00  0.00    +0.000 HD
ENDROOT
BRANCH   1  13
ATOM     12  O   UNL     1       2.382   3.178  22.385  0.00  0.00    +0.000 OA
ATOM     13  C   UNL     1       1.876   3.303  21.279  0.00  0.00    +0.000 C 
BRANCH  13  14
ATOM     14  OXT UNL     1       0.610   2.919  21.014  0.00  0.00    +0.000 OA
ATOM     15  HXT UNL     1       0.121   3.559  20.460  0.00  0.00    +0.000 HD
ENDBRANCH  13  14
ENDBRANCH   1  13
BRANCH  10  16
ATOM     16  N   UNL     1       1.961   6.225  20.215  0.00  0.00    +0.000 NA
ATOM     17  N   UNL     1       2.064   7.293  19.581  0.00  0.00    +0.000 NA
BRANCH  17  18
ATOM     18  C   UNL     1       1.399   8.367  20.213  0.00  0.00    +0.000 A 
ATOM     19  C   UNL     1       0.994   9.545  19.560  0.00  0.00    +0.000 A 
ATOM     20  C   UNL     1       0.326  10.560  20.253  0.00  0.00    +0.000 A 
ATOM     21  C   UNL     1       0.045  10.402  21.607  0.00  0.00    +0.000 A 
ATOM     22 BR   UNL     1      -0.870  11.766  22.542  0.00  0.00    +0.000 Br
ATOM     23  C   UNL     1       0.427   9.241  22.272  0.00  0.00    +0.000 A 
ATOM     24  C   UNL     1       1.098   8.231  21.576  0.00  0.00    +0.000 A 
ENDBRANCH  17  18
ENDBRANCH  10  16
TORSDOF 4
ENDMDL
MODEL 7
REMARK VINA RESULT:      -7.1      4.376      7.421
REMARK  Name = 
REMARK  4 active torsions:
REMARK  status: ('A' for Active; 'I' for Inactive)
REMARK    1  A    between atoms: C_2  and  OXT_3
REMARK    2  A    between atoms: C_2  and  CA_4
REMARK    3  A    between atoms: C_13  and  N_14
REMARK    4  A    between atoms: N_15  and  C_16
REMARK                            x       y       z     vdW  Elec       q    Type
REMARK                         _______ _______ _______ _____ _____    ______ ____
ROOT
ATOM      1  CA  UNL     1       3.231   4.675  19.813  0.00  0.00    +0.000 A 
ATOM      2  N   UNL     1       2.570   5.358  20.812  0.00  0.00    +0.000 N 
ATOM      3  C   UNL     1       2.152   6.595  20.374  0.00  0.00    +0.000 A 
ATOM      4  C   UNL     1       1.437   7.593  21.047  0.00  0.00    +0.000 A 
ATOM      5  C   UNL     1       1.159   8.773  20.350  0.00  0.00    +0.000 A 
ATOM      6  C   UNL     1       1.577   8.935  19.032  0.00  0.00    +0.000 A 
ATOM      7 CL   UNL     1       1.238  10.409  18.208  0.00  0.00    +0.000 Cl
ATOM      8  C   UNL     1       2.272   7.924  18.364  0.00  0.00    +0.000 A 
ATOM      9  C   UNL     1       2.573   6.727  19.048  0.00  0.00    +0.000 A 
ATOM     10  C   UNL     1       3.235   5.511  18.715  0.00  0.00    +0.000 A 
ATOM     11  H   UNL     1       2.411   4.982  21.739  0.00  0.00    +0.000 HD
ENDROOT
BRANCH   1  13
ATOM     12  O   UNL     1       3.231   2.519  20.754  0.00  0.00    +0.000 OA
ATOM     13  C   UNL     1       3.754   3.351  20.026  0.00  0.00    +0.000 C 
BRANCH  13  14
ATOM     14  OXT UNL     1       4.895   3.104  19.348  0.00  0.00    +0.000 OA
ATOM     15  HXT UNL     1       5.667   2.963  19.931  0.00  0.00    +0.000 HD
ENDBRANCH  13  14
ENDBRANCH   1  13
BRANCH  10  16
ATOM     16  N   UNL     1       3.761   5.128  17.473  0.00  0.00    +0.000 NA
ATOM     17  N   UNL     1       4.972   5.383  17.329  0.00  0.00    +0.000 NA
BRANCH  17  18
ATOM     18  C   UNL     1       5.468   4.979  16.069  0.00  0.00    +0.000 A 
ATOM     19  C   UNL     1       4.720   4.274  15.110  0.00  0.00    +0.000 A 
ATOM     20  C   UNL     1       5.278   3.921  13.877  0.00  0.00    +0.000 A 
ATOM     21  C   UNL     1       6.591   4.282  13.585  0.00  0.00    +0.000 A 
ATOM     22 BR   UNL     1       7.344   3.820  11.915  0.00  0.00    +0.000 Br
ATOM     23  C   UNL     1       7.348   4.989  14.515  0.00  0.00    +0.000 A 
ATOM     24  C   UNL     1       6.785   5.335  15.748  0.00  0.00    +0.000 A 
ENDBRANCH  17  18
ENDBRANCH  10  16
TORSDOF 4
ENDMDL
MODEL 8
REMARK VINA RESULT:      -7.1      4.638      6.342
REMARK  Name = 
REMARK  4 active torsions:
REMARK  status: ('A' for Active; 'I' for Inactive)
REMARK    1  A    between atoms: C_2  and  OXT_3
REMARK    2  A    between atoms: C_2  and  CA_4
REMARK    3  A    between atoms: C_13  and  N_14
REMARK    4  A    between atoms: N_15  and  C_16
REMARK                            x       y       z     vdW  Elec       q    Type
REMARK                         _______ _______ _______ _____ _____    ______ ____
ROOT
ATOM      1  CA  UNL     1       2.695   3.700  20.047  0.00  0.00    +0.000 A 
ATOM      2  N   UNL     1       3.493   2.958  19.202  0.00  0.00    +0.000 N 
ATOM      3  C   UNL     1       4.017   3.741  18.199  0.00  0.00    +0.000 A 
ATOM      4  C   UNL     1       4.882   3.403  17.151  0.00  0.00    +0.000 A 
ATOM      5  C   UNL     1       5.243   4.414  16.256  0.00  0.00    +0.000 A 
ATOM      6  C   UNL     1       4.761   5.710  16.415  0.00  0.00    +0.000 A 
ATOM      7 CL   UNL     1       5.208   6.929  15.283  0.00  0.00    +0.000 Cl
ATOM      8  C   UNL     1       3.914   6.042  17.476  0.00  0.00    +0.000 A 
ATOM      9  C   UNL     1       3.527   5.037  18.388  0.00  0.00    +0.000 A 
ATOM     10  C   UNL     1       2.713   4.990  19.555  0.00  0.00    +0.000 A 
ATOM     11  H   UNL     1       3.669   1.968  19.322  0.00  0.00    +0.000 HD
ENDROOT
BRANCH   1  13
ATOM     12  O   UNL     1       2.635   2.678  22.164  0.00  0.00    +0.000 OA
ATOM     13  C   UNL     1       2.043   3.104  21.183  0.00  0.00    +0.000 C 
BRANCH  13  14
ATOM     14  OXT UNL     1       0.699   3.048  21.067  0.00  0.00    +0.000 OA
ATOM     15  HXT UNL     1       0.351   3.601  20.339  0.00  0.00    +0.000 HD
ENDBRANCH  13  14
ENDBRANCH   1  13
BRANCH  10  16
ATOM     16  N   UNL     1       2.067   6.055  20.199  0.00  0.00    +0.000 NA
ATOM     17  N   UNL     1       2.134   7.139  19.589  0.00  0.00    +0.000 NA
BRANCH  17  18
ATOM     18  C   UNL     1       1.469   8.187  20.264  0.00  0.00    +0.000 A 
ATOM     19  C   UNL     1       1.160   8.178  21.635  0.00  0.00    +0.000 A 
ATOM     20  C   UNL     1       0.510   9.262  22.234  0.00  0.00    +0.000 A 
ATOM     21  C   UNL     1       0.172  10.374  21.468  0.00  0.00    +0.000 A 
ATOM     22 BR   UNL     1      -0.694  11.846  22.277  0.00  0.00    +0.000 Br
ATOM     23  C   UNL     1       0.476  10.409  20.110  0.00  0.00    +0.000 A 
ATOM     24  C   UNL     1       1.122   9.320  19.515  0.00  0.00    +0.000 A 
ENDBRANCH  17  18
ENDBRANCH  10  16
TORSDOF 4
ENDMDL
MODEL 9
REMARK VINA RESULT:      -6.9      4.618      6.530
REMARK  Name = 
REMARK  4 active torsions:
REMARK  status: ('A' for Active; 'I' for Inactive)
REMARK    1  A    between atoms: C_2  and  OXT_3
REMARK    2  A    between atoms: C_2  and  CA_4
REMARK    3  A    between atoms: C_13  and  N_14
REMARK    4  A    between atoms: N_15  and  C_16
REMARK                            x       y       z     vdW  Elec       q    Type
REMARK                         _______ _______ _______ _____ _____    ______ ____
ROOT
ATOM      1  CA  UNL     1       4.751   5.821  17.557  0.00  0.00    +0.000 A 
ATOM      2  N   UNL     1       5.256   4.573  17.857  0.00  0.00    +0.000 N 
ATOM      3  C   UNL     1       4.469   3.929  18.785  0.00  0.00    +0.000 A 
ATOM      4  C   UNL     1       4.602   2.654  19.348  0.00  0.00    +0.000 A 
ATOM      5  C   UNL     1       3.649   2.259  20.291  0.00  0.00    +0.000 A 
ATOM      6  C   UNL     1       2.604   3.109  20.645  0.00  0.00    +0.000 A 
ATOM      7 CL   UNL     1       1.458   2.601  21.827  0.00  0.00    +0.000 Cl
ATOM      8  C   UNL     1       2.470   4.371  20.061  0.00  0.00    +0.000 A 
ATOM      9  C   UNL     1       3.424   4.797  19.113  0.00  0.00    +0.000 A 
ATOM     10  C   UNL     1       3.614   5.968  18.325  0.00  0.00    +0.000 A 
ATOM     11  H   UNL     1       6.094   4.191  17.434  0.00  0.00    +0.000 HD
ENDROOT
BRANCH   1  13
ATOM     12  O   UNL     1       5.035   6.804  15.439  0.00  0.00    +0.000 OA
ATOM     13  C   UNL     1       5.395   6.684  16.602  0.00  0.00    +0.000 C 
BRANCH  13  14
ATOM     14  OXT UNL     1       6.452   7.355  17.106  0.00  0.00    +0.000 OA
ATOM     15  HXT UNL     1       7.303   6.894  16.966  0.00  0.00    +0.000 HD
ENDBRANCH  13  14
ENDBRANCH   1  13
BRANCH  10  16
ATOM     16  N   UNL     1       2.781   7.093  18.238  0.00  0.00    +0.000 NA
ATOM     17  N   UNL     1       2.410   7.542  19.339  0.00  0.00    +0.000 NA
BRANCH  17  18
ATOM     18  C   UNL     1       1.577   8.676  19.212  0.00  0.00    +0.000 A 
ATOM     19  C   UNL     1       1.315   9.338  18.000  0.00  0.00    +0.000 A 
ATOM     20  C   UNL     1       0.466  10.449  17.953  0.00  0.00    +0.000 A 
ATOM     21  C   UNL     1      -0.140  10.903  19.121  0.00  0.00    +0.000 A 
ATOM     22 BR   UNL     1      -1.299  12.395  19.059  0.00  0.00    +0.000 Br
ATOM     23  C   UNL     1       0.096  10.259  20.332  0.00  0.00    +0.000 A 
ATOM     24  C   UNL     1       0.950   9.151  20.373  0.00  0.00    +0.000 A 
ENDBRANCH  17  18
ENDBRANCH  10  16
TORSDOF 4
ENDMDL
