MODEL 1
REMARK VINA RESULT:      -8.1      0.000      0.000
REMARK  Name = 
REMARK  7 active torsions:
REMARK  status: ('A' for Active; 'I' for Inactive)
REMARK    1  A    between atoms: C_1  and  C_2
REMARK    2  A    between atoms: C_2  and  O_4
REMARK    3  A    between atoms: O_4  and  C_5
REMARK    4  A    between atoms: C_14  and  O_15
REMARK    5  A    between atoms: O_15  and  C_16
REMARK    6  A    between atoms: C_16  and  C_17
REMARK    7  A    between atoms: C_20  and  C_21
REMARK                            x       y       z     vdW  Elec       q    Type
REMARK                         _______ _______ _______ _____ _____    ______ ____
ROOT
ATOM      1  C   UNL     1       0.552   9.289  20.591  0.00  0.00    +0.000 A 
ATOM      2  C   UNL     1       0.212  10.566  20.121  0.00  0.00    +0.000 A 
ATOM      3  C   UNL     1       0.734  11.034  18.922  0.00  0.00    +0.000 A 
ATOM      4  C   UNL     1       1.577  10.217  18.180  0.00  0.00    +0.000 A 
ATOM      5  C   UNL     1       1.905   8.928  18.637  0.00  0.00    +0.000 A 
ATOM      6  C   UNL     1       1.395   8.444  19.846  0.00  0.00    +0.000 A 
ATOM      7  C   UNL     1       1.747   7.066  20.283  0.00  0.00    +0.000 C 
ATOM      8  O   UNL     1       1.282   6.629  21.328  0.00  0.00    +0.000 OA
ATOM      9  C   UNL     1       2.660   6.231  19.446  0.00  0.00    +0.000 A 
ATOM     10  C   UNL     1       3.049   4.929  19.820  0.00  0.00    +0.000 A 
ATOM     11  C   UNL     1       3.901   4.166  19.012  0.00  0.00    +0.000 A 
ATOM     12  C   UNL     1       4.389   4.690  17.808  0.00  0.00    +0.000 A 
ATOM     13  C   UNL     1       5.306   3.897  16.924  0.00  0.00    +0.000 C 
ATOM     14  C   UNL     1       4.006   5.982  17.431  0.00  0.00    +0.000 A 
ATOM     15  C   UNL     1       3.148   6.744  18.244  0.00  0.00    +0.000 A 
ATOM     16  C   UNL     1       2.782   8.096  17.796  0.00  0.00    +0.000 C 
ATOM     17  O   UNL     1       3.200   8.528  16.727  0.00  0.00    +0.000 OA
ENDROOT
BRANCH   1  18
ATOM     18  O   UNL     1      -0.098   8.828  21.753  0.00  0.00    +0.000 OA
BRANCH  18  20
ATOM     19  C   UNL     1      -1.088  10.438  23.157  0.00  0.00    +0.000 C 
ATOM     20  C   UNL     1       0.097   9.550  22.930  0.00  0.00    +0.000 C 
ATOM     21  O   UNL     1       1.095   9.531  23.637  0.00  0.00    +0.000 OA
ENDBRANCH  18  20
ENDBRANCH   1  18
BRANCH  10  22
ATOM     22  O   UNL     1       2.545   4.428  21.054  0.00  0.00    +0.000 OA
BRANCH  22  23
ATOM     23  C   UNL     1       1.730   3.329  21.319  0.00  0.00    +0.000 C 
ATOM     24  C   UNL     1       0.712   3.196  20.222  0.00  0.00    +0.000 C 
ATOM     25  O   UNL     1       1.809   2.581  22.281  0.00  0.00    +0.000 OA
ENDBRANCH  22  23
ENDBRANCH  10  22
TORSDOF 4
ENDMDL
MODEL 2
REMARK VINA RESULT:      -7.7      0.483      5.773
REMARK  Name = 
REMARK  7 active torsions:
REMARK  status: ('A' for Active; 'I' for Inactive)
REMARK    1  A    between atoms: C_1  and  C_2
REMARK    2  A    between atoms: C_2  and  O_4
REMARK    3  A    between atoms: O_4  and  C_5
REMARK    4  A    between atoms: C_14  and  O_15
REMARK    5  A    between atoms: O_15  and  C_16
REMARK    6  A    between atoms: C_16  and  C_17
REMARK    7  A    between atoms: C_20  and  C_21
REMARK                            x       y       z     vdW  Elec       q    Type
REMARK                         _______ _______ _______ _____ _____    ______ ____
ROOT
ATOM      1  C   UNL     1       2.771   5.114  20.009  0.00  0.00    +0.000 A 
ATOM      2  C   UNL     1       3.623   4.316  19.231  0.00  0.00    +0.000 A 
ATOM      3  C   UNL     1       4.123   4.792  18.026  0.00  0.00    +0.000 A 
ATOM      4  C   UNL     1       3.793   6.076  17.611  0.00  0.00    +0.000 A 
ATOM      5  C   UNL     1       2.956   6.888  18.397  0.00  0.00    +0.000 A 
ATOM      6  C   UNL     1       2.437   6.421  19.608  0.00  0.00    +0.000 A 
ATOM      7  C   UNL     1       1.575   7.319  20.423  0.00  0.00    +0.000 C 
ATOM      8  O   UNL     1       1.138   6.923  21.497  0.00  0.00    +0.000 OA
ATOM      9  C   UNL     1       1.250   8.690  19.927  0.00  0.00    +0.000 A 
ATOM     10  C   UNL     1       0.420   9.576  20.641  0.00  0.00    +0.000 A 
ATOM     11  C   UNL     1       0.138  10.858  20.155  0.00  0.00    +0.000 A 
ATOM     12  C   UNL     1       0.680  11.286  18.937  0.00  0.00    +0.000 A 
ATOM     13  C   UNL     1       0.393  12.653  18.388  0.00  0.00    +0.000 C 
ATOM     14  C   UNL     1       1.506  10.411  18.222  0.00  0.00    +0.000 A 
ATOM     15  C   UNL     1       1.788   9.125  18.715  0.00  0.00    +0.000 A 
ATOM     16  C   UNL     1       2.662   8.249  17.919  0.00  0.00    +0.000 C 
ATOM     17  O   UNL     1       3.146   8.651  16.867  0.00  0.00    +0.000 OA
ENDROOT
BRANCH   1  18
ATOM     18  O   UNL     1       2.390   4.620  21.273  0.00  0.00    +0.000 OA
BRANCH  18  20
ATOM     19  C   UNL     1       0.711   3.322  20.252  0.00  0.00    +0.000 C 
ATOM     20  C   UNL     1       1.765   3.373  21.314  0.00  0.00    +0.000 C 
ATOM     21  O   UNL     1       1.979   2.480  22.124  0.00  0.00    +0.000 OA
ENDBRANCH  18  20
ENDBRANCH   1  18
BRANCH  10  22
ATOM     22  O   UNL     1      -0.125   9.109  21.872  0.00  0.00    +0.000 OA
BRANCH  22  23
ATOM     23  C   UNL     1      -0.152   9.703  23.132  0.00  0.00    +0.000 C 
ATOM     24  C   UNL     1      -1.288  10.686  23.188  0.00  0.00    +0.000 C 
ATOM     25  O   UNL     1       0.612   9.478  24.058  0.00  0.00    +0.000 OA
ENDBRANCH  22  23
ENDBRANCH  10  22
TORSDOF 4
ENDMDL
MODEL 3
REMARK VINA RESULT:      -7.5      2.453      5.280
REMARK  Name = 
REMARK  7 active torsions:
REMARK  status: ('A' for Active; 'I' for Inactive)
REMARK    1  A    between atoms: C_1  and  C_2
REMARK    2  A    between atoms: C_2  and  O_4
REMARK    3  A    between atoms: O_4  and  C_5
REMARK    4  A    between atoms: C_14  and  O_15
REMARK    5  A    between atoms: O_15  and  C_16
REMARK    6  A    between atoms: C_16  and  C_17
REMARK    7  A    between atoms: C_20  and  C_21
REMARK                            x       y       z     vdW  Elec       q    Type
REMARK                         _______ _______ _______ _____ _____    ______ ____
ROOT
ATOM      1  C   UNL     1       2.096   5.697  19.971  0.00  0.00    +0.000 A 
ATOM      2  C   UNL     1       1.072   4.956  20.581  0.00  0.00    +0.000 A 
ATOM      3  C   UNL     1       0.689   3.728  20.058  0.00  0.00    +0.000 A 
ATOM      4  C   UNL     1       1.346   3.227  18.941  0.00  0.00    +0.000 A 
ATOM      5  C   UNL     1       2.387   3.956  18.339  0.00  0.00    +0.000 A 
ATOM      6  C   UNL     1       2.779   5.198  18.847  0.00  0.00    +0.000 A 
ATOM      7  C   UNL     1       3.900   5.928  18.196  0.00  0.00    +0.000 C 
ATOM      8  O   UNL     1       4.264   7.004  18.653  0.00  0.00    +0.000 OA
ATOM      9  C   UNL     1       4.571   5.343  16.996  0.00  0.00    +0.000 A 
ATOM     10  C   UNL     1       5.620   5.998  16.322  0.00  0.00    +0.000 A 
ATOM     11  C   UNL     1       6.234   5.423  15.202  0.00  0.00    +0.000 A 
ATOM     12  C   UNL     1       5.810   4.176  14.727  0.00  0.00    +0.000 A 
ATOM     13  C   UNL     1       6.447   3.536  13.528  0.00  0.00    +0.000 C 
ATOM     14  C   UNL     1       4.768   3.520  15.392  0.00  0.00    +0.000 A 
ATOM     15  C   UNL     1       4.156   4.100  16.517  0.00  0.00    +0.000 A 
ATOM     16  C   UNL     1       3.064   3.364  17.174  0.00  0.00    +0.000 C 
ATOM     17  O   UNL     1       2.723   2.262  16.757  0.00  0.00    +0.000 OA
ENDROOT
BRANCH   1  18
ATOM     18  O   UNL     1       2.516   6.878  20.614  0.00  0.00    +0.000 OA
BRANCH  18  20
ATOM     19  C   UNL     1       1.162   8.457  21.719  0.00  0.00    +0.000 C 
ATOM     20  C   UNL     1       1.751   8.028  20.411  0.00  0.00    +0.000 C 
ATOM     21  O   UNL     1       1.527   8.571  19.337  0.00  0.00    +0.000 OA
ENDBRANCH  18  20
ENDBRANCH   1  18
BRANCH  10  22
ATOM     22  O   UNL     1       6.023   7.269  16.822  0.00  0.00    +0.000 OA
BRANCH  22  23
ATOM     23  C   UNL     1       7.216   7.669  17.422  0.00  0.00    +0.000 C 
ATOM     24  C   UNL     1       7.710   6.567  18.316  0.00  0.00    +0.000 C 
ATOM     25  O   UNL     1       7.786   8.737  17.264  0.00  0.00    +0.000 OA
ENDBRANCH  22  23
ENDBRANCH  10  22
TORSDOF 4
ENDMDL
MODEL 4
REMARK VINA RESULT:      -7.1      0.962      1.055
REMARK  Name = 
REMARK  7 active torsions:
REMARK  status: ('A' for Active; 'I' for Inactive)
REMARK    1  A    between atoms: C_1  and  C_2
REMARK    2  A    between atoms: C_2  and  O_4
REMARK    3  A    between atoms: O_4  and  C_5
REMARK    4  A    between atoms: C_14  and  O_15
REMARK    5  A    between atoms: O_15  and  C_16
REMARK    6  A    between atoms: C_16  and  C_17
REMARK    7  A    between atoms: C_20  and  C_21
REMARK                            x       y       z     vdW  Elec       q    Type
REMARK                         _______ _______ _______ _____ _____    ______ ____
ROOT
ATOM      1  C   UNL     1       1.141   8.844  20.211  0.00  0.00    +0.000 A 
ATOM      2  C   UNL     1       0.847  10.154  19.806  0.00  0.00    +0.000 A 
ATOM      3  C   UNL     1       1.370  10.656  18.621  0.00  0.00    +0.000 A 
ATOM      4  C   UNL     1       2.167   9.840  17.828  0.00  0.00    +0.000 A 
ATOM      5  C   UNL     1       2.449   8.519  18.220  0.00  0.00    +0.000 A 
ATOM      6  C   UNL     1       1.937   8.001  19.414  0.00  0.00    +0.000 A 
ATOM      7  C   UNL     1       2.238   6.591  19.782  0.00  0.00    +0.000 C 
ATOM      8  O   UNL     1       1.771   6.125  20.814  0.00  0.00    +0.000 OA
ATOM      9  C   UNL     1       3.103   5.759  18.893  0.00  0.00    +0.000 A 
ATOM     10  C   UNL     1       3.444   4.427  19.200  0.00  0.00    +0.000 A 
ATOM     11  C   UNL     1       4.252   3.668  18.344  0.00  0.00    +0.000 A 
ATOM     12  C   UNL     1       4.742   4.226  17.158  0.00  0.00    +0.000 A 
ATOM     13  C   UNL     1       5.613   3.439  16.223  0.00  0.00    +0.000 C 
ATOM     14  C   UNL     1       4.407   5.549  16.846  0.00  0.00    +0.000 A 
ATOM     15  C   UNL     1       3.594   6.306  17.707  0.00  0.00    +0.000 A 
ATOM     16  C   UNL     1       3.278   7.692  17.328  0.00  0.00    +0.000 C 
ATOM     17  O   UNL     1       3.697   8.155  16.272  0.00  0.00    +0.000 OA
ENDROOT
BRANCH   1  18
ATOM     18  O   UNL     1       0.490   8.356  21.361  0.00  0.00    +0.000 OA
BRANCH  18  20
ATOM     19  C   UNL     1      -0.671   9.533  23.039  0.00  0.00    +0.000 C 
ATOM     20  C   UNL     1       0.665   9.065  22.550  0.00  0.00    +0.000 C 
ATOM     21  O   UNL     1       1.733   9.334  23.085  0.00  0.00    +0.000 OA
ENDBRANCH  18  20
ENDBRANCH   1  18
BRANCH  10  22
ATOM     22  O   UNL     1       2.938   3.890  20.419  0.00  0.00    +0.000 OA
BRANCH  22  23
ATOM     23  C   UNL     1       2.081   2.815  20.647  0.00  0.00    +0.000 C 
ATOM     24  C   UNL     1       1.701   2.789  22.101  0.00  0.00    +0.000 C 
ATOM     25  O   UNL     1       1.690   2.009  19.817  0.00  0.00    +0.000 OA
ENDBRANCH  22  23
ENDBRANCH  10  22
TORSDOF 4
ENDMDL
MODEL 5
REMARK VINA RESULT:      -6.9      0.860      5.713
REMARK  Name = 
REMARK  7 active torsions:
REMARK  status: ('A' for Active; 'I' for Inactive)
REMARK    1  A    between atoms: C_1  and  C_2
REMARK    2  A    between atoms: C_2  and  O_4
REMARK    3  A    between atoms: O_4  and  C_5
REMARK    4  A    between atoms: C_14  and  O_15
REMARK    5  A    between atoms: O_15  and  C_16
REMARK    6  A    between atoms: C_16  and  C_17
REMARK    7  A    between atoms: C_20  and  C_21
REMARK                            x       y       z     vdW  Elec       q    Type
REMARK                         _______ _______ _______ _____ _____    ______ ____
ROOT
ATOM      1  C   UNL     1       2.755   4.626  19.620  0.00  0.00    +0.000 A 
ATOM      2  C   UNL     1       3.521   3.734  18.854  0.00  0.00    +0.000 A 
ATOM      3  C   UNL     1       4.117   4.157  17.673  0.00  0.00    +0.000 A 
ATOM      4  C   UNL     1       3.967   5.477  17.268  0.00  0.00    +0.000 A 
ATOM      5  C   UNL     1       3.217   6.380  18.043  0.00  0.00    +0.000 A 
ATOM      6  C   UNL     1       2.604   5.969  19.230  0.00  0.00    +0.000 A 
ATOM      7  C   UNL     1       1.839   6.960  20.034  0.00  0.00    +0.000 C 
ATOM      8  O   UNL     1       1.321   6.611  21.088  0.00  0.00    +0.000 OA
ATOM      9  C   UNL     1       1.709   8.368  19.551  0.00  0.00    +0.000 A 
ATOM     10  C   UNL     1       0.977   9.344  20.254  0.00  0.00    +0.000 A 
ATOM     11  C   UNL     1       0.877  10.658  19.781  0.00  0.00    +0.000 A 
ATOM     12  C   UNL     1       1.508  11.028  18.586  0.00  0.00    +0.000 A 
ATOM     13  C   UNL     1       1.416  12.427  18.052  0.00  0.00    +0.000 C 
ATOM     14  C   UNL     1       2.237  10.063  17.883  0.00  0.00    +0.000 A 
ATOM     15  C   UNL     1       2.336   8.745  18.363  0.00  0.00    +0.000 A 
ATOM     16  C   UNL     1       3.115   7.774  17.579  0.00  0.00    +0.000 C 
ATOM     17  O   UNL     1       3.680   8.123  16.548  0.00  0.00    +0.000 OA
ENDROOT
BRANCH   1  18
ATOM     18  O   UNL     1       2.274   4.169  20.863  0.00  0.00    +0.000 OA
BRANCH  18  20
ATOM     19  C   UNL     1       1.506   2.300  22.072  0.00  0.00    +0.000 C 
ATOM     20  C   UNL     1       1.326   3.145  20.849  0.00  0.00    +0.000 C 
ATOM     21  O   UNL     1       0.517   2.915  19.960  0.00  0.00    +0.000 OA
ENDBRANCH  18  20
ENDBRANCH   1  18
BRANCH  10  22
ATOM     22  O   UNL     1       0.338   8.937  21.460  0.00  0.00    +0.000 OA
BRANCH  22  23
ATOM     23  C   UNL     1       0.470   9.417  22.762  0.00  0.00    +0.000 C 
ATOM     24  C   UNL     1      -0.838  10.013  23.201  0.00  0.00    +0.000 C 
ATOM     25  O   UNL     1       1.476   9.375  23.453  0.00  0.00    +0.000 OA
ENDBRANCH  22  23
ENDBRANCH  10  22
TORSDOF 4
ENDMDL
MODEL 6
REMARK VINA RESULT:      -6.8      5.504      7.978
REMARK  Name = 
REMARK  7 active torsions:
REMARK  status: ('A' for Active; 'I' for Inactive)
REMARK    1  A    between atoms: C_1  and  C_2
REMARK    2  A    between atoms: C_2  and  O_4
REMARK    3  A    between atoms: O_4  and  C_5
REMARK    4  A    between atoms: C_14  and  O_15
REMARK    5  A    between atoms: O_15  and  C_16
REMARK    6  A    between atoms: C_16  and  C_17
REMARK    7  A    between atoms: C_20  and  C_21
REMARK                            x       y       z     vdW  Elec       q    Type
REMARK                         _______ _______ _______ _____ _____    ______ ____
ROOT
ATOM      1  C   UNL     1      -1.913  12.338  21.720  0.00  0.00    +0.000 A 
ATOM      2  C   UNL     1      -0.766  12.089  22.490  0.00  0.00    +0.000 A 
ATOM      3  C   UNL     1       0.268  11.316  21.978  0.00  0.00    +0.000 A 
ATOM      4  C   UNL     1       0.168  10.812  20.688  0.00  0.00    +0.000 A 
ATOM      5  C   UNL     1      -0.970  11.076  19.904  0.00  0.00    +0.000 A 
ATOM      6  C   UNL     1      -2.023  11.844  20.407  0.00  0.00    +0.000 A 
ATOM      7  C   UNL     1      -3.199  12.121  19.538  0.00  0.00    +0.000 C 
ATOM      8  O   UNL     1      -4.114  12.815  19.966  0.00  0.00    +0.000 OA
ATOM      9  C   UNL     1      -3.255  11.552  18.158  0.00  0.00    +0.000 A 
ATOM     10  C   UNL     1      -4.352  11.758  17.299  0.00  0.00    +0.000 A 
ATOM     11  C   UNL     1      -4.374  11.217  16.007  0.00  0.00    +0.000 A 
ATOM     12  C   UNL     1      -3.296  10.454  15.543  0.00  0.00    +0.000 A 
ATOM     13  C   UNL     1      -3.292   9.859  14.165  0.00  0.00    +0.000 C 
ATOM     14  C   UNL     1      -2.203  10.246  16.392  0.00  0.00    +0.000 A 
ATOM     15  C   UNL     1      -2.184  10.792  17.687  0.00  0.00    +0.000 A 
ATOM     16  C   UNL     1      -1.008  10.538  18.534  0.00  0.00    +0.000 C 
ATOM     17  O   UNL     1      -0.064   9.886  18.101  0.00  0.00    +0.000 OA
ENDROOT
BRANCH   1  18
ATOM     18  O   UNL     1      -2.874  13.221  22.250  0.00  0.00    +0.000 OA
BRANCH  18  20
ATOM     19  C   UNL     1      -3.087  14.168  24.395  0.00  0.00    +0.000 C 
ATOM     20  C   UNL     1      -3.342  12.966  23.539  0.00  0.00    +0.000 C 
ATOM     21  O   UNL     1      -3.819  11.914  23.944  0.00  0.00    +0.000 OA
ENDBRANCH  18  20
ENDBRANCH   1  18
BRANCH  10  22
ATOM     22  O   UNL     1      -5.438  12.531  17.802  0.00  0.00    +0.000 OA
BRANCH  22  23
ATOM     23  C   UNL     1      -6.771  12.186  18.016  0.00  0.00    +0.000 C 
ATOM     24  C   UNL     1      -6.835  10.798  18.586  0.00  0.00    +0.000 C 
ATOM     25  O   UNL     1      -7.747  12.883  17.784  0.00  0.00    +0.000 OA
ENDBRANCH  22  23
ENDBRANCH  10  22
TORSDOF 4
ENDMDL
MODEL 7
REMARK VINA RESULT:      -6.7      5.475      8.390
REMARK  Name = 
REMARK  7 active torsions:
REMARK  status: ('A' for Active; 'I' for Inactive)
REMARK    1  A    between atoms: C_1  and  C_2
REMARK    2  A    between atoms: C_2  and  O_4
REMARK    3  A    between atoms: O_4  and  C_5
REMARK    4  A    between atoms: C_14  and  O_15
REMARK    5  A    between atoms: O_15  and  C_16
REMARK    6  A    between atoms: C_16  and  C_17
REMARK    7  A    between atoms: C_20  and  C_21
REMARK                            x       y       z     vdW  Elec       q    Type
REMARK                         _______ _______ _______ _____ _____    ______ ____
ROOT
ATOM      1  C   UNL     1      -5.066  13.342  21.860  0.00  0.00    +0.000 A 
ATOM      2  C   UNL     1      -6.353  13.502  22.396  0.00  0.00    +0.000 A 
ATOM      3  C   UNL     1      -7.468  13.105  21.670  0.00  0.00    +0.000 A 
ATOM      4  C   UNL     1      -7.298  12.526  20.419  0.00  0.00    +0.000 A 
ATOM      5  C   UNL     1      -6.008  12.345  19.886  0.00  0.00    +0.000 A 
ATOM      6  C   UNL     1      -4.875  12.747  20.600  0.00  0.00    +0.000 A 
ATOM      7  C   UNL     1      -3.528  12.516  20.012  0.00  0.00    +0.000 C 
ATOM      8  O   UNL     1      -2.531  12.843  20.645  0.00  0.00    +0.000 OA
ATOM      9  C   UNL     1      -3.403  11.890  18.662  0.00  0.00    +0.000 A 
ATOM     10  C   UNL     1      -2.156  11.670  18.043  0.00  0.00    +0.000 A 
ATOM     11  C   UNL     1      -2.069  11.075  16.778  0.00  0.00    +0.000 A 
ATOM     12  C   UNL     1      -3.230  10.687  16.099  0.00  0.00    +0.000 A 
ATOM     13  C   UNL     1      -3.168  10.050  14.741  0.00  0.00    +0.000 C 
ATOM     14  C   UNL     1      -4.471  10.903  16.708  0.00  0.00    +0.000 A 
ATOM     15  C   UNL     1      -4.554  11.499  17.979  0.00  0.00    +0.000 A 
ATOM     16  C   UNL     1      -5.887  11.701  18.568  0.00  0.00    +0.000 C 
ATOM     17  O   UNL     1      -6.891  11.333  17.967  0.00  0.00    +0.000 OA
ENDROOT
BRANCH   1  18
ATOM     18  O   UNL     1      -3.971  13.657  22.690  0.00  0.00    +0.000 OA
BRANCH  18  20
ATOM     19  C   UNL     1      -3.493  14.055  24.961  0.00  0.00    +0.000 C 
ATOM     20  C   UNL     1      -3.914  13.043  23.941  0.00  0.00    +0.000 C 
ATOM     21  O   UNL     1      -4.102  11.857  24.177  0.00  0.00    +0.000 OA
ENDBRANCH  18  20
ENDBRANCH   1  18
BRANCH  10  22
ATOM     22  O   UNL     1      -0.994  12.083  18.754  0.00  0.00    +0.000 OA
BRANCH  22  23
ATOM     23  C   UNL     1       0.149  11.371  19.113  0.00  0.00    +0.000 C 
ATOM     24  C   UNL     1      -0.246  10.217  19.990  0.00  0.00    +0.000 C 
ATOM     25  O   UNL     1       1.297  11.625  18.782  0.00  0.00    +0.000 OA
ENDBRANCH  22  23
ENDBRANCH  10  22
TORSDOF 4
ENDMDL
MODEL 8
REMARK VINA RESULT:      -6.7      1.825      7.118
REMARK  Name = 
REMARK  7 active torsions:
REMARK  status: ('A' for Active; 'I' for Inactive)
REMARK    1  A    between atoms: C_1  and  C_2
REMARK    2  A    between atoms: C_2  and  O_4
REMARK    3  A    between atoms: O_4  and  C_5
REMARK    4  A    between atoms: C_14  and  O_15
REMARK    5  A    between atoms: O_15  and  C_16
REMARK    6  A    between atoms: C_16  and  C_17
REMARK    7  A    between atoms: C_20  and  C_21
REMARK                            x       y       z     vdW  Elec       q    Type
REMARK                         _______ _______ _______ _____ _____    ______ ____
ROOT
ATOM      1  C   UNL     1       4.256   5.189  17.364  0.00  0.00    +0.000 A 
ATOM      2  C   UNL     1       4.619   3.834  17.408  0.00  0.00    +0.000 A 
ATOM      3  C   UNL     1       4.177   3.023  18.446  0.00  0.00    +0.000 A 
ATOM      4  C   UNL     1       3.353   3.560  19.427  0.00  0.00    +0.000 A 
ATOM      5  C   UNL     1       2.970   4.913  19.377  0.00  0.00    +0.000 A 
ATOM      6  C   UNL     1       3.412   5.744  18.343  0.00  0.00    +0.000 A 
ATOM      7  C   UNL     1       2.966   7.163  18.312  0.00  0.00    +0.000 C 
ATOM      8  O   UNL     1       3.330   7.889  17.395  0.00  0.00    +0.000 OA
ATOM      9  C   UNL     1       2.080   7.688  19.394  0.00  0.00    +0.000 A 
ATOM     10  C   UNL     1       1.645   9.027  19.432  0.00  0.00    +0.000 A 
ATOM     11  C   UNL     1       0.809   9.491  20.456  0.00  0.00    +0.000 A 
ATOM     12  C   UNL     1       0.389   8.623  21.471  0.00  0.00    +0.000 A 
ATOM     13  C   UNL     1      -0.503   9.091  22.583  0.00  0.00    +0.000 C 
ATOM     14  C   UNL     1       0.817   7.291  21.439  0.00  0.00    +0.000 A 
ATOM     15  C   UNL     1       1.655   6.830  20.408  0.00  0.00    +0.000 A 
ATOM     16  C   UNL     1       2.074   5.419  20.429  0.00  0.00    +0.000 C 
ATOM     17  O   UNL     1       1.676   4.669  21.313  0.00  0.00    +0.000 OA
ENDROOT
BRANCH   1  18
ATOM     18  O   UNL     1       4.639   5.928  16.228  0.00  0.00    +0.000 OA
BRANCH  18  20
ATOM     19  C   UNL     1       6.688   6.728  17.070  0.00  0.00    +0.000 C 
ATOM     20  C   UNL     1       6.003   6.014  15.946  0.00  0.00    +0.000 C 
ATOM     21  O   UNL     1       6.558   5.639  14.921  0.00  0.00    +0.000 OA
ENDBRANCH  18  20
ENDBRANCH   1  18
BRANCH  10  22
ATOM     22  O   UNL     1       2.096   9.889  18.391  0.00  0.00    +0.000 OA
BRANCH  22  23
ATOM     23  C   UNL     1       1.923  11.260  18.213  0.00  0.00    +0.000 C 
ATOM     24  C   UNL     1       0.485  11.612  18.469  0.00  0.00    +0.000 C 
ATOM     25  O   UNL     1       2.786  12.066  17.899  0.00  0.00    +0.000 OA
ENDBRANCH  22  23
ENDBRANCH  10  22
TORSDOF 4
ENDMDL
MODEL 9
REMARK VINA RESULT:      -6.5      2.346      6.475
REMARK  Name = 
REMARK  7 active torsions:
REMARK  status: ('A' for Active; 'I' for Inactive)
REMARK    1  A    between atoms: C_1  and  C_2
REMARK    2  A    between atoms: C_2  and  O_4
REMARK    3  A    between atoms: O_4  and  C_5
REMARK    4  A    between atoms: C_14  and  O_15
REMARK    5  A    between atoms: O_15  and  C_16
REMARK    6  A    between atoms: C_16  and  C_17
REMARK    7  A    between atoms: C_20  and  C_21
REMARK                            x       y       z     vdW  Elec       q    Type
REMARK                         _______ _______ _______ _____ _____    ______ ____
ROOT
ATOM      1  C   UNL     1       6.221   6.078  16.400  0.00  0.00    +0.000 A 
ATOM      2  C   UNL     1       7.012   5.453  15.423  0.00  0.00    +0.000 A 
ATOM      3  C   UNL     1       6.827   4.109  15.125  0.00  0.00    +0.000 A 
ATOM      4  C   UNL     1       5.836   3.395  15.785  0.00  0.00    +0.000 A 
ATOM      5  C   UNL     1       5.027   4.021  16.751  0.00  0.00    +0.000 A 
ATOM      6  C   UNL     1       5.205   5.371  17.068  0.00  0.00    +0.000 A 
ATOM      7  C   UNL     1       4.314   6.003  18.078  0.00  0.00    +0.000 C 
ATOM      8  O   UNL     1       4.449   7.192  18.341  0.00  0.00    +0.000 OA
ATOM      9  C   UNL     1       3.264   5.187  18.759  0.00  0.00    +0.000 A 
ATOM     10  C   UNL     1       2.407   5.722  19.740  0.00  0.00    +0.000 A 
ATOM     11  C   UNL     1       1.428   4.935  20.357  0.00  0.00    +0.000 A 
ATOM     12  C   UNL     1       1.283   3.586  20.008  0.00  0.00    +0.000 A 
ATOM     13  C   UNL     1       0.245   2.716  20.655  0.00  0.00    +0.000 C 
ATOM     14  C   UNL     1       2.131   3.048  19.033  0.00  0.00    +0.000 A 
ATOM     15  C   UNL     1       3.112   3.843  18.415  0.00  0.00    +0.000 A 
ATOM     16  C   UNL     1       3.974   3.221  17.399  0.00  0.00    +0.000 C 
ATOM     17  O   UNL     1       3.816   2.045  17.089  0.00  0.00    +0.000 OA
ENDROOT
BRANCH   1  18
ATOM     18  O   UNL     1       6.379   7.467  16.574  0.00  0.00    +0.000 OA
BRANCH  18  20
ATOM     19  C   UNL     1       7.848   6.820  18.298  0.00  0.00    +0.000 C 
ATOM     20  C   UNL     1       7.465   7.901  17.334  0.00  0.00    +0.000 C 
ATOM     21  O   UNL     1       7.990   9.006  17.288  0.00  0.00    +0.000 OA
ENDBRANCH  18  20
ENDBRANCH   1  18
BRANCH  10  22
ATOM     22  O   UNL     1       2.585   7.094  20.082  0.00  0.00    +0.000 OA
BRANCH  22  23
ATOM     23  C   UNL     1       1.646   8.089  20.348  0.00  0.00    +0.000 C 
ATOM     24  C   UNL     1       1.480   8.948  19.127  0.00  0.00    +0.000 C 
ATOM     25  O   UNL     1       1.044   8.256  21.397  0.00  0.00    +0.000 OA
ENDBRANCH  22  23
ENDBRANCH  10  22
TORSDOF 4
ENDMDL
