MODEL 1
REMARK VINA RESULT:      -7.7      0.000      0.000
REMARK  Name = 
REMARK  5 active torsions:
REMARK  status: ('A' for Active; 'I' for Inactive)
REMARK    1  A    between atoms: C_2  and  C_3
REMARK    2  A    between atoms: C_3  and  N_4
REMARK    3  A    between atoms: N_7  and  C_8
REMARK    4  A    between atoms: C_14  and  N_15
REMARK    5  A    between atoms: C_16  and  C_18
REMARK                            x       y       z     vdW  Elec       q    Type
REMARK                         _______ _______ _______ _____ _____    ______ ____
ROOT
ATOM      1  C   UNL     1       3.495   4.406  19.492  0.00  0.00    +0.000 A 
ATOM      2  C   UNL     1       3.646   3.113  20.041  0.00  0.00    +0.000 A 
ATOM      3  F   UNL     1       4.717   2.358  19.745  0.00  0.00    +0.000 F 
ATOM      4  C   UNL     1       2.719   2.555  20.925  0.00  0.00    +0.000 A 
ATOM      5  C   UNL     1       1.601   3.281  21.312  0.00  0.00    +0.000 A 
ATOM      6  C   UNL     1       1.423   4.568  20.817  0.00  0.00    +0.000 A 
ATOM      7  C   UNL     1       2.342   5.122  19.912  0.00  0.00    +0.000 A 
ENDROOT
BRANCH   1  11
ATOM      8  N   UNL     1       6.439   5.819  16.599  0.00  0.00    +0.000 NA
ATOM      9  C   UNL     1       4.984   5.741  16.285  0.00  0.00    +0.000 C 
ATOM     10  C   UNL     1       4.175   4.718  17.127  0.00  0.00    +0.000 C 
ATOM     11  N   UNL     1       4.395   4.977  18.568  0.00  0.00    +0.000 N 
ATOM     12  C   UNL     1       5.837   4.908  18.909  0.00  0.00    +0.000 C 
ATOM     13  C   UNL     1       6.592   5.964  18.066  0.00  0.00    +0.000 C 
BRANCH   8  14
ATOM     14  C   UNL     1       7.117   4.631  16.079  0.00  0.00    +0.000 C 
BRANCH  14  16
ATOM     15  C   UNL     1       6.248   3.898  13.494  0.00  0.00    +0.000 C 
ATOM     16  C   UNL     1       6.650   4.237  14.688  0.00  0.00    +0.000 C 
ENDBRANCH  14  16
ENDBRANCH   8  14
ENDBRANCH   1  11
BRANCH   7  17
ATOM     17  N   UNL     1       2.051   6.376  19.334  0.00  0.00    +0.000 N 
ATOM     18  C   UNL     1       1.797   7.504  20.089  0.00  0.00    +0.000 C 
ATOM     19  O   UNL     1       1.763   7.524  21.321  0.00  0.00    +0.000 OA
ATOM     20  H   UNL     1       2.414   6.528  18.399  0.00  0.00    +0.000 HD
BRANCH  18  21
ATOM     21  C   UNL     1       1.649   8.723  19.311  0.00  0.00    +0.000 A 
ATOM     22  C   UNL     1       2.175   9.078  18.081  0.00  0.00    +0.000 A 
ATOM     23  C   UNL     1       1.754  10.406  17.826  0.00  0.00    +0.000 A 
ATOM     24  C   UNL     1       0.991  10.780  18.912  0.00  0.00    +0.000 A 
ATOM     25 BR   UNL     1       0.207  12.453  19.140  0.00  0.00    +0.000 Br
ATOM     26  O   UNL     1       0.899   9.759  19.804  0.00  0.00    +0.000 OA
ENDBRANCH  18  21
ENDBRANCH   7  17
TORSDOF 5
ENDMDL
MODEL 2
REMARK VINA RESULT:      -7.4      1.064      2.083
REMARK  Name = 
REMARK  5 active torsions:
REMARK  status: ('A' for Active; 'I' for Inactive)
REMARK    1  A    between atoms: C_2  and  C_3
REMARK    2  A    between atoms: C_3  and  N_4
REMARK    3  A    between atoms: N_7  and  C_8
REMARK    4  A    between atoms: C_14  and  N_15
REMARK    5  A    between atoms: C_16  and  C_18
REMARK                            x       y       z     vdW  Elec       q    Type
REMARK                         _______ _______ _______ _____ _____    ______ ____
ROOT
ATOM      1  C   UNL     1       3.592   3.826  19.691  0.00  0.00    +0.000 A 
ATOM      2  C   UNL     1       3.621   2.557  20.310  0.00  0.00    +0.000 A 
ATOM      3  F   UNL     1       4.659   1.724  20.129  0.00  0.00    +0.000 F 
ATOM      4  C   UNL     1       2.602   2.104  21.151  0.00  0.00    +0.000 A 
ATOM      5  C   UNL     1       1.508   2.915  21.422  0.00  0.00    +0.000 A 
ATOM      6  C   UNL     1       1.449   4.184  20.855  0.00  0.00    +0.000 A 
ATOM      7  C   UNL     1       2.462   4.632  19.993  0.00  0.00    +0.000 A 
ENDROOT
BRANCH   1  11
ATOM      8  N   UNL     1       6.488   5.615  16.963  0.00  0.00    +0.000 NA
ATOM      9  C   UNL     1       6.839   5.232  18.360  0.00  0.00    +0.000 C 
ATOM     10  C   UNL     1       5.646   5.175  19.353  0.00  0.00    +0.000 C 
ATOM     11  N   UNL     1       4.588   4.293  18.809  0.00  0.00    +0.000 N 
ATOM     12  C   UNL     1       4.135   4.764  17.476  0.00  0.00    +0.000 C 
ATOM     13  C   UNL     1       5.352   4.774  16.519  0.00  0.00    +0.000 C 
BRANCH   8  14
ATOM     14  C   UNL     1       6.184   7.045  16.908  0.00  0.00    +0.000 C 
BRANCH  14  16
ATOM     15  C   UNL     1       8.227   8.659  18.002  0.00  0.00    +0.000 C 
ATOM     16  C   UNL     1       7.283   7.914  17.497  0.00  0.00    +0.000 C 
ENDBRANCH  14  16
ENDBRANCH   8  14
ENDBRANCH   1  11
BRANCH   7  17
ATOM     17  N   UNL     1       2.293   5.870  19.336  0.00  0.00    +0.000 N 
ATOM     18  C   UNL     1       1.857   7.007  19.989  0.00  0.00    +0.000 C 
ATOM     19  O   UNL     1       1.544   7.049  21.180  0.00  0.00    +0.000 OA
ATOM     20  H   UNL     1       2.857   6.012  18.505  0.00  0.00    +0.000 HD
BRANCH  18  21
ATOM     21  C   UNL     1       1.873   8.208  19.171  0.00  0.00    +0.000 A 
ATOM     22  C   UNL     1       2.468   8.460  17.947  0.00  0.00    +0.000 A 
ATOM     23  C   UNL     1       2.213   9.818  17.640  0.00  0.00    +0.000 A 
ATOM     24  C   UNL     1       1.472  10.314  18.692  0.00  0.00    +0.000 A 
ATOM     25 BR   UNL     1       0.885  12.073  18.847  0.00  0.00    +0.000 Br
ATOM     26  O   UNL     1       1.238   9.341  19.611  0.00  0.00    +0.000 OA
ENDBRANCH  18  21
ENDBRANCH   7  17
TORSDOF 5
ENDMDL
MODEL 3
REMARK VINA RESULT:      -6.9      4.408      7.192
REMARK  Name = 
REMARK  5 active torsions:
REMARK  status: ('A' for Active; 'I' for Inactive)
REMARK    1  A    between atoms: C_2  and  C_3
REMARK    2  A    between atoms: C_3  and  N_4
REMARK    3  A    between atoms: N_7  and  C_8
REMARK    4  A    between atoms: C_14  and  N_15
REMARK    5  A    between atoms: C_16  and  C_18
REMARK                            x       y       z     vdW  Elec       q    Type
REMARK                         _______ _______ _______ _____ _____    ______ ____
ROOT
ATOM      1  C   UNL     1       5.459   4.437  18.141  0.00  0.00    +0.000 A 
ATOM      2  C   UNL     1       5.855   5.108  19.320  0.00  0.00    +0.000 A 
ATOM      3  F   UNL     1       5.034   5.184  20.380  0.00  0.00    +0.000 F 
ATOM      4  C   UNL     1       7.110   5.706  19.463  0.00  0.00    +0.000 A 
ATOM      5  C   UNL     1       8.034   5.644  18.429  0.00  0.00    +0.000 A 
ATOM      6  C   UNL     1       7.698   4.972  17.259  0.00  0.00    +0.000 A 
ATOM      7  C   UNL     1       6.431   4.389  17.105  0.00  0.00    +0.000 A 
ENDROOT
BRANCH   1  11
ATOM      8  N   UNL     1       1.427   2.788  17.921  0.00  0.00    +0.000 NA
ATOM      9  C   UNL     1       1.881   3.906  17.046  0.00  0.00    +0.000 C 
ATOM     10  C   UNL     1       3.059   4.750  17.604  0.00  0.00    +0.000 C 
ATOM     11  N   UNL     1       4.187   3.859  17.956  0.00  0.00    +0.000 N 
ATOM     12  C   UNL     1       3.768   2.834  18.943  0.00  0.00    +0.000 C 
ATOM     13  C   UNL     1       2.615   2.002  18.329  0.00  0.00    +0.000 C 
BRANCH   8  14
ATOM     14  C   UNL     1       0.691   3.328  19.065  0.00  0.00    +0.000 C 
BRANCH  14  16
ATOM     15  C   UNL     1       1.660   2.398  21.549  0.00  0.00    +0.000 C 
ATOM     16  C   UNL     1       1.213   2.827  20.402  0.00  0.00    +0.000 C 
ENDBRANCH  14  16
ENDBRANCH   8  14
ENDBRANCH   1  11
BRANCH   7  17
ATOM     17  N   UNL     1       6.087   3.836  15.853  0.00  0.00    +0.000 N 
ATOM     18  C   UNL     1       5.790   4.613  14.751  0.00  0.00    +0.000 C 
ATOM     19  O   UNL     1       5.760   5.845  14.756  0.00  0.00    +0.000 OA
ATOM     20  H   UNL     1       6.440   2.902  15.668  0.00  0.00    +0.000 HD
BRANCH  18  21
ATOM     21  C   UNL     1       5.590   3.860  13.525  0.00  0.00    +0.000 A 
ATOM     22  C   UNL     1       6.417   2.963  12.870  0.00  0.00    +0.000 A 
ATOM     23  C   UNL     1       5.743   2.573  11.688  0.00  0.00    +0.000 A 
ATOM     24  C   UNL     1       4.541   3.249  11.694  0.00  0.00    +0.000 A 
ATOM     25 BR   UNL     1       3.256   3.153  10.351  0.00  0.00    +0.000 Br
ATOM     26  O   UNL     1       4.427   4.010  12.814  0.00  0.00    +0.000 OA
ENDBRANCH  18  21
ENDBRANCH   7  17
TORSDOF 5
ENDMDL
MODEL 4
REMARK VINA RESULT:      -6.8      1.468      2.090
REMARK  Name = 
REMARK  5 active torsions:
REMARK  status: ('A' for Active; 'I' for Inactive)
REMARK    1  A    between atoms: C_2  and  C_3
REMARK    2  A    between atoms: C_3  and  N_4
REMARK    3  A    between atoms: N_7  and  C_8
REMARK    4  A    between atoms: C_14  and  N_15
REMARK    5  A    between atoms: C_16  and  C_18
REMARK                            x       y       z     vdW  Elec       q    Type
REMARK                         _______ _______ _______ _____ _____    ______ ____
ROOT
ATOM      1  C   UNL     1       3.024   3.928  18.035  0.00  0.00    +0.000 A 
ATOM      2  C   UNL     1       3.088   2.528  18.211  0.00  0.00    +0.000 A 
ATOM      3  F   UNL     1       4.076   1.807  17.658  0.00  0.00    +0.000 F 
ATOM      4  C   UNL     1       2.156   1.821  18.975  0.00  0.00    +0.000 A 
ATOM      5  C   UNL     1       1.122   2.493  19.612  0.00  0.00    +0.000 A 
ATOM      6  C   UNL     1       1.033   3.875  19.488  0.00  0.00    +0.000 A 
ATOM      7  C   UNL     1       1.956   4.585  18.704  0.00  0.00    +0.000 A 
ENDROOT
BRANCH   1  11
ATOM      8  N   UNL     1       6.079   6.162  15.865  0.00  0.00    +0.000 NA
ATOM      9  C   UNL     1       5.623   4.809  15.436  0.00  0.00    +0.000 C 
ATOM     10  C   UNL     1       5.017   3.925  16.559  0.00  0.00    +0.000 C 
ATOM     11  N   UNL     1       3.928   4.662  17.239  0.00  0.00    +0.000 N 
ATOM     12  C   UNL     1       4.420   5.946  17.796  0.00  0.00    +0.000 C 
ATOM     13  C   UNL     1       4.985   6.801  16.635  0.00  0.00    +0.000 C 
BRANCH   8  14
ATOM     14  C   UNL     1       7.314   6.041  16.639  0.00  0.00    +0.000 C 
BRANCH  14  16
ATOM     15  C   UNL     1       8.084   8.455  17.886  0.00  0.00    +0.000 C 
ATOM     16  C   UNL     1       7.729   7.340  17.310  0.00  0.00    +0.000 C 
ENDBRANCH  14  16
ENDBRANCH   8  14
ENDBRANCH   1  11
BRANCH   7  17
ATOM     17  N   UNL     1       1.749   5.965  18.498  0.00  0.00    +0.000 N 
ATOM     18  C   UNL     1       1.870   6.897  19.511  0.00  0.00    +0.000 C 
ATOM     19  O   UNL     1       2.132   6.621  20.683  0.00  0.00    +0.000 OA
ATOM     20  H   UNL     1       1.900   6.301  17.552  0.00  0.00    +0.000 HD
BRANCH  18  21
ATOM     21  C   UNL     1       1.746   8.277  19.071  0.00  0.00    +0.000 A 
ATOM     22  C   UNL     1       2.154   8.892  17.900  0.00  0.00    +0.000 A 
ATOM     23  C   UNL     1       1.833  10.264  18.026  0.00  0.00    +0.000 A 
ATOM     24  C   UNL     1       1.241  10.405  19.265  0.00  0.00    +0.000 A 
ATOM     25 BR   UNL     1       0.651  12.016  19.988  0.00  0.00    +0.000 Br
ATOM     26  O   UNL     1       1.161   9.204  19.894  0.00  0.00    +0.000 OA
ENDBRANCH  18  21
ENDBRANCH   7  17
TORSDOF 5
ENDMDL
MODEL 5
REMARK VINA RESULT:      -6.7      4.686      7.398
REMARK  Name = 
REMARK  5 active torsions:
REMARK  status: ('A' for Active; 'I' for Inactive)
REMARK    1  A    between atoms: C_2  and  C_3
REMARK    2  A    between atoms: C_3  and  N_4
REMARK    3  A    between atoms: N_7  and  C_8
REMARK    4  A    between atoms: C_14  and  N_15
REMARK    5  A    between atoms: C_16  and  C_18
REMARK                            x       y       z     vdW  Elec       q    Type
REMARK                         _______ _______ _______ _____ _____    ______ ____
ROOT
ATOM      1  C   UNL     1       5.447   4.473  18.100  0.00  0.00    +0.000 A 
ATOM      2  C   UNL     1       5.854   5.139  19.278  0.00  0.00    +0.000 A 
ATOM      3  F   UNL     1       5.061   5.170  20.362  0.00  0.00    +0.000 F 
ATOM      4  C   UNL     1       7.091   5.776  19.395  0.00  0.00    +0.000 A 
ATOM      5  C   UNL     1       7.988   5.762  18.335  0.00  0.00    +0.000 A 
ATOM      6  C   UNL     1       7.641   5.097  17.164  0.00  0.00    +0.000 A 
ATOM      7  C   UNL     1       6.390   4.473  17.037  0.00  0.00    +0.000 A 
ENDROOT
BRANCH   1  11
ATOM      8  N   UNL     1       1.460   2.711  17.956  0.00  0.00    +0.000 NA
ATOM      9  C   UNL     1       1.882   3.807  17.038  0.00  0.00    +0.000 C 
ATOM     10  C   UNL     1       3.038   4.702  17.560  0.00  0.00    +0.000 C 
ATOM     11  N   UNL     1       4.190   3.854  17.941  0.00  0.00    +0.000 N 
ATOM     12  C   UNL     1       3.801   2.856  18.967  0.00  0.00    +0.000 C 
ATOM     13  C   UNL     1       2.670   1.972  18.389  0.00  0.00    +0.000 C 
BRANCH   8  14
ATOM     14  C   UNL     1       0.713   3.273  19.082  0.00  0.00    +0.000 C 
BRANCH  14  16
ATOM     15  C   UNL     1       1.673   2.411  21.594  0.00  0.00    +0.000 C 
ATOM     16  C   UNL     1       1.230   2.809  20.434  0.00  0.00    +0.000 C 
ENDBRANCH  14  16
ENDBRANCH   8  14
ENDBRANCH   1  11
BRANCH   7  17
ATOM     17  N   UNL     1       6.029   3.928  15.786  0.00  0.00    +0.000 N 
ATOM     18  C   UNL     1       5.663   4.712  14.708  0.00  0.00    +0.000 C 
ATOM     19  O   UNL     1       5.582   5.941  14.738  0.00  0.00    +0.000 OA
ATOM     20  H   UNL     1       6.415   3.014  15.572  0.00  0.00    +0.000 HD
BRANCH  18  21
ATOM     21  C   UNL     1       5.456   3.972  13.475  0.00  0.00    +0.000 A 
ATOM     22  C   UNL     1       4.383   3.957  12.600  0.00  0.00    +0.000 A 
ATOM     23  C   UNL     1       4.690   3.010  11.594  0.00  0.00    +0.000 A 
ATOM     24  C   UNL     1       5.935   2.507  11.910  0.00  0.00    +0.000 A 
ATOM     25 BR   UNL     1       6.828   1.185  10.951  0.00  0.00    +0.000 Br
ATOM     26  O   UNL     1       6.418   3.102  13.032  0.00  0.00    +0.000 OA
ENDBRANCH  18  21
ENDBRANCH   7  17
TORSDOF 5
ENDMDL
MODEL 6
REMARK VINA RESULT:      -6.7      2.145      5.051
REMARK  Name = 
REMARK  5 active torsions:
REMARK  status: ('A' for Active; 'I' for Inactive)
REMARK    1  A    between atoms: C_2  and  C_3
REMARK    2  A    between atoms: C_3  and  N_4
REMARK    3  A    between atoms: N_7  and  C_8
REMARK    4  A    between atoms: C_14  and  N_15
REMARK    5  A    between atoms: C_16  and  C_18
REMARK                            x       y       z     vdW  Elec       q    Type
REMARK                         _______ _______ _______ _____ _____    ______ ____
ROOT
ATOM      1  C   UNL     1       5.182   4.552  17.118  0.00  0.00    +0.000 A 
ATOM      2  C   UNL     1       6.194   4.241  16.182  0.00  0.00    +0.000 A 
ATOM      3  F   UNL     1       6.267   3.022  15.623  0.00  0.00    +0.000 F 
ATOM      4  C   UNL     1       7.152   5.171  15.771  0.00  0.00    +0.000 A 
ATOM      5  C   UNL     1       7.128   6.466  16.272  0.00  0.00    +0.000 A 
ATOM      6  C   UNL     1       6.135   6.824  17.177  0.00  0.00    +0.000 A 
ATOM      7  C   UNL     1       5.184   5.886  17.607  0.00  0.00    +0.000 A 
ENDROOT
BRANCH   1  11
ATOM      8  N   UNL     1       2.074   1.967  18.757  0.00  0.00    +0.000 NA
ATOM      9  C   UNL     1       2.103   2.369  17.322  0.00  0.00    +0.000 C 
ATOM     10  C   UNL     1       2.859   3.691  17.018  0.00  0.00    +0.000 C 
ATOM     11  N   UNL     1       4.227   3.622  17.579  0.00  0.00    +0.000 N 
ATOM     12  C   UNL     1       4.191   3.368  19.040  0.00  0.00    +0.000 C 
ATOM     13  C   UNL     1       3.456   2.028  19.288  0.00  0.00    +0.000 C 
BRANCH   8  14
ATOM     14  C   UNL     1       1.152   2.835  19.491  0.00  0.00    +0.000 C 
BRANCH  14  16
ATOM     15  C   UNL     1       1.465   2.669  22.293  0.00  0.00    +0.000 C 
ATOM     16  C   UNL     1       1.320   2.746  20.999  0.00  0.00    +0.000 C 
ENDBRANCH  14  16
ENDBRANCH   8  14
ENDBRANCH   1  11
BRANCH   7  17
ATOM     17  N   UNL     1       4.280   6.256  18.625  0.00  0.00    +0.000 N 
ATOM     18  C   UNL     1       3.240   7.141  18.413  0.00  0.00    +0.000 C 
ATOM     19  O   UNL     1       3.021   7.714  17.345  0.00  0.00    +0.000 OA
ATOM     20  H   UNL     1       4.159   5.586  19.377  0.00  0.00    +0.000 HD
BRANCH  18  21
ATOM     21  C   UNL     1       2.345   7.293  19.547  0.00  0.00    +0.000 A 
ATOM     22  C   UNL     1       1.883   6.364  20.464  0.00  0.00    +0.000 A 
ATOM     23  C   UNL     1       0.986   7.046  21.321  0.00  0.00    +0.000 A 
ATOM     24  C   UNL     1       0.959   8.353  20.881  0.00  0.00    +0.000 A 
ATOM     25 BR   UNL     1      -0.091   9.704  21.614  0.00  0.00    +0.000 Br
ATOM     26  O   UNL     1       1.798   8.519  19.825  0.00  0.00    +0.000 OA
ENDBRANCH  18  21
ENDBRANCH   7  17
TORSDOF 5
ENDMDL
MODEL 7
REMARK VINA RESULT:      -6.5      1.168      1.284
REMARK  Name = 
REMARK  5 active torsions:
REMARK  status: ('A' for Active; 'I' for Inactive)
REMARK    1  A    between atoms: C_2  and  C_3
REMARK    2  A    between atoms: C_3  and  N_4
REMARK    3  A    between atoms: N_7  and  C_8
REMARK    4  A    between atoms: C_14  and  N_15
REMARK    5  A    between atoms: C_16  and  C_18
REMARK                            x       y       z     vdW  Elec       q    Type
REMARK                         _______ _______ _______ _____ _____    ______ ____
ROOT
ATOM      1  C   UNL     1       3.730   4.467  19.425  0.00  0.00    +0.000 A 
ATOM      2  C   UNL     1       3.770   3.062  19.563  0.00  0.00    +0.000 A 
ATOM      3  F   UNL     1       4.632   2.322  18.846  0.00  0.00    +0.000 F 
ATOM      4  C   UNL     1       2.945   2.367  20.450  0.00  0.00    +0.000 A 
ATOM      5  C   UNL     1       2.049   3.057  21.256  0.00  0.00    +0.000 A 
ATOM      6  C   UNL     1       1.992   4.444  21.173  0.00  0.00    +0.000 A 
ATOM      7  C   UNL     1       2.806   5.142  20.267  0.00  0.00    +0.000 A 
ENDROOT
BRANCH   1  11
ATOM      8  N   UNL     1       6.404   6.380  16.558  0.00  0.00    +0.000 NA
ATOM      9  C   UNL     1       4.985   6.059  16.235  0.00  0.00    +0.000 C 
ATOM     10  C   UNL     1       4.358   4.908  17.067  0.00  0.00    +0.000 C 
ATOM     11  N   UNL     1       4.524   5.190  18.511  0.00  0.00    +0.000 N 
ATOM     12  C   UNL     1       5.956   5.364  18.859  0.00  0.00    +0.000 C 
ATOM     13  C   UNL     1       6.524   6.540  18.027  0.00  0.00    +0.000 C 
BRANCH   8  14
ATOM     14  C   UNL     1       7.277   5.329  16.034  0.00  0.00    +0.000 C 
BRANCH  14  16
ATOM     15  C   UNL     1       6.285   4.138  13.674  0.00  0.00    +0.000 C 
ATOM     16  C   UNL     1       6.743   4.688  14.764  0.00  0.00    +0.000 C 
ENDBRANCH  14  16
ENDBRANCH   8  14
ENDBRANCH   1  11
BRANCH   7  17
ATOM     17  N   UNL     1       2.619   6.533  20.123  0.00  0.00    +0.000 N 
ATOM     18  C   UNL     1       1.996   7.092  19.023  0.00  0.00    +0.000 C 
ATOM     19  O   UNL     1       1.580   6.449  18.058  0.00  0.00    +0.000 OA
ATOM     20  H   UNL     1       2.584   7.068  20.984  0.00  0.00    +0.000 HD
BRANCH  18  21
ATOM     21  C   UNL     1       1.783   8.526  19.122  0.00  0.00    +0.000 A 
ATOM     22  C   UNL     1       0.966   9.262  19.963  0.00  0.00    +0.000 A 
ATOM     23  C   UNL     1       1.106  10.619  19.584  0.00  0.00    +0.000 A 
ATOM     24  C   UNL     1       2.006  10.632  18.538  0.00  0.00    +0.000 A 
ATOM     25 BR   UNL     1       2.540  12.154  17.609  0.00  0.00    +0.000 Br
ATOM     26  O   UNL     1       2.442   9.373  18.269  0.00  0.00    +0.000 OA
ENDBRANCH  18  21
ENDBRANCH   7  17
TORSDOF 5
ENDMDL
MODEL 8
REMARK VINA RESULT:      -6.4      1.032      1.687
REMARK  Name = 
REMARK  5 active torsions:
REMARK  status: ('A' for Active; 'I' for Inactive)
REMARK    1  A    between atoms: C_2  and  C_3
REMARK    2  A    between atoms: C_3  and  N_4
REMARK    3  A    between atoms: N_7  and  C_8
REMARK    4  A    between atoms: C_14  and  N_15
REMARK    5  A    between atoms: C_16  and  C_18
REMARK                            x       y       z     vdW  Elec       q    Type
REMARK                         _______ _______ _______ _____ _____    ______ ____
ROOT
ATOM      1  C   UNL     1       2.937   3.942  19.079  0.00  0.00    +0.000 A 
ATOM      2  C   UNL     1       2.967   2.609  19.546  0.00  0.00    +0.000 A 
ATOM      3  F   UNL     1       3.933   1.762  19.155  0.00  0.00    +0.000 F 
ATOM      4  C   UNL     1       2.023   2.102  20.442  0.00  0.00    +0.000 A 
ATOM      5  C   UNL     1       1.009   2.919  20.925  0.00  0.00    +0.000 A 
ATOM      6  C   UNL     1       0.955   4.247  20.513  0.00  0.00    +0.000 A 
ATOM      7  C   UNL     1       1.890   4.752  19.596  0.00  0.00    +0.000 A 
ENDROOT
BRANCH   1  11
ATOM      8  N   UNL     1       6.058   5.412  16.409  0.00  0.00    +0.000 NA
ATOM      9  C   UNL     1       5.094   4.351  16.002  0.00  0.00    +0.000 C 
ATOM     10  C   UNL     1       4.466   3.540  17.168  0.00  0.00    +0.000 C 
ATOM     11  N   UNL     1       3.854   4.469  18.146  0.00  0.00    +0.000 N 
ATOM     12  C   UNL     1       4.854   5.435  18.662  0.00  0.00    +0.000 C 
ATOM     13  C   UNL     1       5.426   6.236  17.467  0.00  0.00    +0.000 C 
BRANCH   8  14
ATOM     14  C   UNL     1       7.310   4.796  16.850  0.00  0.00    +0.000 C 
BRANCH  14  16
ATOM     15  C   UNL     1       8.200   5.755  19.352  0.00  0.00    +0.000 C 
ATOM     16  C   UNL     1       7.789   5.312  18.196  0.00  0.00    +0.000 C 
ENDBRANCH  14  16
ENDBRANCH   8  14
ENDBRANCH   1  11
BRANCH   7  17
ATOM     17  N   UNL     1       1.716   6.063  19.105  0.00  0.00    +0.000 N 
ATOM     18  C   UNL     1       1.789   7.180  19.916  0.00  0.00    +0.000 C 
ATOM     19  O   UNL     1       1.976   7.144  21.133  0.00  0.00    +0.000 OA
ATOM     20  H   UNL     1       1.929   6.201  18.122  0.00  0.00    +0.000 HD
BRANCH  18  21
ATOM     21  C   UNL     1       1.713   8.442  19.201  0.00  0.00    +0.000 A 
ATOM     22  C   UNL     1       2.301   8.847  18.015  0.00  0.00    +0.000 A 
ATOM     23  C   UNL     1       1.933  10.199  17.817  0.00  0.00    +0.000 A 
ATOM     24  C   UNL     1       1.137  10.539  18.891  0.00  0.00    +0.000 A 
ATOM     25 BR   UNL     1       0.398  12.223  19.180  0.00  0.00    +0.000 Br
ATOM     26  O   UNL     1       0.976   9.475  19.721  0.00  0.00    +0.000 OA
ENDBRANCH  18  21
ENDBRANCH   7  17
TORSDOF 5
ENDMDL
MODEL 9
REMARK VINA RESULT:      -6.4      5.383      8.989
REMARK  Name = 
REMARK  5 active torsions:
REMARK  status: ('A' for Active; 'I' for Inactive)
REMARK    1  A    between atoms: C_2  and  C_3
REMARK    2  A    between atoms: C_3  and  N_4
REMARK    3  A    between atoms: N_7  and  C_8
REMARK    4  A    between atoms: C_14  and  N_15
REMARK    5  A    between atoms: C_16  and  C_18
REMARK                            x       y       z     vdW  Elec       q    Type
REMARK                         _______ _______ _______ _____ _____    ______ ____
ROOT
ATOM      1  C   UNL     1       0.141  13.008  21.623  0.00  0.00    +0.000 A 
ATOM      2  C   UNL     1      -0.607  13.874  22.452  0.00  0.00    +0.000 A 
ATOM      3  F   UNL     1      -0.398  15.200  22.433  0.00  0.00    +0.000 F 
ATOM      4  C   UNL     1      -1.607  13.416  23.313  0.00  0.00    +0.000 A 
ATOM      5  C   UNL     1      -1.914  12.063  23.370  0.00  0.00    +0.000 A 
ATOM      6  C   UNL     1      -1.221  11.176  22.553  0.00  0.00    +0.000 A 
ATOM      7  C   UNL     1      -0.201  11.632  21.702  0.00  0.00    +0.000 A 
ENDROOT
BRANCH   1  11
ATOM      8  N   UNL     1       3.211  14.701  19.027  0.00  0.00    +0.000 NA
ATOM      9  C   UNL     1       3.518  14.171  20.385  0.00  0.00    +0.000 C 
ATOM     10  C   UNL     1       2.325  14.158  21.379  0.00  0.00    +0.000 C 
ATOM     11  N   UNL     1       1.182  13.439  20.774  0.00  0.00    +0.000 N 
ATOM     12  C   UNL     1       0.781  14.061  19.487  0.00  0.00    +0.000 C 
ATOM     13  C   UNL     1       1.993  14.022  18.524  0.00  0.00    +0.000 C 
BRANCH   8  14
ATOM     14  C   UNL     1       3.057  16.155  19.090  0.00  0.00    +0.000 C 
BRANCH  14  16
ATOM     15  C   UNL     1       2.503  17.325  16.580  0.00  0.00    +0.000 C 
ATOM     16  C   UNL     1       2.759  16.784  17.739  0.00  0.00    +0.000 C 
ENDBRANCH  14  16
ENDBRANCH   8  14
ENDBRANCH   1  11
BRANCH   7  17
ATOM     17  N   UNL     1       0.564  10.681  20.993  0.00  0.00    +0.000 N 
ATOM     18  C   UNL     1       0.198  10.209  19.748  0.00  0.00    +0.000 C 
ATOM     19  O   UNL     1      -0.831  10.535  19.155  0.00  0.00    +0.000 OA
ATOM     20  H   UNL     1       1.553  10.651  21.218  0.00  0.00    +0.000 HD
BRANCH  18  21
ATOM     21  C   UNL     1       1.182   9.337  19.128  0.00  0.00    +0.000 A 
ATOM     22  C   UNL     1       1.830   9.430  17.908  0.00  0.00    +0.000 A 
ATOM     23  C   UNL     1       2.640   8.275  17.787  0.00  0.00    +0.000 A 
ATOM     24  C   UNL     1       2.442   7.548  18.942  0.00  0.00    +0.000 A 
ATOM     25 BR   UNL     1       3.227   5.901  19.314  0.00  0.00    +0.000 Br
ATOM     26  O   UNL     1       1.582   8.195  19.772  0.00  0.00    +0.000 OA
ENDBRANCH  18  21
ENDBRANCH   7  17
TORSDOF 5
ENDMDL
