MODEL 1
REMARK VINA RESULT:      -8.3      0.000      0.000
REMARK  Name = 
REMARK  5 active torsions:
REMARK  status: ('A' for Active; 'I' for Inactive)
REMARK    1  A    between atoms: C_1  and  C_2
REMARK    2  A    between atoms: C_2  and  N_3
REMARK    3  A    between atoms: C_6  and  C_7
REMARK    4  A    between atoms: C_7  and  C_8
REMARK    5  A    between atoms: C_18  and  C_19
REMARK                            x       y       z     vdW  Elec       q    Type
REMARK                         _______ _______ _______ _____ _____    ______ ____
ROOT
ATOM      1  C   UNL     1       2.316   8.182  18.122  0.00  0.00    +0.000 C 
ATOM      2  O   UNL     1       2.534   8.516  16.965  0.00  0.00    +0.000 OA
ATOM      3  N   UNL     1       2.930   7.079  18.715  0.00  0.00    +0.000 N 
ATOM      4  C   UNL     1       2.632   6.605  20.075  0.00  0.00    +0.000 C 
ATOM      5  C   UNL     1       1.710   5.395  20.032  0.00  0.00    +0.000 C 
ATOM      6  N   UNL     1       2.107   4.469  18.990  0.00  0.00    +0.000 N 
ATOM      7  C   UNL     1       1.694   3.170  18.884  0.00  0.00    +0.000 A 
ATOM      8  C   UNL     1       2.249   2.649  17.736  0.00  0.00    +0.000 A 
ATOM      9  C   UNL     1       3.016   3.672  17.130  0.00  0.00    +0.000 A 
ATOM     10  C   UNL     1       2.941   4.789  17.942  0.00  0.00    +0.000 A 
ATOM     11  C   UNL     1       3.647   6.126  17.844  0.00  0.00    +0.000 C 
ENDROOT
BRANCH  11  12
ATOM     12  C   UNL     1       5.125   6.021  18.192  0.00  0.00    +0.000 A 
ATOM     13  C   UNL     1       6.133   6.684  17.474  0.00  0.00    +0.000 A 
ATOM     14  C   UNL     1       7.468   6.539  17.833  0.00  0.00    +0.000 A 
ATOM     15  C   UNL     1       7.765   5.734  18.917  0.00  0.00    +0.000 A 
ATOM     16  N   UNL     1       6.832   5.087  19.647  0.00  0.00    +0.000 NA
ATOM     17  C   UNL     1       5.538   5.245  19.271  0.00  0.00    +0.000 A 
ENDBRANCH  11  12
BRANCH   1  18
ATOM     18  C   UNL     1       1.331   8.934  19.013  0.00  0.00    +0.000 C 
BRANCH  18  22
ATOM     19  N   UNL     1      -0.401  11.671  20.814  0.00  0.00    +0.000 NA
ATOM     20  C   UNL     1       1.054  11.610  20.611  0.00  0.00    +0.000 C 
ATOM     21  C   UNL     1       1.412  11.495  19.130  0.00  0.00    +0.000 C 
ATOM     22  C   UNL     1       0.778  10.263  18.477  0.00  0.00    +0.000 C 
ATOM     23  C   UNL     1      -0.742  10.332  18.727  0.00  0.00    +0.000 C 
ATOM     24  C   UNL     1      -1.090  10.516  20.211  0.00  0.00    +0.000 C 
BRANCH  19  26
ATOM     25  C   UNL     1      -0.753  10.454  22.979  0.00  0.00    +0.000 C 
ATOM     26  C   UNL     1      -0.750  11.790  22.240  0.00  0.00    +0.000 C 
ENDBRANCH  19  26
ENDBRANCH  18  22
ENDBRANCH   1  18
TORSDOF 4
ENDMDL
MODEL 2
REMARK VINA RESULT:      -7.8      0.736      1.042
REMARK  Name = 
REMARK  5 active torsions:
REMARK  status: ('A' for Active; 'I' for Inactive)
REMARK    1  A    between atoms: C_1  and  C_2
REMARK    2  A    between atoms: C_2  and  N_3
REMARK    3  A    between atoms: C_6  and  C_7
REMARK    4  A    between atoms: C_7  and  C_8
REMARK    5  A    between atoms: C_18  and  C_19
REMARK                            x       y       z     vdW  Elec       q    Type
REMARK                         _______ _______ _______ _____ _____    ______ ____
ROOT
ATOM      1  C   UNL     1       2.088   8.399  18.219  0.00  0.00    +0.000 C 
ATOM      2  O   UNL     1       2.196   8.659  17.027  0.00  0.00    +0.000 OA
ATOM      3  N   UNL     1       2.713   7.299  18.809  0.00  0.00    +0.000 N 
ATOM      4  C   UNL     1       2.542   6.915  20.217  0.00  0.00    +0.000 C 
ATOM      5  C   UNL     1       1.567   5.754  20.343  0.00  0.00    +0.000 C 
ATOM      6  N   UNL     1       1.807   4.754  19.322  0.00  0.00    +0.000 N 
ATOM      7  C   UNL     1       1.328   3.473  19.336  0.00  0.00    +0.000 A 
ATOM      8  C   UNL     1       1.732   2.864  18.169  0.00  0.00    +0.000 A 
ATOM      9  C   UNL     1       2.475   3.813  17.427  0.00  0.00    +0.000 A 
ATOM     10  C   UNL     1       2.538   4.974  18.175  0.00  0.00    +0.000 A 
ATOM     11  C   UNL     1       3.289   6.266  17.925  0.00  0.00    +0.000 C 
ENDROOT
BRANCH  11  12
ATOM     12  C   UNL     1       4.789   6.105  18.122  0.00  0.00    +0.000 A 
ATOM     13  C   UNL     1       5.352   5.334  19.151  0.00  0.00    +0.000 A 
ATOM     14  C   UNL     1       6.732   5.235  19.286  0.00  0.00    +0.000 A 
ATOM     15  C   UNL     1       7.523   5.910  18.375  0.00  0.00    +0.000 A 
ATOM     16  N   UNL     1       7.031   6.652  17.361  0.00  0.00    +0.000 NA
ATOM     17  C   UNL     1       5.680   6.733  17.256  0.00  0.00    +0.000 A 
ENDBRANCH  11  12
BRANCH   1  18
ATOM     18  C   UNL     1       1.240   9.247  19.162  0.00  0.00    +0.000 C 
BRANCH  18  22
ATOM     19  N   UNL     1      -0.422  12.026  20.965  0.00  0.00    +0.000 NA
ATOM     20  C   UNL     1       1.033  11.910  20.792  0.00  0.00    +0.000 C 
ATOM     21  C   UNL     1       1.420  11.801  19.318  0.00  0.00    +0.000 C 
ATOM     22  C   UNL     1       0.752  10.604  18.634  0.00  0.00    +0.000 C 
ATOM     23  C   UNL     1      -0.769  10.730  18.851  0.00  0.00    +0.000 C 
ATOM     24  C   UNL     1      -1.143  10.908  20.330  0.00  0.00    +0.000 C 
BRANCH  19  26
ATOM     25  C   UNL     1      -1.038  10.792  23.059  0.00  0.00    +0.000 C 
ATOM     26  C   UNL     1      -0.799  12.140  22.384  0.00  0.00    +0.000 C 
ENDBRANCH  19  26
ENDBRANCH  18  22
ENDBRANCH   1  18
TORSDOF 4
ENDMDL
MODEL 3
REMARK VINA RESULT:      -7.6      0.831      1.514
REMARK  Name = 
REMARK  5 active torsions:
REMARK  status: ('A' for Active; 'I' for Inactive)
REMARK    1  A    between atoms: C_1  and  C_2
REMARK    2  A    between atoms: C_2  and  N_3
REMARK    3  A    between atoms: C_6  and  C_7
REMARK    4  A    between atoms: C_7  and  C_8
REMARK    5  A    between atoms: C_18  and  C_19
REMARK                            x       y       z     vdW  Elec       q    Type
REMARK                         _______ _______ _______ _____ _____    ______ ____
ROOT
ATOM      1  C   UNL     1       2.168   8.123  18.219  0.00  0.00    +0.000 C 
ATOM      2  O   UNL     1       2.363   8.507  17.073  0.00  0.00    +0.000 OA
ATOM      3  N   UNL     1       2.835   7.028  18.769  0.00  0.00    +0.000 N 
ATOM      4  C   UNL     1       2.568   6.494  20.113  0.00  0.00    +0.000 C 
ATOM      5  C   UNL     1       1.700   5.247  20.033  0.00  0.00    +0.000 C 
ATOM      6  N   UNL     1       2.130   4.377  18.956  0.00  0.00    +0.000 N 
ATOM      7  C   UNL     1       1.776   3.065  18.806  0.00  0.00    +0.000 A 
ATOM      8  C   UNL     1       2.344   2.610  17.638  0.00  0.00    +0.000 A 
ATOM      9  C   UNL     1       3.061   3.687  17.065  0.00  0.00    +0.000 A 
ATOM     10  C   UNL     1       2.942   4.770  17.915  0.00  0.00    +0.000 A 
ATOM     11  C   UNL     1       3.587   6.139  17.861  0.00  0.00    +0.000 C 
ENDROOT
BRANCH  11  12
ATOM     12  C   UNL     1       5.070   6.089  18.197  0.00  0.00    +0.000 A 
ATOM     13  C   UNL     1       6.047   6.795  17.476  0.00  0.00    +0.000 A 
ATOM     14  C   UNL     1       7.389   6.698  17.823  0.00  0.00    +0.000 A 
ATOM     15  C   UNL     1       7.725   5.898  18.899  0.00  0.00    +0.000 A 
ATOM     16  N   UNL     1       6.824   5.211  19.633  0.00  0.00    +0.000 NA
ATOM     17  C   UNL     1       5.521   5.322  19.267  0.00  0.00    +0.000 A 
ENDBRANCH  11  12
BRANCH   1  18
ATOM     18  C   UNL     1       1.157   8.799  19.141  0.00  0.00    +0.000 C 
BRANCH  18  22
ATOM     19  N   UNL     1      -0.900  11.799  19.848  0.00  0.00    +0.000 NA
ATOM     20  C   UNL     1      -0.676  10.710  20.809  0.00  0.00    +0.000 C 
ATOM     21  C   UNL     1       0.813  10.472  21.055  0.00  0.00    +0.000 C 
ATOM     22  C   UNL     1       1.566  10.142  19.762  0.00  0.00    +0.000 C 
ATOM     23  C   UNL     1       1.294  11.282  18.759  0.00  0.00    +0.000 C 
ATOM     24  C   UNL     1      -0.205  11.559  18.571  0.00  0.00    +0.000 C 
BRANCH  19  26
ATOM     25  C   UNL     1      -2.824  11.527  18.261  0.00  0.00    +0.000 C 
ATOM     26  C   UNL     1      -2.335  12.037  19.614  0.00  0.00    +0.000 C 
ENDBRANCH  19  26
ENDBRANCH  18  22
ENDBRANCH   1  18
TORSDOF 4
ENDMDL
MODEL 4
REMARK VINA RESULT:      -7.6      1.031      1.403
REMARK  Name = 
REMARK  5 active torsions:
REMARK  status: ('A' for Active; 'I' for Inactive)
REMARK    1  A    between atoms: C_1  and  C_2
REMARK    2  A    between atoms: C_2  and  N_3
REMARK    3  A    between atoms: C_6  and  C_7
REMARK    4  A    between atoms: C_7  and  C_8
REMARK    5  A    between atoms: C_18  and  C_19
REMARK                            x       y       z     vdW  Elec       q    Type
REMARK                         _______ _______ _______ _____ _____    ______ ____
ROOT
ATOM      1  C   UNL     1       2.052   8.404  18.517  0.00  0.00    +0.000 C 
ATOM      2  O   UNL     1       2.011   8.688  17.326  0.00  0.00    +0.000 OA
ATOM      3  N   UNL     1       2.653   7.239  18.992  0.00  0.00    +0.000 N 
ATOM      4  C   UNL     1       2.651   6.830  20.405  0.00  0.00    +0.000 C 
ATOM      5  C   UNL     1       1.605   5.754  20.652  0.00  0.00    +0.000 C 
ATOM      6  N   UNL     1       1.607   4.767  19.590  0.00  0.00    +0.000 N 
ATOM      7  C   UNL     1       1.023   3.532  19.653  0.00  0.00    +0.000 A 
ATOM      8  C   UNL     1       1.200   2.924  18.431  0.00  0.00    +0.000 A 
ATOM      9  C   UNL     1       1.911   3.826  17.604  0.00  0.00    +0.000 A 
ATOM     10  C   UNL     1       2.183   4.956  18.353  0.00  0.00    +0.000 A 
ATOM     11  C   UNL     1       3.003   6.185  18.018  0.00  0.00    +0.000 C 
ENDROOT
BRANCH  11  12
ATOM     12  C   UNL     1       4.495   5.890  17.993  0.00  0.00    +0.000 A 
ATOM     13  C   UNL     1       5.415   6.640  17.243  0.00  0.00    +0.000 A 
ATOM     14  C   UNL     1       6.766   6.314  17.251  0.00  0.00    +0.000 A 
ATOM     15  C   UNL     1       7.170   5.241  18.023  0.00  0.00    +0.000 A 
ATOM     16  N   UNL     1       6.328   4.498  18.772  0.00  0.00    +0.000 NA
ATOM     17  C   UNL     1       5.015   4.838  18.741  0.00  0.00    +0.000 A 
ENDBRANCH  11  12
BRANCH   1  18
ATOM     18  C   UNL     1       1.425   9.295  19.586  0.00  0.00    +0.000 C 
BRANCH  18  22
ATOM     19  N   UNL     1      -0.885  11.392  21.585  0.00  0.00    +0.000 NA
ATOM     20  C   UNL     1      -0.645  11.573  20.146  0.00  0.00    +0.000 C 
ATOM     21  C   UNL     1      -0.927  10.293  19.361  0.00  0.00    +0.000 C 
ATOM     22  C   UNL     1      -0.076   9.116  19.852  0.00  0.00    +0.000 C 
ATOM     23  C   UNL     1      -0.322   8.963  21.367  0.00  0.00    +0.000 C 
ATOM     24  C   UNL     1      -0.103  10.273  22.138  0.00  0.00    +0.000 C 
BRANCH  19  26
ATOM     25  C   UNL     1      -1.813  13.092  23.178  0.00  0.00    +0.000 C 
ATOM     26  C   UNL     1      -0.623  12.627  22.343  0.00  0.00    +0.000 C 
ENDBRANCH  19  26
ENDBRANCH  18  22
ENDBRANCH   1  18
TORSDOF 4
ENDMDL
MODEL 5
REMARK VINA RESULT:      -7.5      1.153      1.682
REMARK  Name = 
REMARK  5 active torsions:
REMARK  status: ('A' for Active; 'I' for Inactive)
REMARK    1  A    between atoms: C_1  and  C_2
REMARK    2  A    between atoms: C_2  and  N_3
REMARK    3  A    between atoms: C_6  and  C_7
REMARK    4  A    between atoms: C_7  and  C_8
REMARK    5  A    between atoms: C_18  and  C_19
REMARK                            x       y       z     vdW  Elec       q    Type
REMARK                         _______ _______ _______ _____ _____    ______ ____
ROOT
ATOM      1  C   UNL     1       2.112   8.434  18.403  0.00  0.00    +0.000 C 
ATOM      2  O   UNL     1       2.093   8.692  17.206  0.00  0.00    +0.000 OA
ATOM      3  N   UNL     1       2.694   7.273  18.913  0.00  0.00    +0.000 N 
ATOM      4  C   UNL     1       2.665   6.896  20.334  0.00  0.00    +0.000 C 
ATOM      5  C   UNL     1       1.604   5.834  20.586  0.00  0.00    +0.000 C 
ATOM      6  N   UNL     1       1.615   4.825  19.546  0.00  0.00    +0.000 N 
ATOM      7  C   UNL     1       1.017   3.597  19.626  0.00  0.00    +0.000 A 
ATOM      8  C   UNL     1       1.209   2.962  18.420  0.00  0.00    +0.000 A 
ATOM      9  C   UNL     1       1.942   3.839  17.586  0.00  0.00    +0.000 A 
ATOM     10  C   UNL     1       2.213   4.982  18.315  0.00  0.00    +0.000 A 
ATOM     11  C   UNL     1       3.050   6.196  17.968  0.00  0.00    +0.000 C 
ENDROOT
BRANCH  11  12
ATOM     12  C   UNL     1       4.539   5.887  17.974  0.00  0.00    +0.000 A 
ATOM     13  C   UNL     1       5.477   6.605  17.215  0.00  0.00    +0.000 A 
ATOM     14  C   UNL     1       6.825   6.267  17.253  0.00  0.00    +0.000 A 
ATOM     15  C   UNL     1       7.207   5.214  18.063  0.00  0.00    +0.000 A 
ATOM     16  N   UNL     1       6.347   4.501  18.822  0.00  0.00    +0.000 NA
ATOM     17  C   UNL     1       5.038   4.852  18.761  0.00  0.00    +0.000 A 
ENDBRANCH  11  12
BRANCH   1  18
ATOM     18  C   UNL     1       1.477   9.353  19.443  0.00  0.00    +0.000 C 
BRANCH  18  22
ATOM     19  N   UNL     1      -0.716  12.299  19.936  0.00  0.00    +0.000 NA
ATOM     20  C   UNL     1      -0.246  11.833  18.623  0.00  0.00    +0.000 C 
ATOM     21  C   UNL     1      -0.621  10.373  18.376  0.00  0.00    +0.000 C 
ATOM     22  C   UNL     1      -0.056   9.441  19.453  0.00  0.00    +0.000 C 
ATOM     23  C   UNL     1      -0.537   9.965  20.822  0.00  0.00    +0.000 C 
ATOM     24  C   UNL     1      -0.217  11.452  21.033  0.00  0.00    +0.000 C 
BRANCH  19  26
ATOM     25  C   UNL     1       0.683  14.248  19.203  0.00  0.00    +0.000 C 
ATOM     26  C   UNL     1      -0.364  13.709  20.175  0.00  0.00    +0.000 C 
ENDBRANCH  19  26
ENDBRANCH  18  22
ENDBRANCH   1  18
TORSDOF 4
ENDMDL
MODEL 6
REMARK VINA RESULT:      -7.4      1.319      1.813
REMARK  Name = 
REMARK  5 active torsions:
REMARK  status: ('A' for Active; 'I' for Inactive)
REMARK    1  A    between atoms: C_1  and  C_2
REMARK    2  A    between atoms: C_2  and  N_3
REMARK    3  A    between atoms: C_6  and  C_7
REMARK    4  A    between atoms: C_7  and  C_8
REMARK    5  A    between atoms: C_18  and  C_19
REMARK                            x       y       z     vdW  Elec       q    Type
REMARK                         _______ _______ _______ _____ _____    ______ ____
ROOT
ATOM      1  C   UNL     1       1.865   8.327  18.713  0.00  0.00    +0.000 C 
ATOM      2  O   UNL     1       1.674   8.676  17.555  0.00  0.00    +0.000 OA
ATOM      3  N   UNL     1       2.548   7.157  19.044  0.00  0.00    +0.000 N 
ATOM      4  C   UNL     1       2.727   6.671  20.419  0.00  0.00    +0.000 C 
ATOM      5  C   UNL     1       1.745   5.549  20.725  0.00  0.00    +0.000 C 
ATOM      6  N   UNL     1       1.643   4.623  19.614  0.00  0.00    +0.000 N 
ATOM      7  C   UNL     1       1.102   3.369  19.673  0.00  0.00    +0.000 A 
ATOM      8  C   UNL     1       1.145   2.837  18.404  0.00  0.00    +0.000 A 
ATOM      9  C   UNL     1       1.729   3.806  17.554  0.00  0.00    +0.000 A 
ATOM     10  C   UNL     1       2.061   4.900  18.331  0.00  0.00    +0.000 A 
ATOM     11  C   UNL     1       2.804   6.171  17.974  0.00  0.00    +0.000 C 
ENDROOT
BRANCH  11  12
ATOM     12  C   UNL     1       4.289   5.926  17.754  0.00  0.00    +0.000 A 
ATOM     13  C   UNL     1       5.016   4.938  18.437  0.00  0.00    +0.000 A 
ATOM     14  C   UNL     1       6.375   4.771  18.202  0.00  0.00    +0.000 A 
ATOM     15  C   UNL     1       6.980   5.597  17.273  0.00  0.00    +0.000 A 
ATOM     16  N   UNL     1       6.323   6.551  16.580  0.00  0.00    +0.000 NA
ATOM     17  C   UNL     1       4.997   6.694  16.834  0.00  0.00    +0.000 A 
ENDBRANCH  11  12
BRANCH   1  18
ATOM     18  C   UNL     1       1.350   9.137  19.900  0.00  0.00    +0.000 C 
BRANCH  18  22
ATOM     19  N   UNL     1      -0.805  11.689  21.505  0.00  0.00    +0.000 NA
ATOM     20  C   UNL     1      -0.533  11.630  20.061  0.00  0.00    +0.000 C 
ATOM     21  C   UNL     1      -0.910  10.272  19.471  0.00  0.00    +0.000 C 
ATOM     22  C   UNL     1      -0.164   9.120  20.153  0.00  0.00    +0.000 C 
ATOM     23  C   UNL     1      -0.440   9.217  21.667  0.00  0.00    +0.000 C 
ATOM     24  C   UNL     1      -0.124  10.607  22.238  0.00  0.00    +0.000 C 
BRANCH  19  26
ATOM     25  C   UNL     1      -1.319  13.396  23.268  0.00  0.00    +0.000 C 
ATOM     26  C   UNL     1      -0.452  12.999  22.076  0.00  0.00    +0.000 C 
ENDBRANCH  19  26
ENDBRANCH  18  22
ENDBRANCH   1  18
TORSDOF 4
ENDMDL
MODEL 7
REMARK VINA RESULT:      -7.3      2.158      7.895
REMARK  Name = 
REMARK  5 active torsions:
REMARK  status: ('A' for Active; 'I' for Inactive)
REMARK    1  A    between atoms: C_1  and  C_2
REMARK    2  A    between atoms: C_2  and  N_3
REMARK    3  A    between atoms: C_6  and  C_7
REMARK    4  A    between atoms: C_7  and  C_8
REMARK    5  A    between atoms: C_18  and  C_19
REMARK                            x       y       z     vdW  Elec       q    Type
REMARK                         _______ _______ _______ _____ _____    ______ ____
ROOT
ATOM      1  C   UNL     1       1.704   8.590  18.437  0.00  0.00    +0.000 C 
ATOM      2  O   UNL     1       2.050   8.768  17.276  0.00  0.00    +0.000 OA
ATOM      3  N   UNL     1       0.739   9.380  19.063  0.00  0.00    +0.000 N 
ATOM      4  C   UNL     1       0.356   9.243  20.476  0.00  0.00    +0.000 C 
ATOM      5  C   UNL     1       1.018  10.323  21.319  0.00  0.00    +0.000 C 
ATOM      6  N   UNL     1       0.969  11.611  20.654  0.00  0.00    +0.000 N 
ATOM      7  C   UNL     1       1.188  12.821  21.251  0.00  0.00    +0.000 A 
ATOM      8  C   UNL     1       1.104  13.788  20.275  0.00  0.00    +0.000 A 
ATOM      9  C   UNL     1       0.829  13.136  19.050  0.00  0.00    +0.000 A 
ATOM     10  C   UNL     1       0.717  11.783  19.311  0.00  0.00    +0.000 A 
ATOM     11  C   UNL     1       0.327  10.635  18.403  0.00  0.00    +0.000 C 
ENDROOT
BRANCH  11  12
ATOM     12  C   UNL     1      -1.156  10.651  18.062  0.00  0.00    +0.000 A 
ATOM     13  C   UNL     1      -1.725   9.843  17.064  0.00  0.00    +0.000 A 
ATOM     14  C   UNL     1      -3.085   9.912  16.790  0.00  0.00    +0.000 A 
ATOM     15  C   UNL     1      -3.854  10.789  17.532  0.00  0.00    +0.000 A 
ATOM     16  N   UNL     1      -3.358  11.577  18.510  0.00  0.00    +0.000 NA
ATOM     17  C   UNL     1      -2.025  11.490  18.752  0.00  0.00    +0.000 A 
ENDBRANCH  11  12
BRANCH   1  18
ATOM     18  C   UNL     1       2.316   7.498  19.309  0.00  0.00    +0.000 C 
BRANCH  18  22
ATOM     19  N   UNL     1       2.218   3.795  19.408  0.00  0.00    +0.000 NA
ATOM     20  C   UNL     1       1.516   4.611  18.407  0.00  0.00    +0.000 C 
ATOM     21  C   UNL     1       2.474   5.538  17.662  0.00  0.00    +0.000 C 
ATOM     22  C   UNL     1       3.226   6.476  18.613  0.00  0.00    +0.000 C 
ATOM     23  C   UNL     1       3.930   5.602  19.670  0.00  0.00    +0.000 C 
ATOM     24  C   UNL     1       2.971   4.625  20.365  0.00  0.00    +0.000 C 
BRANCH  19  26
ATOM     25  C   UNL     1       1.557   2.829  21.626  0.00  0.00    +0.000 C 
ATOM     26  C   UNL     1       1.298   2.894  20.123  0.00  0.00    +0.000 C 
ENDBRANCH  19  26
ENDBRANCH  18  22
ENDBRANCH   1  18
TORSDOF 4
ENDMDL
MODEL 8
REMARK VINA RESULT:      -7.3      1.262      1.835
REMARK  Name = 
REMARK  5 active torsions:
REMARK  status: ('A' for Active; 'I' for Inactive)
REMARK    1  A    between atoms: C_1  and  C_2
REMARK    2  A    between atoms: C_2  and  N_3
REMARK    3  A    between atoms: C_6  and  C_7
REMARK    4  A    between atoms: C_7  and  C_8
REMARK    5  A    between atoms: C_18  and  C_19
REMARK                            x       y       z     vdW  Elec       q    Type
REMARK                         _______ _______ _______ _____ _____    ______ ____
ROOT
ATOM      1  C   UNL     1       1.924   8.381  18.529  0.00  0.00    +0.000 C 
ATOM      2  O   UNL     1       1.799   8.692  17.351  0.00  0.00    +0.000 OA
ATOM      3  N   UNL     1       2.603   7.232  18.935  0.00  0.00    +0.000 N 
ATOM      4  C   UNL     1       2.704   6.788  20.333  0.00  0.00    +0.000 C 
ATOM      5  C   UNL     1       1.722   5.659  20.611  0.00  0.00    +0.000 C 
ATOM      6  N   UNL     1       1.704   4.701  19.523  0.00  0.00    +0.000 N 
ATOM      7  C   UNL     1       1.179   3.439  19.586  0.00  0.00    +0.000 A 
ATOM      8  C   UNL     1       1.309   2.872  18.338  0.00  0.00    +0.000 A 
ATOM      9  C   UNL     1       1.929   3.826  17.498  0.00  0.00    +0.000 A 
ATOM     10  C   UNL     1       2.196   4.947  18.261  0.00  0.00    +0.000 A 
ATOM     11  C   UNL     1       2.939   6.220  17.913  0.00  0.00    +0.000 C 
ENDROOT
BRANCH  11  12
ATOM     12  C   UNL     1       4.439   5.995  17.792  0.00  0.00    +0.000 A 
ATOM     13  C   UNL     1       5.142   5.059  18.568  0.00  0.00    +0.000 A 
ATOM     14  C   UNL     1       6.516   4.908  18.420  0.00  0.00    +0.000 A 
ATOM     15  C   UNL     1       7.159   5.696  17.484  0.00  0.00    +0.000 A 
ATOM     16  N   UNL     1       6.527   6.599  16.704  0.00  0.00    +0.000 NA
ATOM     17  C   UNL     1       5.186   6.728  16.874  0.00  0.00    +0.000 A 
ENDBRANCH  11  12
BRANCH   1  18
ATOM     18  C   UNL     1       1.324   9.214  19.658  0.00  0.00    +0.000 C 
BRANCH  18  22
ATOM     19  N   UNL     1       0.281  12.671  20.493  0.00  0.00    +0.000 NA
ATOM     20  C   UNL     1       0.936  12.290  19.234  0.00  0.00    +0.000 C 
ATOM     21  C   UNL     1       0.164  11.191  18.506  0.00  0.00    +0.000 C 
ATOM     22  C   UNL     1      -0.001   9.934  19.367  0.00  0.00    +0.000 C 
ATOM     23  C   UNL     1      -0.663  10.361  20.693  0.00  0.00    +0.000 C 
ATOM     24  C   UNL     1       0.082  11.512  21.383  0.00  0.00    +0.000 C 
BRANCH  19  26
ATOM     25  C   UNL     1       2.505  13.773  20.853  0.00  0.00    +0.000 C 
ATOM     26  C   UNL     1       1.017  13.736  21.194  0.00  0.00    +0.000 C 
ENDBRANCH  19  26
ENDBRANCH  18  22
ENDBRANCH   1  18
TORSDOF 4
ENDMDL
MODEL 9
REMARK VINA RESULT:      -7.3      1.193      1.836
REMARK  Name = 
REMARK  5 active torsions:
REMARK  status: ('A' for Active; 'I' for Inactive)
REMARK    1  A    between atoms: C_1  and  C_2
REMARK    2  A    between atoms: C_2  and  N_3
REMARK    3  A    between atoms: C_6  and  C_7
REMARK    4  A    between atoms: C_7  and  C_8
REMARK    5  A    between atoms: C_18  and  C_19
REMARK                            x       y       z     vdW  Elec       q    Type
REMARK                         _______ _______ _______ _____ _____    ______ ____
ROOT
ATOM      1  C   UNL     1       1.804   8.374  18.447  0.00  0.00    +0.000 C 
ATOM      2  O   UNL     1       1.814   8.704  17.267  0.00  0.00    +0.000 OA
ATOM      3  N   UNL     1       2.529   7.284  18.928  0.00  0.00    +0.000 N 
ATOM      4  C   UNL     1       2.479   6.814  20.320  0.00  0.00    +0.000 C 
ATOM      5  C   UNL     1       1.582   5.591  20.442  0.00  0.00    +0.000 C 
ATOM      6  N   UNL     1       1.808   4.664  19.350  0.00  0.00    +0.000 N 
ATOM      7  C   UNL     1       1.405   3.358  19.322  0.00  0.00    +0.000 A 
ATOM      8  C   UNL     1       1.761   2.839  18.097  0.00  0.00    +0.000 A 
ATOM      9  C   UNL     1       2.395   3.870  17.365  0.00  0.00    +0.000 A 
ATOM     10  C   UNL     1       2.444   4.990  18.173  0.00  0.00    +0.000 A 
ATOM     11  C   UNL     1       3.101   6.337  17.950  0.00  0.00    +0.000 C 
ENDROOT
BRANCH  11  12
ATOM     12  C   UNL     1       4.617   6.257  18.037  0.00  0.00    +0.000 A 
ATOM     13  C   UNL     1       5.294   5.471  18.984  0.00  0.00    +0.000 A 
ATOM     14  C   UNL     1       6.683   5.450  19.021  0.00  0.00    +0.000 A 
ATOM     15  C   UNL     1       7.369   6.215  18.097  0.00  0.00    +0.000 A 
ATOM     16  N   UNL     1       6.766   6.975  17.158  0.00  0.00    +0.000 NA
ATOM     17  C   UNL     1       5.409   6.979  17.149  0.00  0.00    +0.000 A 
ENDBRANCH  11  12
BRANCH   1  18
ATOM     18  C   UNL     1       0.976   9.117  19.492  0.00  0.00    +0.000 C 
BRANCH  18  22
ATOM     19  N   UNL     1      -1.098  12.163  19.880  0.00  0.00    +0.000 NA
ATOM     20  C   UNL     1      -0.745  11.261  20.986  0.00  0.00    +0.000 C 
ATOM     21  C   UNL     1       0.768  11.092  21.114  0.00  0.00    +0.000 C 
ATOM     22  C   UNL     1       1.401  10.554  19.827  0.00  0.00    +0.000 C 
ATOM     23  C   UNL     1       0.994  11.497  18.677  0.00  0.00    +0.000 C 
ATOM     24  C   UNL     1      -0.524  11.715  18.599  0.00  0.00    +0.000 C 
BRANCH  19  26
ATOM     25  C   UNL     1      -3.154  11.615  18.552  0.00  0.00    +0.000 C 
ATOM     26  C   UNL     1      -2.556  12.335  19.758  0.00  0.00    +0.000 C 
ENDBRANCH  19  26
ENDBRANCH  18  22
ENDBRANCH   1  18
TORSDOF 4
ENDMDL
