MODEL 1
REMARK VINA RESULT:      -8.5      0.000      0.000
REMARK  Name = 
REMARK  6 active torsions:
REMARK  status: ('A' for Active; 'I' for Inactive)
REMARK    1  A    between atoms: C_1  and  C_2
REMARK    2  A    between atoms: C_2  and  C_3
REMARK    3  A    between atoms: C_7  and  C_8
REMARK    4  A    between atoms: C_16  and  C_17
REMARK    5  A    between atoms: C_19  and  O_20
REMARK    6  A    between atoms: O_20  and  C_21
REMARK                            x       y       z     vdW  Elec       q    Type
REMARK                         _______ _______ _______ _____ _____    ______ ____
ROOT
ATOM      1  C   UNL     1       4.717   4.544  17.724  0.00  0.00    +0.000 C 
ATOM      2  O   UNL     1       4.622   3.366  18.063  0.00  0.00    +0.000 OA
ATOM      3  N   UNL     1       3.941   5.544  18.326  0.00  0.00    +0.000 N 
ATOM      4  C   UNL     1       3.903   6.927  17.854  0.00  0.00    +0.000 C 
ATOM      5  C   UNL     1       2.567   7.603  18.117  0.00  0.00    +0.000 C 
ATOM      6  N   UNL     1       2.283   7.516  19.547  0.00  0.00    +0.000 N 
ATOM      7  C   UNL     1       1.378   8.456  20.007  0.00  0.00    +0.000 A 
ATOM      8  N   UNL     1       1.023   8.459  21.297  0.00  0.00    +0.000 NA
ATOM      9  C   UNL     1       0.288   9.502  21.743  0.00  0.00    +0.000 A 
ATOM     10  C   UNL     1      -0.029   9.532  23.209  0.00  0.00    +0.000 C 
ATOM     11  C   UNL     1      -0.128  10.527  20.924  0.00  0.00    +0.000 A 
ATOM     12  C   UNL     1       0.254  10.420  19.615  0.00  0.00    +0.000 A 
ATOM     13  N   UNL     1       0.994   9.410  19.155  0.00  0.00    +0.000 NA
ATOM     14  C   UNL     1       2.164   6.147  20.056  0.00  0.00    +0.000 C 
ATOM     15  C   UNL     1       3.428   5.323  19.691  0.00  0.00    +0.000 C 
ENDROOT
BRANCH   1  20
ATOM     16  C   UNL     1       6.835   5.671  16.809  0.00  0.00    +0.000 A 
ATOM     17  N   UNL     1       7.363   5.781  15.548  0.00  0.00    +0.000 N 
ATOM     18  N   UNL     1       6.597   5.243  14.593  0.00  0.00    +0.000 NA
ATOM     19  C   UNL     1       5.541   4.788  15.268  0.00  0.00    +0.000 A 
ATOM     20  C   UNL     1       5.655   4.951  16.673  0.00  0.00    +0.000 A 
ATOM     21  H   UNL     1       8.232   6.225  15.269  0.00  0.00    +0.000 HD
BRANCH  16  23
ATOM     22  C   UNL     1       7.809   7.763  17.776  0.00  0.00    +0.000 C 
ATOM     23  C   UNL     1       7.523   6.285  17.980  0.00  0.00    +0.000 C 
ENDBRANCH  16  23
ENDBRANCH   1  20
BRANCH  12  24
ATOM     24  O   UNL     1      -0.110  11.429  18.747  0.00  0.00    +0.000 OA
ATOM     25  C   UNL     1      -1.214  12.196  19.237  0.00  0.00    +0.000 C 
ENDBRANCH  12  24
TORSDOF 3
ENDMDL
MODEL 2
REMARK VINA RESULT:      -7.8      2.140      7.914
REMARK  Name = 
REMARK  6 active torsions:
REMARK  status: ('A' for Active; 'I' for Inactive)
REMARK    1  A    between atoms: C_1  and  C_2
REMARK    2  A    between atoms: C_2  and  C_3
REMARK    3  A    between atoms: C_7  and  C_8
REMARK    4  A    between atoms: C_16  and  C_17
REMARK    5  A    between atoms: C_19  and  O_20
REMARK    6  A    between atoms: O_20  and  C_21
REMARK                            x       y       z     vdW  Elec       q    Type
REMARK                         _______ _______ _______ _____ _____    ______ ____
ROOT
ATOM      1  C   UNL     1       0.386  10.416  20.115  0.00  0.00    +0.000 C 
ATOM      2  O   UNL     1       0.185  10.489  21.326  0.00  0.00    +0.000 OA
ATOM      3  N   UNL     1       1.088   9.340  19.553  0.00  0.00    +0.000 N 
ATOM      4  C   UNL     1       1.486   9.285  18.147  0.00  0.00    +0.000 C 
ATOM      5  C   UNL     1       2.767   8.497  17.928  0.00  0.00    +0.000 C 
ATOM      6  N   UNL     1       2.583   7.159  18.487  0.00  0.00    +0.000 N 
ATOM      7  C   UNL     1       3.441   6.203  17.973  0.00  0.00    +0.000 A 
ATOM      8  N   UNL     1       3.380   4.945  18.425  0.00  0.00    +0.000 NA
ATOM      9  C   UNL     1       4.099   4.007  17.769  0.00  0.00    +0.000 A 
ATOM     10  C   UNL     1       3.954   2.590  18.238  0.00  0.00    +0.000 C 
ATOM     11  C   UNL     1       4.901   4.301  16.690  0.00  0.00    +0.000 A 
ATOM     12  C   UNL     1       4.926   5.617  16.321  0.00  0.00    +0.000 A 
ATOM     13  N   UNL     1       4.212   6.558  16.941  0.00  0.00    +0.000 NA
ATOM     14  C   UNL     1       2.324   7.139  19.929  0.00  0.00    +0.000 C 
ATOM     15  C   UNL     1       1.118   8.054  20.274  0.00  0.00    +0.000 C 
ENDROOT
BRANCH   1  20
ATOM     16  C   UNL     1      -1.215  11.400  18.364  0.00  0.00    +0.000 A 
ATOM     17  N   UNL     1      -1.274  12.618  17.736  0.00  0.00    +0.000 N 
ATOM     18  N   UNL     1      -0.267  13.439  18.052  0.00  0.00    +0.000 NA
ATOM     19  C   UNL     1       0.463  12.716  18.900  0.00  0.00    +0.000 A 
ATOM     20  C   UNL     1      -0.110  11.453  19.205  0.00  0.00    +0.000 A 
ATOM     21  H   UNL     1      -1.964  12.944  17.067  0.00  0.00    +0.000 HD
BRANCH  16  23
ATOM     22  C   UNL     1      -2.190   9.909  16.609  0.00  0.00    +0.000 C 
ATOM     23  C   UNL     1      -2.216  10.338  18.067  0.00  0.00    +0.000 C 
ENDBRANCH  16  23
ENDBRANCH   1  20
BRANCH  12  24
ATOM     24  O   UNL     1       5.691   5.973  15.230  0.00  0.00    +0.000 OA
ATOM     25  C   UNL     1       6.306   4.842  14.606  0.00  0.00    +0.000 C 
ENDBRANCH  12  24
TORSDOF 3
ENDMDL
MODEL 3
REMARK VINA RESULT:      -7.7      0.975      2.053
REMARK  Name = 
REMARK  6 active torsions:
REMARK  status: ('A' for Active; 'I' for Inactive)
REMARK    1  A    between atoms: C_1  and  C_2
REMARK    2  A    between atoms: C_2  and  C_3
REMARK    3  A    between atoms: C_7  and  C_8
REMARK    4  A    between atoms: C_16  and  C_17
REMARK    5  A    between atoms: C_19  and  O_20
REMARK    6  A    between atoms: O_20  and  C_21
REMARK                            x       y       z     vdW  Elec       q    Type
REMARK                         _______ _______ _______ _____ _____    ______ ____
ROOT
ATOM      1  C   UNL     1       4.728   4.512  17.199  0.00  0.00    +0.000 C 
ATOM      2  O   UNL     1       4.474   3.317  17.344  0.00  0.00    +0.000 OA
ATOM      3  N   UNL     1       3.998   5.502  17.869  0.00  0.00    +0.000 N 
ATOM      4  C   UNL     1       4.158   6.933  17.613  0.00  0.00    +0.000 C 
ATOM      5  C   UNL     1       2.878   7.720  17.846  0.00  0.00    +0.000 C 
ATOM      6  N   UNL     1       2.427   7.467  19.212  0.00  0.00    +0.000 N 
ATOM      7  C   UNL     1       1.578   8.434  19.721  0.00  0.00    +0.000 A 
ATOM      8  N   UNL     1       1.082   8.297  20.956  0.00  0.00    +0.000 NA
ATOM      9  C   UNL     1       0.413   9.347  21.483  0.00  0.00    +0.000 A 
ATOM     10  C   UNL     1      -0.063   9.208  22.899  0.00  0.00    +0.000 C 
ATOM     11  C   UNL     1       0.202  10.520  20.794  0.00  0.00    +0.000 A 
ATOM     12  C   UNL     1       0.716  10.554  19.528  0.00  0.00    +0.000 A 
ATOM     13  N   UNL     1       1.395   9.538  18.992  0.00  0.00    +0.000 NA
ATOM     14  C   UNL     1       2.109   6.064  19.492  0.00  0.00    +0.000 C 
ATOM     15  C   UNL     1       3.313   5.154  19.129  0.00  0.00    +0.000 C 
ENDROOT
BRANCH   1  20
ATOM     16  C   UNL     1       5.966   4.712  14.958  0.00  0.00    +0.000 A 
ATOM     17  N   UNL     1       7.129   5.338  14.588  0.00  0.00    +0.000 N 
ATOM     18  N   UNL     1       7.781   5.913  15.604  0.00  0.00    +0.000 NA
ATOM     19  C   UNL     1       7.013   5.633  16.657  0.00  0.00    +0.000 A 
ATOM     20  C   UNL     1       5.817   4.948  16.319  0.00  0.00    +0.000 A 
ATOM     21  H   UNL     1       7.542   5.395  13.663  0.00  0.00    +0.000 HD
BRANCH  16  23
ATOM     22  C   UNL     1       5.975   3.521  12.758  0.00  0.00    +0.000 C 
ATOM     23  C   UNL     1       5.156   3.955  13.962  0.00  0.00    +0.000 C 
ENDBRANCH  16  23
ENDBRANCH   1  20
BRANCH  12  24
ATOM     24  O   UNL     1       0.560  11.711  18.793  0.00  0.00    +0.000 OA
ATOM     25  C   UNL     1       1.798  12.403  18.600  0.00  0.00    +0.000 C 
ENDBRANCH  12  24
TORSDOF 3
ENDMDL
MODEL 4
REMARK VINA RESULT:      -7.6      1.185      1.941
REMARK  Name = 
REMARK  6 active torsions:
REMARK  status: ('A' for Active; 'I' for Inactive)
REMARK    1  A    between atoms: C_1  and  C_2
REMARK    2  A    between atoms: C_2  and  C_3
REMARK    3  A    between atoms: C_7  and  C_8
REMARK    4  A    between atoms: C_16  and  C_17
REMARK    5  A    between atoms: C_19  and  O_20
REMARK    6  A    between atoms: O_20  and  C_21
REMARK                            x       y       z     vdW  Elec       q    Type
REMARK                         _______ _______ _______ _____ _____    ______ ____
ROOT
ATOM      1  C   UNL     1       4.691   4.053  18.568  0.00  0.00    +0.000 C 
ATOM      2  O   UNL     1       4.406   2.896  18.874  0.00  0.00    +0.000 OA
ATOM      3  N   UNL     1       3.912   5.136  18.998  0.00  0.00    +0.000 N 
ATOM      4  C   UNL     1       4.117   6.508  18.536  0.00  0.00    +0.000 C 
ATOM      5  C   UNL     1       2.832   7.320  18.513  0.00  0.00    +0.000 C 
ATOM      6  N   UNL     1       2.245   7.286  19.850  0.00  0.00    +0.000 N 
ATOM      7  C   UNL     1       1.364   8.321  20.113  0.00  0.00    +0.000 A 
ATOM      8  N   UNL     1       0.747   8.381  21.299  0.00  0.00    +0.000 NA
ATOM      9  C   UNL     1       0.045   9.501  21.584  0.00  0.00    +0.000 A 
ATOM     10  C   UNL     1      -0.570   9.587  22.949  0.00  0.00    +0.000 C 
ATOM     11  C   UNL     1      -0.080  10.549  20.701  0.00  0.00    +0.000 A 
ATOM     12  C   UNL     1       0.557  10.382  19.502  0.00  0.00    +0.000 A 
ATOM     13  N   UNL     1       1.270   9.295  19.204  0.00  0.00    +0.000 NA
ATOM     14  C   UNL     1       1.881   5.945  20.315  0.00  0.00    +0.000 C 
ATOM     15  C   UNL     1       3.102   4.991  20.222  0.00  0.00    +0.000 C 
ENDROOT
BRANCH   1  20
ATOM     16  C   UNL     1       5.950   4.400  16.358  0.00  0.00    +0.000 A 
ATOM     17  N   UNL     1       7.249   4.728  16.067  0.00  0.00    +0.000 N 
ATOM     18  N   UNL     1       8.035   4.834  17.144  0.00  0.00    +0.000 NA
ATOM     19  C   UNL     1       7.210   4.552  18.152  0.00  0.00    +0.000 A 
ATOM     20  C   UNL     1       5.867   4.345  17.743  0.00  0.00    +0.000 A 
ATOM     21  H   UNL     1       7.669   4.876  15.154  0.00  0.00    +0.000 HD
BRANCH  16  23
ATOM     22  C   UNL     1       5.617   4.039  13.905  0.00  0.00    +0.000 C 
ATOM     23  C   UNL     1       4.960   4.167  15.269  0.00  0.00    +0.000 C 
ENDBRANCH  16  23
ENDBRANCH   1  20
BRANCH  12  24
ATOM     24  O   UNL     1       0.491  11.409  18.582  0.00  0.00    +0.000 OA
ATOM     25  C   UNL     1       1.457  12.432  18.840  0.00  0.00    +0.000 C 
ENDBRANCH  12  24
TORSDOF 3
ENDMDL
MODEL 5
REMARK VINA RESULT:      -7.3      2.522      4.123
REMARK  Name = 
REMARK  6 active torsions:
REMARK  status: ('A' for Active; 'I' for Inactive)
REMARK    1  A    between atoms: C_1  and  C_2
REMARK    2  A    between atoms: C_2  and  C_3
REMARK    3  A    between atoms: C_7  and  C_8
REMARK    4  A    between atoms: C_16  and  C_17
REMARK    5  A    between atoms: C_19  and  O_20
REMARK    6  A    between atoms: O_20  and  C_21
REMARK                            x       y       z     vdW  Elec       q    Type
REMARK                         _______ _______ _______ _____ _____    ______ ____
ROOT
ATOM      1  C   UNL     1       3.973   5.607  17.761  0.00  0.00    +0.000 C 
ATOM      2  O   UNL     1       4.683   5.781  16.772  0.00  0.00    +0.000 OA
ATOM      3  N   UNL     1       3.113   6.610  18.230  0.00  0.00    +0.000 N 
ATOM      4  C   UNL     1       2.369   6.511  19.485  0.00  0.00    +0.000 C 
ATOM      5  C   UNL     1       2.125   7.864  20.133  0.00  0.00    +0.000 C 
ATOM      6  N   UNL     1       1.437   8.718  19.168  0.00  0.00    +0.000 N 
ATOM      7  C   UNL     1       0.746   9.776  19.732  0.00  0.00    +0.000 A 
ATOM      8  N   UNL     1       0.095  10.639  18.943  0.00  0.00    +0.000 NA
ATOM      9  C   UNL     1      -0.717  11.541  19.536  0.00  0.00    +0.000 A 
ATOM     10  C   UNL     1      -1.502  12.445  18.633  0.00  0.00    +0.000 C 
ATOM     11  C   UNL     1      -0.872  11.622  20.902  0.00  0.00    +0.000 A 
ATOM     12  C   UNL     1      -0.141  10.721  21.627  0.00  0.00    +0.000 A 
ATOM     13  N   UNL     1       0.653   9.810  21.064  0.00  0.00    +0.000 NA
ATOM     14  C   UNL     1       2.198   8.975  17.941  0.00  0.00    +0.000 C 
ATOM     15  C   UNL     1       2.635   7.638  17.286  0.00  0.00    +0.000 C 
ENDROOT
BRANCH   1  20
ATOM     16  C   UNL     1       3.012   3.354  18.533  0.00  0.00    +0.000 A 
ATOM     17  N   UNL     1       3.507   2.353  19.328  0.00  0.00    +0.000 N 
ATOM     18  N   UNL     1       4.706   2.623  19.855  0.00  0.00    +0.000 NA
ATOM     19  C   UNL     1       4.977   3.842  19.389  0.00  0.00    +0.000 A 
ATOM     20  C   UNL     1       3.995   4.335  18.490  0.00  0.00    +0.000 A 
ATOM     21  H   UNL     1       3.070   1.468  19.567  0.00  0.00    +0.000 HD
BRANCH  16  23
ATOM     22  C   UNL     1       0.647   2.614  18.875  0.00  0.00    +0.000 C 
ATOM     23  C   UNL     1       1.653   3.249  17.930  0.00  0.00    +0.000 C 
ENDBRANCH  16  23
ENDBRANCH   1  20
BRANCH  12  24
ATOM     24  O   UNL     1      -0.272  10.734  23.000  0.00  0.00    +0.000 OA
ATOM     25  C   UNL     1       0.048   9.470  23.588  0.00  0.00    +0.000 C 
ENDBRANCH  12  24
TORSDOF 3
ENDMDL
MODEL 6
REMARK VINA RESULT:      -7.3      2.124      7.670
REMARK  Name = 
REMARK  6 active torsions:
REMARK  status: ('A' for Active; 'I' for Inactive)
REMARK    1  A    between atoms: C_1  and  C_2
REMARK    2  A    between atoms: C_2  and  C_3
REMARK    3  A    between atoms: C_7  and  C_8
REMARK    4  A    between atoms: C_16  and  C_17
REMARK    5  A    between atoms: C_19  and  O_20
REMARK    6  A    between atoms: O_20  and  C_21
REMARK                            x       y       z     vdW  Elec       q    Type
REMARK                         _______ _______ _______ _____ _____    ______ ____
ROOT
ATOM      1  C   UNL     1       0.211  10.422  20.085  0.00  0.00    +0.000 C 
ATOM      2  O   UNL     1       0.116  10.698  21.279  0.00  0.00    +0.000 OA
ATOM      3  N   UNL     1       0.941   9.308  19.647  0.00  0.00    +0.000 N 
ATOM      4  C   UNL     1       1.213   9.027  18.238  0.00  0.00    +0.000 C 
ATOM      5  C   UNL     1       2.526   8.290  18.027  0.00  0.00    +0.000 C 
ATOM      6  N   UNL     1       2.497   7.065  18.823  0.00  0.00    +0.000 N 
ATOM      7  C   UNL     1       3.376   6.086  18.395  0.00  0.00    +0.000 A 
ATOM      8  N   UNL     1       3.454   4.928  19.061  0.00  0.00    +0.000 NA
ATOM      9  C   UNL     1       4.181   3.933  18.505  0.00  0.00    +0.000 A 
ATOM     10  C   UNL     1       4.189   2.616  19.223  0.00  0.00    +0.000 C 
ATOM     11  C   UNL     1       4.857   4.077  17.315  0.00  0.00    +0.000 A 
ATOM     12  C   UNL     1       4.746   5.306  16.725  0.00  0.00    +0.000 A 
ATOM     13  N   UNL     1       4.021   6.298  17.244  0.00  0.00    +0.000 NA
ATOM     14  C   UNL     1       2.372   7.287  20.266  0.00  0.00    +0.000 C 
ATOM     15  C   UNL     1       1.135   8.175  20.571  0.00  0.00    +0.000 C 
ENDROOT
BRANCH   1  20
ATOM     16  C   UNL     1      -0.009  12.455  18.531  0.00  0.00    +0.000 A 
ATOM     17  N   UNL     1      -0.951  12.822  17.606  0.00  0.00    +0.000 N 
ATOM     18  N   UNL     1      -1.994  11.988  17.533  0.00  0.00    +0.000 NA
ATOM     19  C   UNL     1      -1.710  11.065  18.453  0.00  0.00    +0.000 A 
ATOM     20  C   UNL     1      -0.444  11.249  19.067  0.00  0.00    +0.000 A 
ATOM     21  H   UNL     1      -0.953  13.640  17.003  0.00  0.00    +0.000 HD
BRANCH  16  23
ATOM     22  C   UNL     1       2.458  12.729  18.221  0.00  0.00    +0.000 C 
ATOM     23  C   UNL     1       1.179  13.315  18.795  0.00  0.00    +0.000 C 
ENDBRANCH  16  23
ENDBRANCH   1  20
BRANCH  12  24
ATOM     24  O   UNL     1       5.380   5.506  15.516  0.00  0.00    +0.000 OA
ATOM     25  C   UNL     1       6.434   4.565  15.292  0.00  0.00    +0.000 C 
ENDBRANCH  12  24
TORSDOF 3
ENDMDL
MODEL 7
REMARK VINA RESULT:      -7.3      2.159      7.639
REMARK  Name = 
REMARK  6 active torsions:
REMARK  status: ('A' for Active; 'I' for Inactive)
REMARK    1  A    between atoms: C_1  and  C_2
REMARK    2  A    between atoms: C_2  and  C_3
REMARK    3  A    between atoms: C_7  and  C_8
REMARK    4  A    between atoms: C_16  and  C_17
REMARK    5  A    between atoms: C_19  and  O_20
REMARK    6  A    between atoms: O_20  and  C_21
REMARK                            x       y       z     vdW  Elec       q    Type
REMARK                         _______ _______ _______ _____ _____    ______ ____
ROOT
ATOM      1  C   UNL     1       0.751  10.512  20.523  0.00  0.00    +0.000 C 
ATOM      2  O   UNL     1       0.603  10.706  21.728  0.00  0.00    +0.000 OA
ATOM      3  N   UNL     1       1.216   9.285  20.031  0.00  0.00    +0.000 N 
ATOM      4  C   UNL     1       1.556   9.056  18.627  0.00  0.00    +0.000 C 
ATOM      5  C   UNL     1       2.654   8.020  18.448  0.00  0.00    +0.000 C 
ATOM      6  N   UNL     1       2.232   6.786  19.105  0.00  0.00    +0.000 N 
ATOM      7  C   UNL     1       2.874   5.648  18.650  0.00  0.00    +0.000 A 
ATOM      8  N   UNL     1       2.584   4.460  19.194  0.00  0.00    +0.000 NA
ATOM      9  C   UNL     1       3.090   3.357  18.599  0.00  0.00    +0.000 A 
ATOM     10  C   UNL     1       2.687   2.031  19.172  0.00  0.00    +0.000 C 
ATOM     11  C   UNL     1       3.903   3.414  17.489  0.00  0.00    +0.000 A 
ATOM     12  C   UNL     1       4.170   4.672  17.025  0.00  0.00    +0.000 A 
ATOM     13  N   UNL     1       3.669   5.775  17.584  0.00  0.00    +0.000 NA
ATOM     14  C   UNL     1       2.014   6.916  20.549  0.00  0.00    +0.000 C 
ATOM     15  C   UNL     1       1.018   8.070  20.844  0.00  0.00    +0.000 C 
ENDROOT
BRANCH   1  20
ATOM     16  C   UNL     1      -0.672  11.660  18.719  0.00  0.00    +0.000 A 
ATOM     17  N   UNL     1      -0.516  12.822  18.009  0.00  0.00    +0.000 N 
ATOM     18  N   UNL     1       0.632  13.460  18.260  0.00  0.00    +0.000 NA
ATOM     19  C   UNL     1       1.231  12.671  19.152  0.00  0.00    +0.000 A 
ATOM     20  C   UNL     1       0.439  11.561  19.547  0.00  0.00    +0.000 A 
ATOM     21  H   UNL     1      -1.147  13.227  17.323  0.00  0.00    +0.000 HD
BRANCH  16  23
ATOM     22  C   UNL     1      -1.748   9.962  17.230  0.00  0.00    +0.000 C 
ATOM     23  C   UNL     1      -1.859  10.785  18.502  0.00  0.00    +0.000 C 
ENDBRANCH  16  23
ENDBRANCH   1  20
BRANCH  12  24
ATOM     24  O   UNL     1       4.959   4.796  15.900  0.00  0.00    +0.000 OA
ATOM     25  C   UNL     1       5.273   6.160  15.603  0.00  0.00    +0.000 C 
ENDBRANCH  12  24
TORSDOF 3
ENDMDL
MODEL 8
REMARK VINA RESULT:      -7.1      2.340      3.353
REMARK  Name = 
REMARK  6 active torsions:
REMARK  status: ('A' for Active; 'I' for Inactive)
REMARK    1  A    between atoms: C_1  and  C_2
REMARK    2  A    between atoms: C_2  and  C_3
REMARK    3  A    between atoms: C_7  and  C_8
REMARK    4  A    between atoms: C_16  and  C_17
REMARK    5  A    between atoms: C_19  and  O_20
REMARK    6  A    between atoms: O_20  and  C_21
REMARK                            x       y       z     vdW  Elec       q    Type
REMARK                         _______ _______ _______ _____ _____    ______ ____
ROOT
ATOM      1  C   UNL     1       4.072   6.296  17.491  0.00  0.00    +0.000 C 
ATOM      2  O   UNL     1       4.687   6.599  16.470  0.00  0.00    +0.000 OA
ATOM      3  N   UNL     1       3.135   7.166  18.066  0.00  0.00    +0.000 N 
ATOM      4  C   UNL     1       2.495   6.920  19.358  0.00  0.00    +0.000 C 
ATOM      5  C   UNL     1       2.140   8.203  20.093  0.00  0.00    +0.000 C 
ATOM      6  N   UNL     1       1.293   9.011  19.220  0.00  0.00    +0.000 N 
ATOM      7  C   UNL     1       0.523   9.951  19.882  0.00  0.00    +0.000 A 
ATOM      8  N   UNL     1      -0.277  10.766  19.184  0.00  0.00    +0.000 NA
ATOM      9  C   UNL     1      -1.146  11.536  19.875  0.00  0.00    +0.000 A 
ATOM     10  C   UNL     1      -2.091  12.380  19.073  0.00  0.00    +0.000 C 
ATOM     11  C   UNL     1      -1.215  11.534  21.250  0.00  0.00    +0.000 A 
ATOM     12  C   UNL     1      -0.337  10.695  21.878  0.00  0.00    +0.000 A 
ATOM     13  N   UNL     1       0.519   9.913  21.218  0.00  0.00    +0.000 NA
ATOM     14  C   UNL     1       1.932   9.415  17.964  0.00  0.00    +0.000 C 
ATOM     15  C   UNL     1       2.477   8.171  17.211  0.00  0.00    +0.000 C 
ENDROOT
BRANCH   1  20
ATOM     16  C   UNL     1       5.351   4.624  18.962  0.00  0.00    +0.000 A 
ATOM     17  N   UNL     1       5.094   3.333  19.344  0.00  0.00    +0.000 N 
ATOM     18  N   UNL     1       3.987   2.817  18.800  0.00  0.00    +0.000 NA
ATOM     19  C   UNL     1       3.531   3.810  18.036  0.00  0.00    +0.000 A 
ATOM     20  C   UNL     1       4.292   5.003  18.147  0.00  0.00    +0.000 A 
ATOM     21  H   UNL     1       5.643   2.740  19.959  0.00  0.00    +0.000 HD
BRANCH  16  23
ATOM     22  C   UNL     1       7.645   5.392  18.329  0.00  0.00    +0.000 C 
ATOM     23  C   UNL     1       6.586   5.324  19.416  0.00  0.00    +0.000 C 
ENDBRANCH  16  23
ENDBRANCH   1  20
BRANCH  12  24
ATOM     24  O   UNL     1      -0.373  10.628  23.255  0.00  0.00    +0.000 OA
ATOM     25  C   UNL     1       0.108   9.376  23.752  0.00  0.00    +0.000 C 
ENDBRANCH  12  24
TORSDOF 3
ENDMDL
MODEL 9
REMARK VINA RESULT:      -7.0      3.291      4.887
REMARK  Name = 
REMARK  6 active torsions:
REMARK  status: ('A' for Active; 'I' for Inactive)
REMARK    1  A    between atoms: C_1  and  C_2
REMARK    2  A    between atoms: C_2  and  C_3
REMARK    3  A    between atoms: C_7  and  C_8
REMARK    4  A    between atoms: C_16  and  C_17
REMARK    5  A    between atoms: C_19  and  O_20
REMARK    6  A    between atoms: O_20  and  C_21
REMARK                            x       y       z     vdW  Elec       q    Type
REMARK                         _______ _______ _______ _____ _____    ______ ____
ROOT
ATOM      1  C   UNL     1       2.914   5.337  19.363  0.00  0.00    +0.000 C 
ATOM      2  O   UNL     1       3.802   5.164  18.530  0.00  0.00    +0.000 OA
ATOM      3  N   UNL     1       2.298   6.585  19.526  0.00  0.00    +0.000 N 
ATOM      4  C   UNL     1       1.351   6.881  20.602  0.00  0.00    +0.000 C 
ATOM      5  C   UNL     1       1.384   8.339  21.029  0.00  0.00    +0.000 C 
ATOM      6  N   UNL     1       1.135   9.168  19.853  0.00  0.00    +0.000 N 
ATOM      7  C   UNL     1       0.677  10.442  20.138  0.00  0.00    +0.000 A 
ATOM      8  N   UNL     1       0.435  11.300  19.140  0.00  0.00    +0.000 NA
ATOM      9  C   UNL     1      -0.185  12.461  19.446  0.00  0.00    +0.000 A 
ATOM     10  C   UNL     1      -0.523  13.372  18.304  0.00  0.00    +0.000 C 
ATOM     11  C   UNL     1      -0.544  12.799  20.731  0.00  0.00    +0.000 A 
ATOM     12  C   UNL     1      -0.226  11.876  21.688  0.00  0.00    +0.000 A 
ATOM     13  N   UNL     1       0.370  10.716  21.409  0.00  0.00    +0.000 NA
ATOM     14  C   UNL     1       2.135   9.024  18.791  0.00  0.00    +0.000 C 
ATOM     15  C   UNL     1       2.291   7.531  18.395  0.00  0.00    +0.000 C 
ENDROOT
BRANCH   1  20
ATOM     16  C   UNL     1       1.794   3.075  19.839  0.00  0.00    +0.000 A 
ATOM     17  N   UNL     1       1.603   2.354  20.989  0.00  0.00    +0.000 N 
ATOM     18  N   UNL     1       2.034   2.973  22.094  0.00  0.00    +0.000 NA
ATOM     19  C   UNL     1       2.503   4.131  21.632  0.00  0.00    +0.000 A 
ATOM     20  C   UNL     1       2.458   4.236  20.217  0.00  0.00    +0.000 A 
ATOM     21  H   UNL     1       1.170   1.442  21.092  0.00  0.00    +0.000 HD
BRANCH  16  23
ATOM     22  C   UNL     1       2.433   2.099  17.627  0.00  0.00    +0.000 C 
ATOM     23  C   UNL     1       1.302   2.566  18.528  0.00  0.00    +0.000 C 
ENDBRANCH  16  23
ENDBRANCH   1  20
BRANCH  12  24
ATOM     24  O   UNL     1      -0.581  12.145  22.994  0.00  0.00    +0.000 OA
ATOM     25  C   UNL     1      -1.234  13.411  23.130  0.00  0.00    +0.000 C 
ENDBRANCH  12  24
TORSDOF 3
ENDMDL
