MODEL 1
REMARK VINA RESULT:      -7.8      0.000      0.000
REMARK  Name = 
REMARK  4 active torsions:
REMARK  status: ('A' for Active; 'I' for Inactive)
REMARK    1  A    between atoms: C_1  and  C_2
REMARK    2  A    between atoms: N_4  and  C_5
REMARK    3  A    between atoms: N_9  and  C_10
REMARK    4  A    between atoms: C_21  and  C_22
REMARK                            x       y       z     vdW  Elec       q    Type
REMARK                         _______ _______ _______ _____ _____    ______ ____
ROOT
ATOM      1  C   UNL     1       2.662   6.719  19.443  0.00  0.00    +0.000 A 
ATOM      2  C   UNL     1       2.586   7.534  18.386  0.00  0.00    +0.000 A 
ATOM      3  C   UNL     1       1.826   8.799  18.449  0.00  0.00    +0.000 A 
ATOM      4  O   UNL     1       1.712   9.444  17.406  0.00  0.00    +0.000 OA
ATOM      5  N   UNL     1       1.270   9.127  19.677  0.00  0.00    +0.000 N 
ATOM      6  C   UNL     1       1.341   8.278  20.770  0.00  0.00    +0.000 A 
ATOM      7  O   UNL     1       0.895   8.507  21.894  0.00  0.00    +0.000 OA
ATOM      8  N   UNL     1       2.014   7.104  20.576  0.00  0.00    +0.000 N 
ATOM      9  H   UNL     1       2.087   6.535  21.404  0.00  0.00    +0.000 HD
ENDROOT
BRANCH   1  13
ATOM     10  C   UNL     1       4.878   5.660  16.643  0.00  0.00    +0.000 C 
ATOM     11  C   UNL     1       5.137   4.753  17.847  0.00  0.00    +0.000 C 
ATOM     12  C   UNL     1       4.817   5.414  19.203  0.00  0.00    +0.000 C 
ATOM     13  N   UNL     1       3.360   5.518  19.421  0.00  0.00    +0.000 N 
ATOM     14  C   UNL     1       2.697   4.201  19.285  0.00  0.00    +0.000 C 
ATOM     15  C   UNL     1       3.037   3.587  17.908  0.00  0.00    +0.000 C 
ATOM     16  C   UNL     1       2.472   2.179  17.777  0.00  0.00    +0.000 C 
ATOM     17  O   UNL     1       4.460   3.492  17.703  0.00  0.00    +0.000 OA
ENDBRANCH   1  13
BRANCH   5  18
ATOM     18  C   UNL     1       0.563  10.356  19.801  0.00  0.00    +0.000 A 
ATOM     19  C   UNL     1       1.219  11.515  20.242  0.00  0.00    +0.000 A 
ATOM     20  C   UNL     1       0.509  12.705  20.411  0.00  0.00    +0.000 A 
ATOM     21  C   UNL     1      -0.849  12.752  20.110  0.00  0.00    +0.000 A 
ATOM     22 CL   UNL     1      -1.726  14.214  20.329  0.00  0.00    +0.000 Cl
ATOM     23  C   UNL     1      -1.506  11.615  19.634  0.00  0.00    +0.000 A 
ATOM     24  C   UNL     1      -0.805  10.417  19.492  0.00  0.00    +0.000 A 
ENDBRANCH   5  18
TORSDOF 2
ENDMDL
MODEL 2
REMARK VINA RESULT:      -7.8      0.070      1.012
REMARK  Name = 
REMARK  4 active torsions:
REMARK  status: ('A' for Active; 'I' for Inactive)
REMARK    1  A    between atoms: C_1  and  C_2
REMARK    2  A    between atoms: N_4  and  C_5
REMARK    3  A    between atoms: N_9  and  C_10
REMARK    4  A    between atoms: C_21  and  C_22
REMARK                            x       y       z     vdW  Elec       q    Type
REMARK                         _______ _______ _______ _____ _____    ______ ____
ROOT
ATOM      1  C   UNL     1       2.661   6.717  19.440  0.00  0.00    +0.000 A 
ATOM      2  C   UNL     1       2.578   7.543  18.391  0.00  0.00    +0.000 A 
ATOM      3  C   UNL     1       1.825   8.811  18.475  0.00  0.00    +0.000 A 
ATOM      4  O   UNL     1       1.703   9.467  17.440  0.00  0.00    +0.000 OA
ATOM      5  N   UNL     1       1.283   9.128  19.712  0.00  0.00    +0.000 N 
ATOM      6  C   UNL     1       1.361   8.268  20.796  0.00  0.00    +0.000 A 
ATOM      7  O   UNL     1       0.927   8.487  21.926  0.00  0.00    +0.000 OA
ATOM      8  N   UNL     1       2.027   7.093  20.583  0.00  0.00    +0.000 N 
ATOM      9  H   UNL     1       2.105   6.515  21.403  0.00  0.00    +0.000 HD
ENDROOT
BRANCH   1  13
ATOM     10  C   UNL     1       4.871   5.692  16.622  0.00  0.00    +0.000 C 
ATOM     11  C   UNL     1       5.126   4.765  17.812  0.00  0.00    +0.000 C 
ATOM     12  C   UNL     1       4.809   5.405  19.178  0.00  0.00    +0.000 C 
ATOM     13  N   UNL     1       3.353   5.512  19.398  0.00  0.00    +0.000 N 
ATOM     14  C   UNL     1       2.684   4.201  19.241  0.00  0.00    +0.000 C 
ATOM     15  C   UNL     1       3.021   3.608  17.854  0.00  0.00    +0.000 C 
ATOM     16  C   UNL     1       2.449   2.205  17.701  0.00  0.00    +0.000 C 
ATOM     17  O   UNL     1       4.443   3.510  17.647  0.00  0.00    +0.000 OA
ENDBRANCH   1  13
BRANCH   5  18
ATOM     18  C   UNL     1       0.583  10.360  19.855  0.00  0.00    +0.000 A 
ATOM     19  C   UNL     1      -0.786  10.440  19.561  0.00  0.00    +0.000 A 
ATOM     20  C   UNL     1      -1.456  11.661  19.653  0.00  0.00    +0.000 A 
ATOM     21  C   UNL     1      -0.771  12.799  20.069  0.00  0.00    +0.000 A 
ATOM     22 CL   UNL     1      -1.593  14.305  20.172  0.00  0.00    +0.000 Cl
ATOM     23  C   UNL     1       0.583  12.724  20.402  0.00  0.00    +0.000 A 
ATOM     24  C   UNL     1       1.262  11.512  20.283  0.00  0.00    +0.000 A 
ENDBRANCH   5  18
TORSDOF 2
ENDMDL
MODEL 3
REMARK VINA RESULT:      -7.7      1.226      1.696
REMARK  Name = 
REMARK  4 active torsions:
REMARK  status: ('A' for Active; 'I' for Inactive)
REMARK    1  A    between atoms: C_1  and  C_2
REMARK    2  A    between atoms: N_4  and  C_5
REMARK    3  A    between atoms: N_9  and  C_10
REMARK    4  A    between atoms: C_21  and  C_22
REMARK                            x       y       z     vdW  Elec       q    Type
REMARK                         _______ _______ _______ _____ _____    ______ ____
ROOT
ATOM      1  C   UNL     1       2.296   6.931  19.776  0.00  0.00    +0.000 A 
ATOM      2  C   UNL     1       2.375   7.655  18.654  0.00  0.00    +0.000 A 
ATOM      3  C   UNL     1       1.777   9.002  18.570  0.00  0.00    +0.000 A 
ATOM      4  O   UNL     1       1.796   9.563  17.473  0.00  0.00    +0.000 OA
ATOM      5  N   UNL     1       1.205   9.499  19.731  0.00  0.00    +0.000 N 
ATOM      6  C   UNL     1       1.115   8.746  20.891  0.00  0.00    +0.000 A 
ATOM      7  O   UNL     1       0.644   9.124  21.964  0.00  0.00    +0.000 OA
ATOM      8  N   UNL     1       1.645   7.488  20.833  0.00  0.00    +0.000 N 
ATOM      9  H   UNL     1       1.605   6.988  21.706  0.00  0.00    +0.000 HD
ENDROOT
BRANCH   1  13
ATOM     10  C   UNL     1       1.432   4.095  17.522  0.00  0.00    +0.000 C 
ATOM     11  C   UNL     1       2.680   3.725  18.325  0.00  0.00    +0.000 C 
ATOM     12  C   UNL     1       3.506   4.941  18.786  0.00  0.00    +0.000 C 
ATOM     13  N   UNL     1       2.839   5.658  19.892  0.00  0.00    +0.000 N 
ATOM     14  C   UNL     1       2.532   4.748  21.019  0.00  0.00    +0.000 C 
ATOM     15  C   UNL     1       1.693   3.554  20.509  0.00  0.00    +0.000 C 
ATOM     16  C   UNL     1       1.458   2.534  21.614  0.00  0.00    +0.000 C 
ATOM     17  O   UNL     1       2.350   2.863  19.429  0.00  0.00    +0.000 OA
ENDBRANCH   1  13
BRANCH   5  18
ATOM     18  C   UNL     1       0.651  10.811  19.713  0.00  0.00    +0.000 A 
ATOM     19  C   UNL     1       1.447  11.926  20.011  0.00  0.00    +0.000 A 
ATOM     20  C   UNL     1       0.887  13.204  20.042  0.00  0.00    +0.000 A 
ATOM     21  C   UNL     1      -0.461  13.378  19.746  0.00  0.00    +0.000 A 
ATOM     22 CL   UNL     1      -1.155  14.950  19.795  0.00  0.00    +0.000 Cl
ATOM     23  C   UNL     1      -1.257  12.280  19.410  0.00  0.00    +0.000 A 
ATOM     24  C   UNL     1      -0.707  10.999  19.406  0.00  0.00    +0.000 A 
ENDBRANCH   5  18
TORSDOF 2
ENDMDL
MODEL 4
REMARK VINA RESULT:      -7.7      1.288      2.014
REMARK  Name = 
REMARK  4 active torsions:
REMARK  status: ('A' for Active; 'I' for Inactive)
REMARK    1  A    between atoms: C_1  and  C_2
REMARK    2  A    between atoms: N_4  and  C_5
REMARK    3  A    between atoms: N_9  and  C_10
REMARK    4  A    between atoms: C_21  and  C_22
REMARK                            x       y       z     vdW  Elec       q    Type
REMARK                         _______ _______ _______ _____ _____    ______ ____
ROOT
ATOM      1  C   UNL     1       2.300   6.944  19.769  0.00  0.00    +0.000 A 
ATOM      2  C   UNL     1       2.409   7.651  18.639  0.00  0.00    +0.000 A 
ATOM      3  C   UNL     1       1.835   9.007  18.528  0.00  0.00    +0.000 A 
ATOM      4  O   UNL     1       1.881   9.553  17.424  0.00  0.00    +0.000 OA
ATOM      5  N   UNL     1       1.252   9.529  19.673  0.00  0.00    +0.000 N 
ATOM      6  C   UNL     1       1.131   8.793  20.841  0.00  0.00    +0.000 A 
ATOM      7  O   UNL     1       0.650   9.193  21.901  0.00  0.00    +0.000 OA
ATOM      8  N   UNL     1       1.641   7.526  20.808  0.00  0.00    +0.000 N 
ATOM      9  H   UNL     1       1.578   7.039  21.687  0.00  0.00    +0.000 HD
ENDROOT
BRANCH   1  13
ATOM     10  C   UNL     1       1.451   4.100  17.519  0.00  0.00    +0.000 C 
ATOM     11  C   UNL     1       2.671   3.718  18.358  0.00  0.00    +0.000 C 
ATOM     12  C   UNL     1       3.504   4.926  18.830  0.00  0.00    +0.000 C 
ATOM     13  N   UNL     1       2.820   5.663  19.911  0.00  0.00    +0.000 N 
ATOM     14  C   UNL     1       2.469   4.769  21.038  0.00  0.00    +0.000 C 
ATOM     15  C   UNL     1       1.625   3.583  20.517  0.00  0.00    +0.000 C 
ATOM     16  C   UNL     1       1.346   2.578  21.625  0.00  0.00    +0.000 C 
ATOM     17  O   UNL     1       2.299   2.873  19.460  0.00  0.00    +0.000 OA
ENDBRANCH   1  13
BRANCH   5  18
ATOM     18  C   UNL     1       0.720  10.849  19.628  0.00  0.00    +0.000 A 
ATOM     19  C   UNL     1      -0.605  11.071  19.226  0.00  0.00    +0.000 A 
ATOM     20  C   UNL     1      -1.105  12.371  19.133  0.00  0.00    +0.000 A 
ATOM     21  C   UNL     1      -0.296  13.451  19.472  0.00  0.00    +0.000 A 
ATOM     22 CL   UNL     1      -0.908  15.053  19.348  0.00  0.00    +0.000 Cl
ATOM     23  C   UNL     1       1.013  13.242  19.912  0.00  0.00    +0.000 A 
ATOM     24  C   UNL     1       1.525  11.946  19.976  0.00  0.00    +0.000 A 
ENDBRANCH   5  18
TORSDOF 2
ENDMDL
MODEL 5
REMARK VINA RESULT:      -7.4      1.332      2.095
REMARK  Name = 
REMARK  4 active torsions:
REMARK  status: ('A' for Active; 'I' for Inactive)
REMARK    1  A    between atoms: C_1  and  C_2
REMARK    2  A    between atoms: N_4  and  C_5
REMARK    3  A    between atoms: N_9  and  C_10
REMARK    4  A    between atoms: C_21  and  C_22
REMARK                            x       y       z     vdW  Elec       q    Type
REMARK                         _______ _______ _______ _____ _____    ______ ____
ROOT
ATOM      1  C   UNL     1       2.081   6.949  19.847  0.00  0.00    +0.000 A 
ATOM      2  C   UNL     1       1.455   7.618  20.822  0.00  0.00    +0.000 A 
ATOM      3  C   UNL     1       1.052   9.027  20.645  0.00  0.00    +0.000 A 
ATOM      4  O   UNL     1       0.578   9.608  21.622  0.00  0.00    +0.000 OA
ATOM      5  N   UNL     1       1.285   9.586  19.396  0.00  0.00    +0.000 N 
ATOM      6  C   UNL     1       1.942   8.897  18.389  0.00  0.00    +0.000 A 
ATOM      7  O   UNL     1       2.165   9.314  17.253  0.00  0.00    +0.000 OA
ATOM      8  N   UNL     1       2.327   7.620  18.689  0.00  0.00    +0.000 N 
ATOM      9  H   UNL     1       2.758   7.134  17.920  0.00  0.00    +0.000 HD
ENDROOT
BRANCH   1  13
ATOM     10  C   UNL     1       3.940   5.076  17.218  0.00  0.00    +0.000 C 
ATOM     11  C   UNL     1       4.006   4.287  18.527  0.00  0.00    +0.000 C 
ATOM     12  C   UNL     1       3.872   5.163  19.788  0.00  0.00    +0.000 C 
ATOM     13  N   UNL     1       2.483   5.626  19.978  0.00  0.00    +0.000 N 
ATOM     14  C   UNL     1       1.532   4.491  19.998  0.00  0.00    +0.000 C 
ATOM     15  C   UNL     1       1.695   3.653  18.709  0.00  0.00    +0.000 C 
ATOM     16  C   UNL     1       0.819   2.409  18.746  0.00  0.00    +0.000 C 
ATOM     17  O   UNL     1       3.054   3.209  18.531  0.00  0.00    +0.000 OA
ENDBRANCH   1  13
BRANCH   5  18
ATOM     18  C   UNL     1       0.877  10.930  19.162  0.00  0.00    +0.000 A 
ATOM     19  C   UNL     1       1.766  11.993  19.374  0.00  0.00    +0.000 A 
ATOM     20  C   UNL     1       1.345  13.312  19.194  0.00  0.00    +0.000 A 
ATOM     21  C   UNL     1       0.045  13.573  18.770  0.00  0.00    +0.000 A 
ATOM     22 CL   UNL     1      -0.477  15.196  18.559  0.00  0.00    +0.000 Cl
ATOM     23  C   UNL     1      -0.839  12.521  18.519  0.00  0.00    +0.000 A 
ATOM     24  C   UNL     1      -0.430  11.205  18.727  0.00  0.00    +0.000 A 
ENDBRANCH   5  18
TORSDOF 2
ENDMDL
MODEL 6
REMARK VINA RESULT:      -7.4      1.514      2.700
REMARK  Name = 
REMARK  4 active torsions:
REMARK  status: ('A' for Active; 'I' for Inactive)
REMARK    1  A    between atoms: C_1  and  C_2
REMARK    2  A    between atoms: N_4  and  C_5
REMARK    3  A    between atoms: N_9  and  C_10
REMARK    4  A    between atoms: C_21  and  C_22
REMARK                            x       y       z     vdW  Elec       q    Type
REMARK                         _______ _______ _______ _____ _____    ______ ____
ROOT
ATOM      1  C   UNL     1       2.280   7.008  19.797  0.00  0.00    +0.000 A 
ATOM      2  C   UNL     1       1.623   7.601  20.800  0.00  0.00    +0.000 A 
ATOM      3  C   UNL     1       1.132   8.988  20.677  0.00  0.00    +0.000 A 
ATOM      4  O   UNL     1       0.632   9.503  21.678  0.00  0.00    +0.000 OA
ATOM      5  N   UNL     1       1.318   9.604  19.448  0.00  0.00    +0.000 N 
ATOM      6  C   UNL     1       2.007   8.993  18.412  0.00  0.00    +0.000 A 
ATOM      7  O   UNL     1       2.193   9.464  17.290  0.00  0.00    +0.000 OA
ATOM      8  N   UNL     1       2.473   7.733  18.662  0.00  0.00    +0.000 N 
ATOM      9  H   UNL     1       2.926   7.303  17.873  0.00  0.00    +0.000 HD
ENDROOT
BRANCH   1  13
ATOM     10  C   UNL     1       1.275   4.273  17.477  0.00  0.00    +0.000 C 
ATOM     11  C   UNL     1       2.508   3.825  18.263  0.00  0.00    +0.000 C 
ATOM     12  C   UNL     1       3.392   4.990  18.750  0.00  0.00    +0.000 C 
ATOM     13  N   UNL     1       2.764   5.708  19.878  0.00  0.00    +0.000 N 
ATOM     14  C   UNL     1       2.421   4.785  20.983  0.00  0.00    +0.000 C 
ATOM     15  C   UNL     1       1.525   3.644  20.448  0.00  0.00    +0.000 C 
ATOM     16  C   UNL     1       1.248   2.608  21.529  0.00  0.00    +0.000 C 
ATOM     17  O   UNL     1       2.144   2.952  19.347  0.00  0.00    +0.000 OA
ENDBRANCH   1  13
BRANCH   5  18
ATOM     18  C   UNL     1       0.825  10.928  19.266  0.00  0.00    +0.000 A 
ATOM     19  C   UNL     1      -0.455  11.146  18.736  0.00  0.00    +0.000 A 
ATOM     20  C   UNL     1      -0.913  12.445  18.511  0.00  0.00    +0.000 A 
ATOM     21  C   UNL     1      -0.108  13.531  18.842  0.00  0.00    +0.000 A 
ATOM     22 CL   UNL     1      -0.667  15.131  18.555  0.00  0.00    +0.000 Cl
ATOM     23  C   UNL     1       1.153  13.329  19.406  0.00  0.00    +0.000 A 
ATOM     24  C   UNL     1       1.625  12.031  19.605  0.00  0.00    +0.000 A 
ENDBRANCH   5  18
TORSDOF 2
ENDMDL
MODEL 7
REMARK VINA RESULT:      -7.3      1.334      2.334
REMARK  Name = 
REMARK  4 active torsions:
REMARK  status: ('A' for Active; 'I' for Inactive)
REMARK    1  A    between atoms: C_1  and  C_2
REMARK    2  A    between atoms: N_4  and  C_5
REMARK    3  A    between atoms: N_9  and  C_10
REMARK    4  A    between atoms: C_21  and  C_22
REMARK                            x       y       z     vdW  Elec       q    Type
REMARK                         _______ _______ _______ _____ _____    ______ ____
ROOT
ATOM      1  C   UNL     1       2.053   7.003  19.901  0.00  0.00    +0.000 A 
ATOM      2  C   UNL     1       1.454   7.662  20.899  0.00  0.00    +0.000 A 
ATOM      3  C   UNL     1       1.046   9.072  20.746  0.00  0.00    +0.000 A 
ATOM      4  O   UNL     1       0.599   9.644  21.742  0.00  0.00    +0.000 OA
ATOM      5  N   UNL     1       1.245   9.643  19.498  0.00  0.00    +0.000 N 
ATOM      6  C   UNL     1       1.874   8.964  18.467  0.00  0.00    +0.000 A 
ATOM      7  O   UNL     1       2.065   9.392  17.329  0.00  0.00    +0.000 OA
ATOM      8  N   UNL     1       2.267   7.685  18.743  0.00  0.00    +0.000 N 
ATOM      9  H   UNL     1       2.677   7.206  17.957  0.00  0.00    +0.000 HD
ENDROOT
BRANCH   1  13
ATOM     10  C   UNL     1       3.883   5.171  17.223  0.00  0.00    +0.000 C 
ATOM     11  C   UNL     1       3.966   4.364  18.519  0.00  0.00    +0.000 C 
ATOM     12  C   UNL     1       3.846   5.220  19.794  0.00  0.00    +0.000 C 
ATOM     13  N   UNL     1       2.459   5.678  20.008  0.00  0.00    +0.000 N 
ATOM     14  C   UNL     1       1.510   4.541  20.023  0.00  0.00    +0.000 C 
ATOM     15  C   UNL     1       1.659   3.723  18.720  0.00  0.00    +0.000 C 
ATOM     16  C   UNL     1       0.785   2.477  18.750  0.00  0.00    +0.000 C 
ATOM     17  O   UNL     1       3.016   3.283  18.519  0.00  0.00    +0.000 OA
ENDBRANCH   1  13
BRANCH   5  18
ATOM     18  C   UNL     1       0.830  10.989  19.288  0.00  0.00    +0.000 A 
ATOM     19  C   UNL     1      -0.457  11.273  18.810  0.00  0.00    +0.000 A 
ATOM     20  C   UNL     1      -0.841  12.591  18.557  0.00  0.00    +0.000 A 
ATOM     21  C   UNL     1       0.047  13.632  18.810  0.00  0.00    +0.000 A 
ATOM     22 CL   UNL     1      -0.421  15.255  18.488  0.00  0.00    +0.000 Cl
ATOM     23  C   UNL     1       1.318  13.367  19.323  0.00  0.00    +0.000 A 
ATOM     24  C   UNL     1       1.714  12.049  19.549  0.00  0.00    +0.000 A 
ENDBRANCH   5  18
TORSDOF 2
ENDMDL
MODEL 8
REMARK VINA RESULT:      -7.3      1.931      2.809
REMARK  Name = 
REMARK  4 active torsions:
REMARK  status: ('A' for Active; 'I' for Inactive)
REMARK    1  A    between atoms: C_1  and  C_2
REMARK    2  A    between atoms: N_4  and  C_5
REMARK    3  A    between atoms: N_9  and  C_10
REMARK    4  A    between atoms: C_21  and  C_22
REMARK                            x       y       z     vdW  Elec       q    Type
REMARK                         _______ _______ _______ _____ _____    ______ ____
ROOT
ATOM      1  C   UNL     1       3.941   6.023  18.085  0.00  0.00    +0.000 A 
ATOM      2  C   UNL     1       3.802   7.216  17.496  0.00  0.00    +0.000 A 
ATOM      3  C   UNL     1       2.834   8.210  18.001  0.00  0.00    +0.000 A 
ATOM      4  O   UNL     1       2.686   9.241  17.344  0.00  0.00    +0.000 OA
ATOM      5  N   UNL     1       2.143   7.870  19.154  0.00  0.00    +0.000 N 
ATOM      6  C   UNL     1       2.280   6.631  19.760  0.00  0.00    +0.000 A 
ATOM      7  O   UNL     1       1.721   6.265  20.793  0.00  0.00    +0.000 OA
ATOM      8  N   UNL     1       3.157   5.767  19.167  0.00  0.00    +0.000 N 
ATOM      9  H   UNL     1       3.266   4.896  19.660  0.00  0.00    +0.000 HD
ENDROOT
BRANCH   1  13
ATOM     10  C   UNL     1       7.642   6.333  18.368  0.00  0.00    +0.000 C 
ATOM     11  C   UNL     1       7.294   4.887  18.013  0.00  0.00    +0.000 C 
ATOM     12  C   UNL     1       5.888   4.455  18.476  0.00  0.00    +0.000 C 
ATOM     13  N   UNL     1       4.835   5.059  17.635  0.00  0.00    +0.000 N 
ATOM     14  C   UNL     1       5.052   4.765  16.200  0.00  0.00    +0.000 C 
ATOM     15  C   UNL     1       6.467   5.228  15.783  0.00  0.00    +0.000 C 
ATOM     16  C   UNL     1       6.773   4.835  14.345  0.00  0.00    +0.000 C 
ATOM     17  O   UNL     1       7.487   4.636  16.610  0.00  0.00    +0.000 OA
ENDBRANCH   1  13
BRANCH   5  18
ATOM     18  C   UNL     1       1.228   8.812  19.704  0.00  0.00    +0.000 A 
ATOM     19  C   UNL     1       0.364   9.538  18.871  0.00  0.00    +0.000 A 
ATOM     20  C   UNL     1      -0.494  10.498  19.411  0.00  0.00    +0.000 A 
ATOM     21  C   UNL     1      -0.517  10.714  20.785  0.00  0.00    +0.000 A 
ATOM     22 CL   UNL     1      -1.566  11.903  21.449  0.00  0.00    +0.000 Cl
ATOM     23  C   UNL     1       0.310   9.970  21.630  0.00  0.00    +0.000 A 
ATOM     24  C   UNL     1       1.190   9.032  21.091  0.00  0.00    +0.000 A 
ENDBRANCH   5  18
TORSDOF 2
ENDMDL
MODEL 9
REMARK VINA RESULT:      -7.3      1.496      2.497
REMARK  Name = 
REMARK  4 active torsions:
REMARK  status: ('A' for Active; 'I' for Inactive)
REMARK    1  A    between atoms: C_1  and  C_2
REMARK    2  A    between atoms: N_4  and  C_5
REMARK    3  A    between atoms: N_9  and  C_10
REMARK    4  A    between atoms: C_21  and  C_22
REMARK                            x       y       z     vdW  Elec       q    Type
REMARK                         _______ _______ _______ _____ _____    ______ ____
ROOT
ATOM      1  C   UNL     1       2.259   7.018  19.800  0.00  0.00    +0.000 A 
ATOM      2  C   UNL     1       1.583   7.608  20.792  0.00  0.00    +0.000 A 
ATOM      3  C   UNL     1       1.090   8.993  20.662  0.00  0.00    +0.000 A 
ATOM      4  O   UNL     1       0.572   9.506  21.655  0.00  0.00    +0.000 OA
ATOM      5  N   UNL     1       1.297   9.612  19.438  0.00  0.00    +0.000 N 
ATOM      6  C   UNL     1       2.005   9.004  18.413  0.00  0.00    +0.000 A 
ATOM      7  O   UNL     1       2.209   9.476  17.296  0.00  0.00    +0.000 OA
ATOM      8  N   UNL     1       2.470   7.745  18.670  0.00  0.00    +0.000 N 
ATOM      9  H   UNL     1       2.938   7.316  17.888  0.00  0.00    +0.000 HD
ENDROOT
BRANCH   1  13
ATOM     10  C   UNL     1       1.258   4.269  17.494  0.00  0.00    +0.000 C 
ATOM     11  C   UNL     1       2.491   3.827  18.282  0.00  0.00    +0.000 C 
ATOM     12  C   UNL     1       3.374   4.996  18.764  0.00  0.00    +0.000 C 
ATOM     13  N   UNL     1       2.745   5.719  19.887  0.00  0.00    +0.000 N 
ATOM     14  C   UNL     1       2.402   4.801  20.997  0.00  0.00    +0.000 C 
ATOM     15  C   UNL     1       1.508   3.656  20.468  0.00  0.00    +0.000 C 
ATOM     16  C   UNL     1       1.233   2.625  21.554  0.00  0.00    +0.000 C 
ATOM     17  O   UNL     1       2.128   2.959  19.370  0.00  0.00    +0.000 OA
ENDBRANCH   1  13
BRANCH   5  18
ATOM     18  C   UNL     1       0.803  10.934  19.249  0.00  0.00    +0.000 A 
ATOM     19  C   UNL     1       1.614  12.045  19.528  0.00  0.00    +0.000 A 
ATOM     20  C   UNL     1       1.108  13.338  19.390  0.00  0.00    +0.000 A 
ATOM     21  C   UNL     1      -0.196  13.530  18.944  0.00  0.00    +0.000 A 
ATOM     22 CL   UNL     1      -0.823  15.122  18.786  0.00  0.00    +0.000 Cl
ATOM     23  C   UNL     1      -1.001  12.433  18.626  0.00  0.00    +0.000 A 
ATOM     24  C   UNL     1      -0.508  11.139  18.791  0.00  0.00    +0.000 A 
ENDBRANCH   5  18
TORSDOF 2
ENDMDL
