MODEL 1
REMARK VINA RESULT:      -9.5      0.000      0.000
REMARK  Name = 
REMARK  8 active torsions:
REMARK  status: ('A' for Active; 'I' for Inactive)
REMARK    1  A    between atoms: C_1  and  C_2
REMARK    2  A    between atoms: C_2  and  C_3
REMARK    3  A    between atoms: C_5  and  S_6
REMARK    4  A    between atoms: S_6  and  N_9
REMARK    5  A    between atoms: C_11  and  C_12
REMARK    6  A    between atoms: C_23  and  N_24
REMARK    7  A    between atoms: C_25  and  C_27
REMARK    8  A    between atoms: C_30  and  N_31
REMARK                            x       y       z     vdW  Elec       q    Type
REMARK                         _______ _______ _______ _____ _____    ______ ____
ROOT
ATOM      1  C   UNL     1       2.278   7.426  18.981  0.00  0.00    +0.000 A 
ATOM      2  C   UNL     1       2.721   6.181  18.467  0.00  0.00    +0.000 A 
ATOM      3  C   UNL     1       2.681   5.022  19.248  0.00  0.00    +0.000 A 
ATOM      4  C   UNL     1       2.228   5.084  20.558  0.00  0.00    +0.000 A 
ATOM      5  C   UNL     1       1.780   6.303  21.069  0.00  0.00    +0.000 A 
ATOM      6  C   UNL     1       1.792   7.487  20.308  0.00  0.00    +0.000 A 
ENDROOT
BRANCH   6   7
ATOM      7  N   UNL     1       1.310   8.714  20.858  0.00  0.00    +0.000 N 
ATOM      8  C   UNL     1       0.044   8.908  21.403  0.00  0.00    +0.000 C 
ATOM      9  O   UNL     1      -0.789   8.027  21.604  0.00  0.00    +0.000 OA
ATOM     10  H   UNL     1       1.950   9.494  20.847  0.00  0.00    +0.000 HD
BRANCH   8  11
ATOM     11  C   UNL     1      -0.362  10.293  21.787  0.00  0.00    +0.000 A 
ATOM     12  C   UNL     1      -0.090  11.312  20.856  0.00  0.00    +0.000 A 
ATOM     13  C   UNL     1      -0.471  12.632  21.103  0.00  0.00    +0.000 A 
ATOM     14  C   UNL     1      -1.179  12.958  22.256  0.00  0.00    +0.000 A 
ATOM     15  C   UNL     1      -1.401  11.956  23.209  0.00  0.00    +0.000 A 
ATOM     16  C   UNL     1      -1.017  10.625  22.974  0.00  0.00    +0.000 A 
BRANCH  14  17
ATOM     17  N   UNL     1      -1.458  14.297  22.549  0.00  0.00    +0.000 N 
ATOM     18  H   UNL     1      -2.449  14.523  22.527  0.00  0.00    +0.000 HD
ATOM     19  H   UNL     1      -1.012  14.638  23.396  0.00  0.00    +0.000 HD
ENDBRANCH  14  17
ENDBRANCH   8  11
ENDBRANCH   6   7
BRANCH   3  20
ATOM     20  S   UNL     1       3.263   3.476  18.580  0.00  0.00    +0.000 S 
ATOM     21  O   UNL     1       3.754   2.704  19.701  0.00  0.00    +0.000 OA
ATOM     22  O   UNL     1       2.221   2.955  17.722  0.00  0.00    +0.000 OA
BRANCH  20  23
ATOM     23  N   UNL     1       4.509   3.949  17.595  0.00  0.00    +0.000 N 
ATOM     24  C   UNL     1       4.292   4.102  16.144  0.00  0.00    +0.000 C 
ATOM     25  C   UNL     1       5.534   4.940  15.761  0.00  0.00    +0.000 C 
ATOM     26  N   UNL     1       6.462   4.708  16.849  0.00  0.00    +0.000 N 
ATOM     27  C   UNL     1       5.797   4.318  17.982  0.00  0.00    +0.000 C 
ATOM     28  O   UNL     1       6.258   4.356  19.108  0.00  0.00    +0.000 OA
ATOM     29  H   UNL     1       7.358   5.166  16.938  0.00  0.00    +0.000 HD
BRANCH  25  30
ATOM     30  C   UNL     1       6.131   4.649  14.411  0.00  0.00    +0.000 A 
ATOM     31  C   UNL     1       5.523   3.714  13.558  0.00  0.00    +0.000 A 
ATOM     32  C   UNL     1       6.086   3.409  12.317  0.00  0.00    +0.000 A 
ATOM     33  C   UNL     1       7.261   4.037  11.910  0.00  0.00    +0.000 A 
ATOM     34  C   UNL     1       7.867   4.979  12.737  0.00  0.00    +0.000 A 
ATOM     35  C   UNL     1       7.303   5.288  13.977  0.00  0.00    +0.000 A 
ENDBRANCH  25  30
ENDBRANCH  20  23
ENDBRANCH   3  20
BRANCH   1  37
ATOM     36  C   UNL     1       1.148   9.379  17.803  0.00  0.00    +0.000 C 
ATOM     37  C   UNL     1       2.444   8.629  18.076  0.00  0.00    +0.000 C 
ENDBRANCH   1  37
TORSDOF 7
ENDMDL
MODEL 2
REMARK VINA RESULT:      -9.5      0.257      1.201
REMARK  Name = 
REMARK  8 active torsions:
REMARK  status: ('A' for Active; 'I' for Inactive)
REMARK    1  A    between atoms: C_1  and  C_2
REMARK    2  A    between atoms: C_2  and  C_3
REMARK    3  A    between atoms: C_5  and  S_6
REMARK    4  A    between atoms: S_6  and  N_9
REMARK    5  A    between atoms: C_11  and  C_12
REMARK    6  A    between atoms: C_23  and  N_24
REMARK    7  A    between atoms: C_25  and  C_27
REMARK    8  A    between atoms: C_30  and  N_31
REMARK                            x       y       z     vdW  Elec       q    Type
REMARK                         _______ _______ _______ _____ _____    ______ ____
ROOT
ATOM      1  C   UNL     1       2.199   7.443  18.910  0.00  0.00    +0.000 A 
ATOM      2  C   UNL     1       2.595   6.192  18.375  0.00  0.00    +0.000 A 
ATOM      3  C   UNL     1       2.561   5.031  19.154  0.00  0.00    +0.000 A 
ATOM      4  C   UNL     1       2.160   5.097  20.480  0.00  0.00    +0.000 A 
ATOM      5  C   UNL     1       1.759   6.323  21.013  0.00  0.00    +0.000 A 
ATOM      6  C   UNL     1       1.765   7.510  20.255  0.00  0.00    +0.000 A 
ENDROOT
BRANCH   6   7
ATOM      7  N   UNL     1       1.332   8.743  20.827  0.00  0.00    +0.000 N 
ATOM      8  C   UNL     1       0.073   8.977  21.374  0.00  0.00    +0.000 C 
ATOM      9  O   UNL     1      -0.794   8.127  21.558  0.00  0.00    +0.000 OA
ATOM     10  H   UNL     1       2.002   9.498  20.831  0.00  0.00    +0.000 HD
BRANCH   8  11
ATOM     11  C   UNL     1      -0.278  10.370  21.783  0.00  0.00    +0.000 A 
ATOM     12  C   UNL     1      -1.150  10.507  22.878  0.00  0.00    +0.000 A 
ATOM     13  C   UNL     1      -1.502  11.767  23.365  0.00  0.00    +0.000 A 
ATOM     14  C   UNL     1      -0.952  12.918  22.807  0.00  0.00    +0.000 A 
ATOM     15  C   UNL     1      -0.128  12.786  21.682  0.00  0.00    +0.000 A 
ATOM     16  C   UNL     1       0.228  11.523  21.180  0.00  0.00    +0.000 A 
BRANCH  14  17
ATOM     17  N   UNL     1      -1.395  14.177  23.225  0.00  0.00    +0.000 N 
ATOM     18  H   UNL     1      -2.348  14.179  23.577  0.00  0.00    +0.000 HD
ATOM     19  H   UNL     1      -0.758  14.653  23.856  0.00  0.00    +0.000 HD
ENDBRANCH  14  17
ENDBRANCH   8  11
ENDBRANCH   6   7
BRANCH   3  20
ATOM     20  S   UNL     1       3.084   3.475  18.459  0.00  0.00    +0.000 S 
ATOM     21  O   UNL     1       3.498   2.648  19.572  0.00  0.00    +0.000 OA
ATOM     22  O   UNL     1       2.044   3.033  17.555  0.00  0.00    +0.000 OA
BRANCH  20  23
ATOM     23  N   UNL     1       4.383   3.909  17.527  0.00  0.00    +0.000 N 
ATOM     24  C   UNL     1       4.222   4.108  16.074  0.00  0.00    +0.000 C 
ATOM     25  C   UNL     1       5.516   4.892  15.753  0.00  0.00    +0.000 C 
ATOM     26  N   UNL     1       6.395   4.588  16.862  0.00  0.00    +0.000 N 
ATOM     27  C   UNL     1       5.675   4.204  17.964  0.00  0.00    +0.000 C 
ATOM     28  O   UNL     1       6.099   4.192  19.105  0.00  0.00    +0.000 OA
ATOM     29  H   UNL     1       7.308   4.998  16.992  0.00  0.00    +0.000 HD
BRANCH  25  30
ATOM     30  C   UNL     1       6.142   4.604  14.415  0.00  0.00    +0.000 A 
ATOM     31  C   UNL     1       7.315   5.273  14.027  0.00  0.00    +0.000 A 
ATOM     32  C   UNL     1       7.887   5.040  12.775  0.00  0.00    +0.000 A 
ATOM     33  C   UNL     1       7.298   4.134  11.895  0.00  0.00    +0.000 A 
ATOM     34  C   UNL     1       6.145   3.450  12.273  0.00  0.00    +0.000 A 
ATOM     35  C   UNL     1       5.574   3.679  13.526  0.00  0.00    +0.000 A 
ENDBRANCH  25  30
ENDBRANCH  20  23
ENDBRANCH   3  20
BRANCH   1  37
ATOM     36  C   UNL     1       1.058   9.401  17.751  0.00  0.00    +0.000 C 
ATOM     37  C   UNL     1       2.355   8.646  18.003  0.00  0.00    +0.000 C 
ENDBRANCH   1  37
TORSDOF 7
ENDMDL
MODEL 3
REMARK VINA RESULT:      -9.2      0.856      1.198
REMARK  Name = 
REMARK  8 active torsions:
REMARK  status: ('A' for Active; 'I' for Inactive)
REMARK    1  A    between atoms: C_1  and  C_2
REMARK    2  A    between atoms: C_2  and  C_3
REMARK    3  A    between atoms: C_5  and  S_6
REMARK    4  A    between atoms: S_6  and  N_9
REMARK    5  A    between atoms: C_11  and  C_12
REMARK    6  A    between atoms: C_23  and  N_24
REMARK    7  A    between atoms: C_25  and  C_27
REMARK    8  A    between atoms: C_30  and  N_31
REMARK                            x       y       z     vdW  Elec       q    Type
REMARK                         _______ _______ _______ _____ _____    ______ ____
ROOT
ATOM      1  C   UNL     1       2.539   7.261  18.783  0.00  0.00    +0.000 A 
ATOM      2  C   UNL     1       3.269   6.081  18.497  0.00  0.00    +0.000 A 
ATOM      3  C   UNL     1       3.229   4.981  19.358  0.00  0.00    +0.000 A 
ATOM      4  C   UNL     1       2.485   5.042  20.528  0.00  0.00    +0.000 A 
ATOM      5  C   UNL     1       1.754   6.197  20.813  0.00  0.00    +0.000 A 
ATOM      6  C   UNL     1       1.759   7.319  19.962  0.00  0.00    +0.000 A 
ENDROOT
BRANCH   6   7
ATOM      7  N   UNL     1       0.986   8.477  20.276  0.00  0.00    +0.000 N 
ATOM      8  C   UNL     1       0.949   9.106  21.518  0.00  0.00    +0.000 C 
ATOM      9  O   UNL     1       1.668   8.836  22.476  0.00  0.00    +0.000 OA
ATOM     10  H   UNL     1       0.427   8.862  19.529  0.00  0.00    +0.000 HD
BRANCH   8  11
ATOM     11  C   UNL     1      -0.036  10.209  21.728  0.00  0.00    +0.000 A 
ATOM     12  C   UNL     1      -0.402  10.955  20.593  0.00  0.00    +0.000 A 
ATOM     13  C   UNL     1      -1.350  11.976  20.678  0.00  0.00    +0.000 A 
ATOM     14  C   UNL     1      -1.994  12.243  21.883  0.00  0.00    +0.000 A 
ATOM     15  C   UNL     1      -1.590  11.539  23.025  0.00  0.00    +0.000 A 
ATOM     16  C   UNL     1      -0.633  10.514  22.952  0.00  0.00    +0.000 A 
BRANCH  14  17
ATOM     17  N   UNL     1      -2.857  13.339  21.986  0.00  0.00    +0.000 N 
ATOM     18  H   UNL     1      -3.361  13.544  21.128  0.00  0.00    +0.000 HD
ATOM     19  H   UNL     1      -3.477  13.304  22.790  0.00  0.00    +0.000 HD
ENDBRANCH  14  17
ENDBRANCH   8  11
ENDBRANCH   6   7
BRANCH   3  20
ATOM     20  S   UNL     1       4.174   3.518  18.982  0.00  0.00    +0.000 S 
ATOM     21  O   UNL     1       4.899   3.177  20.187  0.00  0.00    +0.000 OA
ATOM     22  O   UNL     1       3.274   2.567  18.366  0.00  0.00    +0.000 OA
BRANCH  20  23
ATOM     23  N   UNL     1       5.206   4.044  17.798  0.00  0.00    +0.000 N 
ATOM     24  C   UNL     1       4.787   4.022  16.383  0.00  0.00    +0.000 C 
ATOM     25  C   UNL     1       5.842   4.969  15.763  0.00  0.00    +0.000 C 
ATOM     26  N   UNL     1       6.923   4.967  16.726  0.00  0.00    +0.000 N 
ATOM     27  C   UNL     1       6.469   4.611  17.969  0.00  0.00    +0.000 C 
ATOM     28  O   UNL     1       7.059   4.820  19.013  0.00  0.00    +0.000 OA
ATOM     29  H   UNL     1       7.751   5.541  16.652  0.00  0.00    +0.000 HD
BRANCH  25  30
ATOM     30  C   UNL     1       6.297   4.622  14.372  0.00  0.00    +0.000 A 
ATOM     31  C   UNL     1       7.414   5.265  13.814  0.00  0.00    +0.000 A 
ATOM     32  C   UNL     1       7.826   4.977  12.511  0.00  0.00    +0.000 A 
ATOM     33  C   UNL     1       7.131   4.040  11.750  0.00  0.00    +0.000 A 
ATOM     34  C   UNL     1       6.032   3.381  12.295  0.00  0.00    +0.000 A 
ATOM     35  C   UNL     1       5.621   3.665  13.599  0.00  0.00    +0.000 A 
ENDBRANCH  25  30
ENDBRANCH  20  23
ENDBRANCH   3  20
BRANCH   1  37
ATOM     36  C   UNL     1       1.514   9.340  17.729  0.00  0.00    +0.000 C 
ATOM     37  C   UNL     1       2.722   8.420  17.824  0.00  0.00    +0.000 C 
ENDBRANCH   1  37
TORSDOF 7
ENDMDL
MODEL 4
REMARK VINA RESULT:      -8.7      0.935      1.559
REMARK  Name = 
REMARK  8 active torsions:
REMARK  status: ('A' for Active; 'I' for Inactive)
REMARK    1  A    between atoms: C_1  and  C_2
REMARK    2  A    between atoms: C_2  and  C_3
REMARK    3  A    between atoms: C_5  and  S_6
REMARK    4  A    between atoms: S_6  and  N_9
REMARK    5  A    between atoms: C_11  and  C_12
REMARK    6  A    between atoms: C_23  and  N_24
REMARK    7  A    between atoms: C_25  and  C_27
REMARK    8  A    between atoms: C_30  and  N_31
REMARK                            x       y       z     vdW  Elec       q    Type
REMARK                         _______ _______ _______ _____ _____    ______ ____
ROOT
ATOM      1  C   UNL     1       2.468   7.161  19.034  0.00  0.00    +0.000 A 
ATOM      2  C   UNL     1       3.202   5.990  18.721  0.00  0.00    +0.000 A 
ATOM      3  C   UNL     1       3.118   4.849  19.526  0.00  0.00    +0.000 A 
ATOM      4  C   UNL     1       2.326   4.861  20.665  0.00  0.00    +0.000 A 
ATOM      5  C   UNL     1       1.590   6.006  20.974  0.00  0.00    +0.000 A 
ATOM      6  C   UNL     1       1.639   7.168  20.180  0.00  0.00    +0.000 A 
ENDROOT
BRANCH   6   7
ATOM      7  N   UNL     1       0.860   8.315  20.517  0.00  0.00    +0.000 N 
ATOM      8  C   UNL     1       1.073   9.135  21.622  0.00  0.00    +0.000 C 
ATOM      9  O   UNL     1       2.031   9.065  22.388  0.00  0.00    +0.000 OA
ATOM     10  H   UNL     1       0.098   8.541  19.895  0.00  0.00    +0.000 HD
BRANCH   8  11
ATOM     11  C   UNL     1       0.070  10.200  21.924  0.00  0.00    +0.000 A 
ATOM     12  C   UNL     1      -0.695  10.035  23.092  0.00  0.00    +0.000 A 
ATOM     13  C   UNL     1      -1.627  10.998  23.484  0.00  0.00    +0.000 A 
ATOM     14  C   UNL     1      -1.779  12.171  22.751  0.00  0.00    +0.000 A 
ATOM     15  C   UNL     1      -1.059  12.311  21.557  0.00  0.00    +0.000 A 
ATOM     16  C   UNL     1      -0.123  11.346  21.151  0.00  0.00    +0.000 A 
BRANCH  14  17
ATOM     17  N   UNL     1      -2.792  13.077  23.085  0.00  0.00    +0.000 N 
ATOM     18  H   UNL     1      -2.840  13.288  24.078  0.00  0.00    +0.000 HD
ATOM     19  H   UNL     1      -2.797  13.921  22.519  0.00  0.00    +0.000 HD
ENDBRANCH  14  17
ENDBRANCH   8  11
ENDBRANCH   6   7
BRANCH   3  20
ATOM     20  S   UNL     1       4.070   3.399  19.119  0.00  0.00    +0.000 S 
ATOM     21  O   UNL     1       4.791   3.032  20.319  0.00  0.00    +0.000 OA
ATOM     22  O   UNL     1       3.175   2.460  18.476  0.00  0.00    +0.000 OA
BRANCH  20  23
ATOM     23  N   UNL     1       5.106   3.956  17.952  0.00  0.00    +0.000 N 
ATOM     24  C   UNL     1       4.705   3.937  16.532  0.00  0.00    +0.000 C 
ATOM     25  C   UNL     1       5.748   4.911  15.934  0.00  0.00    +0.000 C 
ATOM     26  N   UNL     1       6.817   4.923  16.910  0.00  0.00    +0.000 N 
ATOM     27  C   UNL     1       6.355   4.547  18.145  0.00  0.00    +0.000 C 
ATOM     28  O   UNL     1       6.927   4.760  19.198  0.00  0.00    +0.000 OA
ATOM     29  H   UNL     1       7.633   5.515  16.851  0.00  0.00    +0.000 HD
BRANCH  25  30
ATOM     30  C   UNL     1       6.227   4.585  14.546  0.00  0.00    +0.000 A 
ATOM     31  C   UNL     1       7.348   5.244  14.015  0.00  0.00    +0.000 A 
ATOM     32  C   UNL     1       7.783   4.975  12.715  0.00  0.00    +0.000 A 
ATOM     33  C   UNL     1       7.108   4.043  11.930  0.00  0.00    +0.000 A 
ATOM     34  C   UNL     1       6.005   3.369  12.449  0.00  0.00    +0.000 A 
ATOM     35  C   UNL     1       5.571   3.633  13.750  0.00  0.00    +0.000 A 
ENDBRANCH  25  30
ENDBRANCH  20  23
ENDBRANCH   3  20
BRANCH   1  37
ATOM     36  C   UNL     1       3.697   8.116  17.019  0.00  0.00    +0.000 C 
ATOM     37  C   UNL     1       2.699   8.363  18.141  0.00  0.00    +0.000 C 
ENDBRANCH   1  37
TORSDOF 7
ENDMDL
MODEL 5
REMARK VINA RESULT:      -8.5      4.124     11.404
REMARK  Name = 
REMARK  8 active torsions:
REMARK  status: ('A' for Active; 'I' for Inactive)
REMARK    1  A    between atoms: C_1  and  C_2
REMARK    2  A    between atoms: C_2  and  C_3
REMARK    3  A    between atoms: C_5  and  S_6
REMARK    4  A    between atoms: S_6  and  N_9
REMARK    5  A    between atoms: C_11  and  C_12
REMARK    6  A    between atoms: C_23  and  N_24
REMARK    7  A    between atoms: C_25  and  C_27
REMARK    8  A    between atoms: C_30  and  N_31
REMARK                            x       y       z     vdW  Elec       q    Type
REMARK                         _______ _______ _______ _____ _____    ______ ____
ROOT
ATOM      1  C   UNL     1       0.871   9.507  20.764  0.00  0.00    +0.000 A 
ATOM      2  C   UNL     1       0.283  10.795  20.737  0.00  0.00    +0.000 A 
ATOM      3  C   UNL     1       0.093  11.478  19.532  0.00  0.00    +0.000 A 
ATOM      4  C   UNL     1       0.508  10.905  18.338  0.00  0.00    +0.000 A 
ATOM      5  C   UNL     1       1.079   9.631  18.353  0.00  0.00    +0.000 A 
ATOM      6  C   UNL     1       1.272   8.908  19.546  0.00  0.00    +0.000 A 
ENDROOT
BRANCH   6   7
ATOM      7  N   UNL     1       1.844   7.601  19.522  0.00  0.00    +0.000 N 
ATOM      8  C   UNL     1       2.786   7.152  18.600  0.00  0.00    +0.000 C 
ATOM      9  O   UNL     1       3.351   7.848  17.761  0.00  0.00    +0.000 OA
ATOM     10  H   UNL     1       1.534   6.961  20.239  0.00  0.00    +0.000 HD
BRANCH   8  11
ATOM     11  C   UNL     1       3.162   5.706  18.613  0.00  0.00    +0.000 A 
ATOM     12  C   UNL     1       2.309   4.825  17.925  0.00  0.00    +0.000 A 
ATOM     13  C   UNL     1       2.598   3.462  17.840  0.00  0.00    +0.000 A 
ATOM     14  C   UNL     1       3.771   2.955  18.392  0.00  0.00    +0.000 A 
ATOM     15  C   UNL     1       4.593   3.820  19.125  0.00  0.00    +0.000 A 
ATOM     16  C   UNL     1       4.308   5.192  19.221  0.00  0.00    +0.000 A 
BRANCH  14  17
ATOM     17  N   UNL     1       3.998   1.574  18.402  0.00  0.00    +0.000 N 
ATOM     18  H   UNL     1       4.400   1.233  19.270  0.00  0.00    +0.000 HD
ATOM     19  H   UNL     1       3.198   1.020  18.112  0.00  0.00    +0.000 HD
ENDBRANCH  14  17
ENDBRANCH   8  11
ENDBRANCH   6   7
BRANCH   3  20
ATOM     20  S   UNL     1      -0.631  13.106  19.532  0.00  0.00    +0.000 S 
ATOM     21  O   UNL     1      -0.062  13.807  20.663  0.00  0.00    +0.000 OA
ATOM     22  O   UNL     1      -0.505  13.637  18.192  0.00  0.00    +0.000 OA
BRANCH  20  23
ATOM     23  N   UNL     1      -2.239  12.791  19.778  0.00  0.00    +0.000 N 
ATOM     24  C   UNL     1      -2.945  13.384  20.930  0.00  0.00    +0.000 C 
ATOM     25  C   UNL     1      -4.415  13.179  20.493  0.00  0.00    +0.000 C 
ATOM     26  N   UNL     1      -4.343  12.123  19.506  0.00  0.00    +0.000 N 
ATOM     27  C   UNL     1      -3.090  12.056  18.953  0.00  0.00    +0.000 C 
ATOM     28  O   UNL     1      -2.819  11.499  17.905  0.00  0.00    +0.000 OA
ATOM     29  H   UNL     1      -5.133  11.790  18.971  0.00  0.00    +0.000 HD
BRANCH  25  30
ATOM     30  C   UNL     1      -5.391  12.880  21.599  0.00  0.00    +0.000 A 
ATOM     31  C   UNL     1      -6.656  12.351  21.297  0.00  0.00    +0.000 A 
ATOM     32  C   UNL     1      -7.584  12.101  22.311  0.00  0.00    +0.000 A 
ATOM     33  C   UNL     1      -7.260  12.373  23.638  0.00  0.00    +0.000 A 
ATOM     34  C   UNL     1      -6.002  12.882  23.954  0.00  0.00    +0.000 A 
ATOM     35  C   UNL     1      -5.072  13.129  22.943  0.00  0.00    +0.000 A 
ENDBRANCH  25  30
ENDBRANCH  20  23
ENDBRANCH   3  20
BRANCH   1  37
ATOM     36  C   UNL     1       0.129   9.378  23.195  0.00  0.00    +0.000 C 
ATOM     37  C   UNL     1       1.104   8.896  22.131  0.00  0.00    +0.000 C 
ENDBRANCH   1  37
TORSDOF 7
ENDMDL
MODEL 6
REMARK VINA RESULT:      -8.5      1.732      2.652
REMARK  Name = 
REMARK  8 active torsions:
REMARK  status: ('A' for Active; 'I' for Inactive)
REMARK    1  A    between atoms: C_1  and  C_2
REMARK    2  A    between atoms: C_2  and  C_3
REMARK    3  A    between atoms: C_5  and  S_6
REMARK    4  A    between atoms: S_6  and  N_9
REMARK    5  A    between atoms: C_11  and  C_12
REMARK    6  A    between atoms: C_23  and  N_24
REMARK    7  A    between atoms: C_25  and  C_27
REMARK    8  A    between atoms: C_30  and  N_31
REMARK                            x       y       z     vdW  Elec       q    Type
REMARK                         _______ _______ _______ _____ _____    ______ ____
ROOT
ATOM      1  C   UNL     1       1.731   7.924  20.293  0.00  0.00    +0.000 A 
ATOM      2  C   UNL     1       2.129   6.577  20.109  0.00  0.00    +0.000 A 
ATOM      3  C   UNL     1       2.619   6.131  18.878  0.00  0.00    +0.000 A 
ATOM      4  C   UNL     1       2.697   7.006  17.804  0.00  0.00    +0.000 A 
ATOM      5  C   UNL     1       2.317   8.338  17.979  0.00  0.00    +0.000 A 
ATOM      6  C   UNL     1       1.833   8.827  19.208  0.00  0.00    +0.000 A 
ENDROOT
BRANCH   6   7
ATOM      7  N   UNL     1       1.470  10.199  19.356  0.00  0.00    +0.000 N 
ATOM      8  C   UNL     1       0.282  10.769  18.906  0.00  0.00    +0.000 C 
ATOM      9  O   UNL     1      -0.671  10.154  18.434  0.00  0.00    +0.000 OA
ATOM     10  H   UNL     1       2.135  10.792  19.830  0.00  0.00    +0.000 HD
BRANCH   8  11
ATOM     11  C   UNL     1       0.126  12.252  18.994  0.00  0.00    +0.000 A 
ATOM     12  C   UNL     1       1.236  13.028  18.616  0.00  0.00    +0.000 A 
ATOM     13  C   UNL     1       1.174  14.423  18.620  0.00  0.00    +0.000 A 
ATOM     14  C   UNL     1      -0.011  15.075  18.948  0.00  0.00    +0.000 A 
ATOM     15  C   UNL     1      -1.100  14.306  19.379  0.00  0.00    +0.000 A 
ATOM     16  C   UNL     1      -1.046  12.902  19.384  0.00  0.00    +0.000 A 
BRANCH  14  17
ATOM     17  N   UNL     1      -0.033  16.469  19.059  0.00  0.00    +0.000 N 
ATOM     18  H   UNL     1       0.839  16.915  18.789  0.00  0.00    +0.000 HD
ATOM     19  H   UNL     1      -0.835  16.908  18.616  0.00  0.00    +0.000 HD
ENDBRANCH  14  17
ENDBRANCH   8  11
ENDBRANCH   6   7
BRANCH   3  20
ATOM     20  S   UNL     1       3.092   4.426  18.670  0.00  0.00    +0.000 S 
ATOM     21  O   UNL     1       3.441   3.934  19.986  0.00  0.00    +0.000 OA
ATOM     22  O   UNL     1       2.058   3.781  17.890  0.00  0.00    +0.000 OA
BRANCH  20  23
ATOM     23  N   UNL     1       4.432   4.533  17.702  0.00  0.00    +0.000 N 
ATOM     24  C   UNL     1       4.285   4.748  16.250  0.00  0.00    +0.000 C 
ATOM     25  C   UNL     1       5.717   5.204  15.887  0.00  0.00    +0.000 C 
ATOM     26  N   UNL     1       6.529   4.715  16.982  0.00  0.00    +0.000 N 
ATOM     27  C   UNL     1       5.768   4.522  18.106  0.00  0.00    +0.000 C 
ATOM     28  O   UNL     1       6.206   4.424  19.237  0.00  0.00    +0.000 OA
ATOM     29  H   UNL     1       7.516   4.901  17.085  0.00  0.00    +0.000 HD
BRANCH  25  30
ATOM     30  C   UNL     1       6.225   4.762  14.541  0.00  0.00    +0.000 A 
ATOM     31  C   UNL     1       7.389   5.335  14.004  0.00  0.00    +0.000 A 
ATOM     32  C   UNL     1       7.852   4.958  12.741  0.00  0.00    +0.000 A 
ATOM     33  C   UNL     1       7.160   4.003  12.000  0.00  0.00    +0.000 A 
ATOM     34  C   UNL     1       6.013   3.413  12.527  0.00  0.00    +0.000 A 
ATOM     35  C   UNL     1       5.552   3.785  13.791  0.00  0.00    +0.000 A 
ENDBRANCH  25  30
ENDBRANCH  20  23
ENDBRANCH   3  20
BRANCH   1  37
ATOM     36  C   UNL     1      -0.378   8.408  21.636  0.00  0.00    +0.000 C 
ATOM     37  C   UNL     1       1.138   8.277  21.643  0.00  0.00    +0.000 C 
ENDBRANCH   1  37
TORSDOF 7
ENDMDL
MODEL 7
REMARK VINA RESULT:      -8.5      2.063      3.154
REMARK  Name = 
REMARK  8 active torsions:
REMARK  status: ('A' for Active; 'I' for Inactive)
REMARK    1  A    between atoms: C_1  and  C_2
REMARK    2  A    between atoms: C_2  and  C_3
REMARK    3  A    between atoms: C_5  and  S_6
REMARK    4  A    between atoms: S_6  and  N_9
REMARK    5  A    between atoms: C_11  and  C_12
REMARK    6  A    between atoms: C_23  and  N_24
REMARK    7  A    between atoms: C_25  and  C_27
REMARK    8  A    between atoms: C_30  and  N_31
REMARK                            x       y       z     vdW  Elec       q    Type
REMARK                         _______ _______ _______ _____ _____    ______ ____
ROOT
ATOM      1  C   UNL     1       2.481   6.365  19.607  0.00  0.00    +0.000 A 
ATOM      2  C   UNL     1       3.603   5.515  19.445  0.00  0.00    +0.000 A 
ATOM      3  C   UNL     1       4.569   5.774  18.467  0.00  0.00    +0.000 A 
ATOM      4  C   UNL     1       4.423   6.863  17.620  0.00  0.00    +0.000 A 
ATOM      5  C   UNL     1       3.326   7.712  17.780  0.00  0.00    +0.000 A 
ATOM      6  C   UNL     1       2.342   7.491  18.762  0.00  0.00    +0.000 A 
ENDROOT
BRANCH   6   7
ATOM      7  N   UNL     1       1.242   8.389  18.908  0.00  0.00    +0.000 N 
ATOM      8  C   UNL     1       1.174   9.671  18.369  0.00  0.00    +0.000 C 
ATOM      9  O   UNL     1       1.987  10.161  17.589  0.00  0.00    +0.000 OA
ATOM     10  H   UNL     1       0.456   8.055  19.446  0.00  0.00    +0.000 HD
BRANCH   8  11
ATOM     11  C   UNL     1       0.024  10.544  18.751  0.00  0.00    +0.000 A 
ATOM     12  C   UNL     1       0.262  11.501  19.753  0.00  0.00    +0.000 A 
ATOM     13  C   UNL     1      -0.736  12.394  20.148  0.00  0.00    +0.000 A 
ATOM     14  C   UNL     1      -1.976  12.390  19.516  0.00  0.00    +0.000 A 
ATOM     15  C   UNL     1      -2.233  11.402  18.557  0.00  0.00    +0.000 A 
ATOM     16  C   UNL     1      -1.238  10.495  18.157  0.00  0.00    +0.000 A 
BRANCH  14  17
ATOM     17  N   UNL     1      -3.005  13.209  19.992  0.00  0.00    +0.000 N 
ATOM     18  H   UNL     1      -2.711  14.161  20.190  0.00  0.00    +0.000 HD
ATOM     19  H   UNL     1      -3.850  13.184  19.428  0.00  0.00    +0.000 HD
ENDBRANCH  14  17
ENDBRANCH   8  11
ENDBRANCH   6   7
BRANCH   3  20
ATOM     20  S   UNL     1       5.958   4.677  18.273  0.00  0.00    +0.000 S 
ATOM     21  O   UNL     1       7.045   5.252  19.035  0.00  0.00    +0.000 OA
ATOM     22  O   UNL     1       5.491   3.334  18.547  0.00  0.00    +0.000 OA
BRANCH  20  23
ATOM     23  N   UNL     1       6.266   4.759  16.647  0.00  0.00    +0.000 N 
ATOM     24  C   UNL     1       5.516   3.908  15.704  0.00  0.00    +0.000 C 
ATOM     25  C   UNL     1       5.817   4.631  14.371  0.00  0.00    +0.000 C 
ATOM     26  N   UNL     1       7.013   5.398  14.652  0.00  0.00    +0.000 N 
ATOM     27  C   UNL     1       7.139   5.632  15.997  0.00  0.00    +0.000 C 
ATOM     28  O   UNL     1       7.846   6.489  16.492  0.00  0.00    +0.000 OA
ATOM     29  H   UNL     1       7.442   6.040  14.000  0.00  0.00    +0.000 HD
BRANCH  25  30
ATOM     30  C   UNL     1       5.961   3.746  13.163  0.00  0.00    +0.000 A 
ATOM     31  C   UNL     1       7.227   3.522  12.599  0.00  0.00    +0.000 A 
ATOM     32  C   UNL     1       7.370   2.731  11.457  0.00  0.00    +0.000 A 
ATOM     33  C   UNL     1       6.251   2.150  10.866  0.00  0.00    +0.000 A 
ATOM     34  C   UNL     1       4.990   2.348  11.424  0.00  0.00    +0.000 A 
ATOM     35  C   UNL     1       4.846   3.136  12.568  0.00  0.00    +0.000 A 
ENDBRANCH  25  30
ENDBRANCH  20  23
ENDBRANCH   3  20
BRANCH   1  37
ATOM     36  C   UNL     1       1.238   4.439  20.715  0.00  0.00    +0.000 C 
ATOM     37  C   UNL     1       1.456   5.943  20.641  0.00  0.00    +0.000 C 
ENDBRANCH   1  37
TORSDOF 7
ENDMDL
MODEL 8
REMARK VINA RESULT:      -8.4      3.957     11.089
REMARK  Name = 
REMARK  8 active torsions:
REMARK  status: ('A' for Active; 'I' for Inactive)
REMARK    1  A    between atoms: C_1  and  C_2
REMARK    2  A    between atoms: C_2  and  C_3
REMARK    3  A    between atoms: C_5  and  S_6
REMARK    4  A    between atoms: S_6  and  N_9
REMARK    5  A    between atoms: C_11  and  C_12
REMARK    6  A    between atoms: C_23  and  N_24
REMARK    7  A    between atoms: C_25  and  C_27
REMARK    8  A    between atoms: C_30  and  N_31
REMARK                            x       y       z     vdW  Elec       q    Type
REMARK                         _______ _______ _______ _____ _____    ______ ____
ROOT
ATOM      1  C   UNL     1       1.106   8.969  20.304  0.00  0.00    +0.000 A 
ATOM      2  C   UNL     1       0.722  10.333  20.298  0.00  0.00    +0.000 A 
ATOM      3  C   UNL     1       0.992  11.155  19.200  0.00  0.00    +0.000 A 
ATOM      4  C   UNL     1       1.668  10.644  18.101  0.00  0.00    +0.000 A 
ATOM      5  C   UNL     1       2.041   9.299  18.093  0.00  0.00    +0.000 A 
ATOM      6  C   UNL     1       1.774   8.438  19.174  0.00  0.00    +0.000 A 
ENDROOT
BRANCH   6   7
ATOM      7  N   UNL     1       2.154   7.063  19.125  0.00  0.00    +0.000 N 
ATOM      8  C   UNL     1       3.090   6.519  18.249  0.00  0.00    +0.000 C 
ATOM      9  O   UNL     1       3.811   7.159  17.488  0.00  0.00    +0.000 OA
ATOM     10  H   UNL     1       1.702   6.447  19.784  0.00  0.00    +0.000 HD
BRANCH   8  11
ATOM     11  C   UNL     1       3.255   5.035  18.215  0.00  0.00    +0.000 A 
ATOM     12  C   UNL     1       4.281   4.494  19.010  0.00  0.00    +0.000 A 
ATOM     13  C   UNL     1       4.486   3.115  19.081  0.00  0.00    +0.000 A 
ATOM     14  C   UNL     1       3.639   2.241  18.405  0.00  0.00    +0.000 A 
ATOM     15  C   UNL     1       2.653   2.780  17.569  0.00  0.00    +0.000 A 
ATOM     16  C   UNL     1       2.442   4.166  17.486  0.00  0.00    +0.000 A 
BRANCH  14  17
ATOM     17  N   UNL     1       3.919   0.870  18.389  0.00  0.00    +0.000 N 
ATOM     18  H   UNL     1       4.714   0.609  18.965  0.00  0.00    +0.000 HD
ATOM     19  H   UNL     1       3.112   0.281  18.570  0.00  0.00    +0.000 HD
ENDBRANCH  14  17
ENDBRANCH   8  11
ENDBRANCH   6   7
BRANCH   3  20
ATOM     20  S   UNL     1       0.515  12.871  19.231  0.00  0.00    +0.000 S 
ATOM     21  O   UNL     1       1.740  13.635  19.334  0.00  0.00    +0.000 OA
ATOM     22  O   UNL     1      -0.402  13.086  18.132  0.00  0.00    +0.000 OA
BRANCH  20  23
ATOM     23  N   UNL     1      -0.371  12.979  20.627  0.00  0.00    +0.000 N 
ATOM     24  C   UNL     1      -1.713  12.371  20.705  0.00  0.00    +0.000 C 
ATOM     25  C   UNL     1      -1.920  12.345  22.237  0.00  0.00    +0.000 C 
ATOM     26  N   UNL     1      -0.988  13.336  22.734  0.00  0.00    +0.000 N 
ATOM     27  C   UNL     1       0.032  13.537  21.841  0.00  0.00    +0.000 C 
ATOM     28  O   UNL     1       1.100  14.057  22.107  0.00  0.00    +0.000 OA
ATOM     29  H   UNL     1      -0.826  13.522  23.714  0.00  0.00    +0.000 HD
BRANCH  25  30
ATOM     30  C   UNL     1      -3.329  12.579  22.712  0.00  0.00    +0.000 A 
ATOM     31  C   UNL     1      -3.649  12.429  24.071  0.00  0.00    +0.000 A 
ATOM     32  C   UNL     1      -4.959  12.610  24.519  0.00  0.00    +0.000 A 
ATOM     33  C   UNL     1      -5.966  12.946  23.617  0.00  0.00    +0.000 A 
ATOM     34  C   UNL     1      -5.661  13.116  22.269  0.00  0.00    +0.000 A 
ATOM     35  C   UNL     1      -4.351  12.939  21.820  0.00  0.00    +0.000 A 
ENDBRANCH  25  30
ENDBRANCH  20  23
ENDBRANCH   3  20
BRANCH   1  37
ATOM     36  C   UNL     1      -0.302   8.759  22.414  0.00  0.00    +0.000 C 
ATOM     37  C   UNL     1       0.838   8.195  21.578  0.00  0.00    +0.000 C 
ENDBRANCH   1  37
TORSDOF 7
ENDMDL
MODEL 9
REMARK VINA RESULT:      -8.4      3.985     11.166
REMARK  Name = 
REMARK  8 active torsions:
REMARK  status: ('A' for Active; 'I' for Inactive)
REMARK    1  A    between atoms: C_1  and  C_2
REMARK    2  A    between atoms: C_2  and  C_3
REMARK    3  A    between atoms: C_5  and  S_6
REMARK    4  A    between atoms: S_6  and  N_9
REMARK    5  A    between atoms: C_11  and  C_12
REMARK    6  A    between atoms: C_23  and  N_24
REMARK    7  A    between atoms: C_25  and  C_27
REMARK    8  A    between atoms: C_30  and  N_31
REMARK                            x       y       z     vdW  Elec       q    Type
REMARK                         _______ _______ _______ _____ _____    ______ ____
ROOT
ATOM      1  C   UNL     1       1.128   8.973  20.424  0.00  0.00    +0.000 A 
ATOM      2  C   UNL     1       0.737  10.335  20.433  0.00  0.00    +0.000 A 
ATOM      3  C   UNL     1       0.964  11.158  19.325  0.00  0.00    +0.000 A 
ATOM      4  C   UNL     1       1.604  10.650  18.204  0.00  0.00    +0.000 A 
ATOM      5  C   UNL     1       1.982   9.306  18.182  0.00  0.00    +0.000 A 
ATOM      6  C   UNL     1       1.757   8.445  19.272  0.00  0.00    +0.000 A 
ENDROOT
BRANCH   6   7
ATOM      7  N   UNL     1       2.142   7.072  19.209  0.00  0.00    +0.000 N 
ATOM      8  C   UNL     1       3.073   6.538  18.322  0.00  0.00    +0.000 C 
ATOM      9  O   UNL     1       3.786   7.186  17.560  0.00  0.00    +0.000 OA
ATOM     10  H   UNL     1       1.698   6.449  19.868  0.00  0.00    +0.000 HD
BRANCH   8  11
ATOM     11  C   UNL     1       3.243   5.055  18.275  0.00  0.00    +0.000 A 
ATOM     12  C   UNL     1       4.242   4.506  19.099  0.00  0.00    +0.000 A 
ATOM     13  C   UNL     1       4.448   3.127  19.160  0.00  0.00    +0.000 A 
ATOM     14  C   UNL     1       3.628   2.259  18.444  0.00  0.00    +0.000 A 
ATOM     15  C   UNL     1       2.670   2.806  17.580  0.00  0.00    +0.000 A 
ATOM     16  C   UNL     1       2.459   4.193  17.507  0.00  0.00    +0.000 A 
BRANCH  14  17
ATOM     17  N   UNL     1       3.911   0.889  18.421  0.00  0.00    +0.000 N 
ATOM     18  H   UNL     1       4.882   0.669  18.624  0.00  0.00    +0.000 HD
ATOM     19  H   UNL     1       3.272   0.325  18.973  0.00  0.00    +0.000 HD
ENDBRANCH  14  17
ENDBRANCH   8  11
ENDBRANCH   6   7
BRANCH   3  20
ATOM     20  S   UNL     1       0.481  12.872  19.374  0.00  0.00    +0.000 S 
ATOM     21  O   UNL     1       1.275  13.493  20.411  0.00  0.00    +0.000 OA
ATOM     22  O   UNL     1       0.516  13.371  18.015  0.00  0.00    +0.000 OA
BRANCH  20  23
ATOM     23  N   UNL     1      -1.114  12.790  19.817  0.00  0.00    +0.000 N 
ATOM     24  C   UNL     1      -1.550  13.317  21.124  0.00  0.00    +0.000 C 
ATOM     25  C   UNL     1      -3.075  13.419  20.891  0.00  0.00    +0.000 C 
ATOM     26  N   UNL     1      -3.321  12.520  19.784  0.00  0.00    +0.000 N 
ATOM     27  C   UNL     1      -2.181  12.330  19.046  0.00  0.00    +0.000 C 
ATOM     28  O   UNL     1      -2.150  11.894  17.910  0.00  0.00    +0.000 OA
ATOM     29  H   UNL     1      -4.220  12.400  19.337  0.00  0.00    +0.000 HD
BRANCH  25  30
ATOM     30  C   UNL     1      -3.942  13.127  22.086  0.00  0.00    +0.000 A 
ATOM     31  C   UNL     1      -5.337  13.260  21.994  0.00  0.00    +0.000 A 
ATOM     32  C   UNL     1      -6.150  13.025  23.105  0.00  0.00    +0.000 A 
ATOM     33  C   UNL     1      -5.582  12.649  24.320  0.00  0.00    +0.000 A 
ATOM     34  C   UNL     1      -4.201  12.495  24.422  0.00  0.00    +0.000 A 
ATOM     35  C   UNL     1      -3.387  12.727  23.311  0.00  0.00    +0.000 A 
ENDBRANCH  25  30
ENDBRANCH  20  23
ENDBRANCH   3  20
BRANCH   1  37
ATOM     36  C   UNL     1      -0.003   8.899  22.704  0.00  0.00    +0.000 C 
ATOM     37  C   UNL     1       0.908   8.198  21.708  0.00  0.00    +0.000 C 
ENDBRANCH   1  37
TORSDOF 7
ENDMDL
