MODEL 1
REMARK VINA RESULT:      -8.8      0.000      0.000
REMARK  Name = 
REMARK  6 active torsions:
REMARK  status: ('A' for Active; 'I' for Inactive)
REMARK    1  A    between atoms: C_2  and  C_30
REMARK    2  A    between atoms: C_6  and  C_7
REMARK    3  A    between atoms: C_9  and  S_10
REMARK    4  A    between atoms: S_10  and  C_11
REMARK    5  A    between atoms: C_11  and  C_12
REMARK    6  A    between atoms: C_19  and  C_20
REMARK                            x       y       z     vdW  Elec       q    Type
REMARK                         _______ _______ _______ _____ _____    ______ ____
ROOT
ATOM      1  C   UNL     1       4.219   6.385  18.067  0.00  0.00    +0.000 A 
ATOM      2  N   UNL     1       3.856   7.636  17.603  0.00  0.00    +0.000 N 
ATOM      3  C   UNL     1       2.695   8.007  18.208  0.00  0.00    +0.000 A 
ATOM      4  N   UNL     1       2.262   7.095  19.039  0.00  0.00    +0.000 NA
ATOM      5  C   UNL     1       3.210   6.085  18.982  0.00  0.00    +0.000 A 
ATOM      6  H   UNL     1       4.340   8.186  16.911  0.00  0.00    +0.000 HD
ENDROOT
BRANCH   1  12
ATOM      7  O   UNL     1       6.011   5.784  13.438  0.00  0.00    +0.000 OA
ATOM      8  C   UNL     1       6.267   4.581  13.424  0.00  0.00    +0.000 C 
ATOM      9  N   UNL     1       6.535   3.835  14.554  0.00  0.00    +0.000 N 
ATOM     10  C   UNL     1       6.501   4.412  15.825  0.00  0.00    +0.000 A 
ATOM     11  C   UNL     1       5.401   5.151  16.252  0.00  0.00    +0.000 A 
ATOM     12  C   UNL     1       5.392   5.672  17.548  0.00  0.00    +0.000 A 
ATOM     13  C   UNL     1       6.531   5.472  18.333  0.00  0.00    +0.000 A 
ATOM     14  C   UNL     1       7.586   4.740  17.813  0.00  0.00    +0.000 A 
ATOM     15  N   UNL     1       7.570   4.156  16.598  0.00  0.00    +0.000 NA
ATOM     16  H   UNL     1       7.231   3.108  14.465  0.00  0.00    +0.000 HD
BRANCH   8  17
ATOM     17  C   UNL     1       6.322   3.769  12.140  0.00  0.00    +0.000 C 
ATOM     18  C   UNL     1       7.593   2.924  12.108  0.00  0.00    +0.000 C 
ATOM     19  C   UNL     1       7.270   1.766  11.182  0.00  0.00    +0.000 C 
ATOM     20  C   UNL     1       5.762   1.561  11.263  0.00  0.00    +0.000 C 
ATOM     21  C   UNL     1       5.200   2.732  12.058  0.00  0.00    +0.000 C 
ENDBRANCH   8  17
ENDBRANCH   1  12
BRANCH   5  22
ATOM     22  C   UNL     1       3.097   4.875  19.786  0.00  0.00    +0.000 A 
ATOM     23  C   UNL     1       2.239   4.841  20.898  0.00  0.00    +0.000 A 
ATOM     24  C   UNL     1       2.107   3.673  21.655  0.00  0.00    +0.000 A 
ATOM     25  C   UNL     1       2.830   2.537  21.296  0.00  0.00    +0.000 A 
ATOM     26  F   UNL     1       2.693   1.415  22.014  0.00  0.00    +0.000 F 
ATOM     27  C   UNL     1       3.693   2.555  20.212  0.00  0.00    +0.000 A 
ATOM     28  C   UNL     1       3.843   3.724  19.471  0.00  0.00    +0.000 A 
ENDBRANCH   5  22
BRANCH   3  29
ATOM     29  S   UNL     1       1.983   9.513  17.777  0.00  0.00    +0.000 S 
BRANCH  29  30
ATOM     30  C   UNL     1       0.911   9.848  19.206  0.00  0.00    +0.000 C 
BRANCH  30  31
ATOM     31  C   UNL     1      -0.439  10.359  18.749  0.00  0.00    +0.000 A 
ATOM     32  C   UNL     1      -1.033   9.858  17.581  0.00  0.00    +0.000 A 
ATOM     33  C   UNL     1      -2.256  10.365  17.131  0.00  0.00    +0.000 A 
ATOM     34  C   UNL     1      -2.898  11.378  17.840  0.00  0.00    +0.000 A 
ATOM     35  C   UNL     1      -2.319  11.885  19.002  0.00  0.00    +0.000 A 
ATOM     36  C   UNL     1      -1.097  11.380  19.454  0.00  0.00    +0.000 A 
ENDBRANCH  30  31
ENDBRANCH  29  30
ENDBRANCH   3  29
TORSDOF 6
ENDMDL
MODEL 2
REMARK VINA RESULT:      -8.8      5.418      8.483
REMARK  Name = 
REMARK  6 active torsions:
REMARK  status: ('A' for Active; 'I' for Inactive)
REMARK    1  A    between atoms: C_2  and  C_30
REMARK    2  A    between atoms: C_6  and  C_7
REMARK    3  A    between atoms: C_9  and  S_10
REMARK    4  A    between atoms: S_10  and  C_11
REMARK    5  A    between atoms: C_11  and  C_12
REMARK    6  A    between atoms: C_19  and  C_20
REMARK                            x       y       z     vdW  Elec       q    Type
REMARK                         _______ _______ _______ _____ _____    ______ ____
ROOT
ATOM      1  C   UNL     1      -0.717  10.729  18.981  0.00  0.00    +0.000 A 
ATOM      2  N   UNL     1      -1.803  10.106  18.395  0.00  0.00    +0.000 N 
ATOM      3  C   UNL     1      -2.366  10.959  17.498  0.00  0.00    +0.000 A 
ATOM      4  N   UNL     1      -1.733  12.102  17.444  0.00  0.00    +0.000 NA
ATOM      5  C   UNL     1      -0.688  11.970  18.346  0.00  0.00    +0.000 A 
ATOM      6  H   UNL     1      -2.154   9.185  18.604  0.00  0.00    +0.000 HD
ENDROOT
BRANCH   1  12
ATOM      7  O   UNL     1       2.758   7.133  18.934  0.00  0.00    +0.000 OA
ATOM      8  C   UNL     1       2.391   6.420  19.867  0.00  0.00    +0.000 C 
ATOM      9  N   UNL     1       1.630   6.867  20.928  0.00  0.00    +0.000 N 
ATOM     10  C   UNL     1       1.189   8.190  20.994  0.00  0.00    +0.000 A 
ATOM     11  C   UNL     1       0.524   8.783  19.924  0.00  0.00    +0.000 A 
ATOM     12  C   UNL     1       0.062  10.094  20.052  0.00  0.00    +0.000 A 
ATOM     13  C   UNL     1       0.353  10.770  21.240  0.00  0.00    +0.000 A 
ATOM     14  C   UNL     1       1.040  10.103  22.241  0.00  0.00    +0.000 A 
ATOM     15  N   UNL     1       1.411   8.809  22.166  0.00  0.00    +0.000 NA
ATOM     16  H   UNL     1       1.834   6.469  21.834  0.00  0.00    +0.000 HD
BRANCH   8  17
ATOM     17  C   UNL     1       2.745   4.945  19.959  0.00  0.00    +0.000 C 
ATOM     18  C   UNL     1       2.076   4.320  21.181  0.00  0.00    +0.000 C 
ATOM     19  C   UNL     1       1.965   2.842  20.853  0.00  0.00    +0.000 C 
ATOM     20  C   UNL     1       1.895   2.744  19.333  0.00  0.00    +0.000 C 
ATOM     21  C   UNL     1       2.183   4.136  18.789  0.00  0.00    +0.000 C 
ENDBRANCH   8  17
ENDBRANCH   1  12
BRANCH   5  22
ATOM     22  C   UNL     1       0.274  13.041  18.573  0.00  0.00    +0.000 A 
ATOM     23  C   UNL     1       1.648  12.809  18.396  0.00  0.00    +0.000 A 
ATOM     24  C   UNL     1       2.570  13.842  18.586  0.00  0.00    +0.000 A 
ATOM     25  C   UNL     1       2.118  15.109  18.950  0.00  0.00    +0.000 A 
ATOM     26  F   UNL     1       3.001  16.101  19.119  0.00  0.00    +0.000 F 
ATOM     27  C   UNL     1       0.768  15.354  19.144  0.00  0.00    +0.000 A 
ATOM     28  C   UNL     1      -0.150  14.321  18.978  0.00  0.00    +0.000 A 
ENDBRANCH   5  22
BRANCH   3  29
ATOM     29  S   UNL     1      -3.777  10.456  16.651  0.00  0.00    +0.000 S 
BRANCH  29  30
ATOM     30  C   UNL     1      -4.915  11.840  16.956  0.00  0.00    +0.000 C 
BRANCH  30  31
ATOM     31  C   UNL     1      -5.562  11.705  18.318  0.00  0.00    +0.000 A 
ATOM     32  C   UNL     1      -6.555  10.739  18.543  0.00  0.00    +0.000 A 
ATOM     33  C   UNL     1      -7.189  10.647  19.786  0.00  0.00    +0.000 A 
ATOM     34  C   UNL     1      -6.841  11.517  20.816  0.00  0.00    +0.000 A 
ATOM     35  C   UNL     1      -5.857  12.481  20.606  0.00  0.00    +0.000 A 
ATOM     36  C   UNL     1      -5.221  12.576  19.366  0.00  0.00    +0.000 A 
ENDBRANCH  30  31
ENDBRANCH  29  30
ENDBRANCH   3  29
TORSDOF 6
ENDMDL
MODEL 3
REMARK VINA RESULT:      -8.7      2.753      9.175
REMARK  Name = 
REMARK  6 active torsions:
REMARK  status: ('A' for Active; 'I' for Inactive)
REMARK    1  A    between atoms: C_2  and  C_30
REMARK    2  A    between atoms: C_6  and  C_7
REMARK    3  A    between atoms: C_9  and  S_10
REMARK    4  A    between atoms: S_10  and  C_11
REMARK    5  A    between atoms: C_11  and  C_12
REMARK    6  A    between atoms: C_19  and  C_20
REMARK                            x       y       z     vdW  Elec       q    Type
REMARK                         _______ _______ _______ _____ _____    ______ ____
ROOT
ATOM      1  C   UNL     1       2.646   7.094  18.837  0.00  0.00    +0.000 A 
ATOM      2  N   UNL     1       3.380   7.578  17.770  0.00  0.00    +0.000 N 
ATOM      3  C   UNL     1       4.033   6.540  17.182  0.00  0.00    +0.000 A 
ATOM      4  N   UNL     1       3.786   5.403  17.779  0.00  0.00    +0.000 NA
ATOM      5  C   UNL     1       2.905   5.725  18.800  0.00  0.00    +0.000 A 
ATOM      6  H   UNL     1       3.456   8.540  17.477  0.00  0.00    +0.000 HD
ENDROOT
BRANCH   1  12
ATOM      7  O   UNL     1      -0.542  10.838  17.925  0.00  0.00    +0.000 OA
ATOM      8  C   UNL     1      -0.151  11.696  18.715  0.00  0.00    +0.000 C 
ATOM      9  N   UNL     1       0.541  11.419  19.877  0.00  0.00    +0.000 N 
ATOM     10  C   UNL     1       0.877  10.108  20.222  0.00  0.00    +0.000 A 
ATOM     11  C   UNL     1       1.528   9.270  19.321  0.00  0.00    +0.000 A 
ATOM     12  C   UNL     1       1.884   7.982  19.726  0.00  0.00    +0.000 A 
ATOM     13  C   UNL     1       1.506   7.579  21.009  0.00  0.00    +0.000 A 
ATOM     14  C   UNL     1       0.842   8.478  21.827  0.00  0.00    +0.000 A 
ATOM     15  N   UNL     1       0.573   9.753  21.482  0.00  0.00    +0.000 NA
ATOM     16  H   UNL     1       0.339  12.002  20.677  0.00  0.00    +0.000 HD
BRANCH   8  17
ATOM     17  C   UNL     1      -0.395  13.181  18.500  0.00  0.00    +0.000 C 
ATOM     18  C   UNL     1      -1.110  13.777  19.710  0.00  0.00    +0.000 C 
ATOM     19  C   UNL     1      -0.758  15.252  19.685  0.00  0.00    +0.000 C 
ATOM     20  C   UNL     1       0.594  15.359  18.988  0.00  0.00    +0.000 C 
ATOM     21  C   UNL     1       0.907  13.980  18.423  0.00  0.00    +0.000 C 
ENDBRANCH   8  17
ENDBRANCH   1  12
BRANCH   5  22
ATOM     22  C   UNL     1       2.370   4.714  19.704  0.00  0.00    +0.000 A 
ATOM     23  C   UNL     1       3.032   4.419  20.908  0.00  0.00    +0.000 A 
ATOM     24  C   UNL     1       2.507   3.470  21.789  0.00  0.00    +0.000 A 
ATOM     25  C   UNL     1       1.317   2.819  21.469  0.00  0.00    +0.000 A 
ATOM     26  F   UNL     1       0.808   1.920  22.321  0.00  0.00    +0.000 F 
ATOM     27  C   UNL     1       0.657   3.085  20.280  0.00  0.00    +0.000 A 
ATOM     28  C   UNL     1       1.191   4.013  19.390  0.00  0.00    +0.000 A 
ENDBRANCH   5  22
BRANCH   3  29
ATOM     29  S   UNL     1       5.069   6.866  15.847  0.00  0.00    +0.000 S 
BRANCH  29  30
ATOM     30  C   UNL     1       6.186   5.432  15.877  0.00  0.00    +0.000 C 
BRANCH  30  31
ATOM     31  C   UNL     1       6.384   4.884  14.479  0.00  0.00    +0.000 A 
ATOM     32  C   UNL     1       5.477   3.960  13.939  0.00  0.00    +0.000 A 
ATOM     33  C   UNL     1       5.686   3.416  12.668  0.00  0.00    +0.000 A 
ATOM     34  C   UNL     1       6.803   3.786  11.923  0.00  0.00    +0.000 A 
ATOM     35  C   UNL     1       7.712   4.704  12.447  0.00  0.00    +0.000 A 
ATOM     36  C   UNL     1       7.505   5.250  13.716  0.00  0.00    +0.000 A 
ENDBRANCH  30  31
ENDBRANCH  29  30
ENDBRANCH   3  29
TORSDOF 6
ENDMDL
MODEL 4
REMARK VINA RESULT:      -8.6      5.341      8.543
REMARK  Name = 
REMARK  6 active torsions:
REMARK  status: ('A' for Active; 'I' for Inactive)
REMARK    1  A    between atoms: C_2  and  C_30
REMARK    2  A    between atoms: C_6  and  C_7
REMARK    3  A    between atoms: C_9  and  S_10
REMARK    4  A    between atoms: S_10  and  C_11
REMARK    5  A    between atoms: C_11  and  C_12
REMARK    6  A    between atoms: C_19  and  C_20
REMARK                            x       y       z     vdW  Elec       q    Type
REMARK                         _______ _______ _______ _____ _____    ______ ____
ROOT
ATOM      1  C   UNL     1      -0.810  10.857  19.129  0.00  0.00    +0.000 A 
ATOM      2  N   UNL     1      -1.982  10.310  18.642  0.00  0.00    +0.000 N 
ATOM      3  C   UNL     1      -2.529  11.174  17.745  0.00  0.00    +0.000 A 
ATOM      4  N   UNL     1      -1.806  12.255  17.601  0.00  0.00    +0.000 NA
ATOM      5  C   UNL     1      -0.718  12.066  18.440  0.00  0.00    +0.000 A 
ATOM      6  H   UNL     1      -2.396   9.432  18.913  0.00  0.00    +0.000 HD
ENDROOT
BRANCH   1  12
ATOM      7  O   UNL     1       2.574   7.179  18.969  0.00  0.00    +0.000 OA
ATOM      8  C   UNL     1       2.215   6.470  19.909  0.00  0.00    +0.000 C 
ATOM      9  N   UNL     1       1.494   6.929  20.992  0.00  0.00    +0.000 N 
ATOM     10  C   UNL     1       1.088   8.262  21.077  0.00  0.00    +0.000 A 
ATOM     11  C   UNL     1       0.408   8.876  20.028  0.00  0.00    +0.000 A 
ATOM     12  C   UNL     1      -0.018  10.198  20.176  0.00  0.00    +0.000 A 
ATOM     13  C   UNL     1       0.321  10.859  21.359  0.00  0.00    +0.000 A 
ATOM     14  C   UNL     1       1.018  10.170  22.337  0.00  0.00    +0.000 A 
ATOM     15  N   UNL     1       1.356   8.868  22.245  0.00  0.00    +0.000 NA
ATOM     16  H   UNL     1       1.714   6.521  21.890  0.00  0.00    +0.000 HD
BRANCH   8  17
ATOM     17  C   UNL     1       2.536   4.986  19.984  0.00  0.00    +0.000 C 
ATOM     18  C   UNL     1       1.438   4.249  20.747  0.00  0.00    +0.000 C 
ATOM     19  C   UNL     1       1.510   2.817  20.250  0.00  0.00    +0.000 C 
ATOM     20  C   UNL     1       2.075   2.882  18.836  0.00  0.00    +0.000 C 
ATOM     21  C   UNL     1       2.528   4.317  18.608  0.00  0.00    +0.000 C 
ENDBRANCH   8  17
ENDBRANCH   1  12
BRANCH   5  22
ATOM     22  C   UNL     1       0.344  13.056  18.558  0.00  0.00    +0.000 A 
ATOM     23  C   UNL     1       0.043  14.377  18.930  0.00  0.00    +0.000 A 
ATOM     24  C   UNL     1       1.064  15.322  19.071  0.00  0.00    +0.000 A 
ATOM     25  C   UNL     1       2.386  14.944  18.846  0.00  0.00    +0.000 A 
ATOM     26  F   UNL     1       3.363  15.847  18.995  0.00  0.00    +0.000 F 
ATOM     27  C   UNL     1       2.702  13.650  18.465  0.00  0.00    +0.000 A 
ATOM     28  C   UNL     1       1.686  12.713  18.301  0.00  0.00    +0.000 A 
ENDBRANCH   5  22
BRANCH   3  29
ATOM     29  S   UNL     1      -4.032  10.765  17.013  0.00  0.00    +0.000 S 
BRANCH  29  30
ATOM     30  C   UNL     1      -5.140  12.041  17.685  0.00  0.00    +0.000 C 
BRANCH  30  31
ATOM     31  C   UNL     1      -6.029  11.457  18.762  0.00  0.00    +0.000 A 
ATOM     32  C   UNL     1      -6.406  12.229  19.872  0.00  0.00    +0.000 A 
ATOM     33  C   UNL     1      -7.186  11.676  20.892  0.00  0.00    +0.000 A 
ATOM     34  C   UNL     1      -7.596  10.347  20.817  0.00  0.00    +0.000 A 
ATOM     35  C   UNL     1      -7.230   9.569  19.721  0.00  0.00    +0.000 A 
ATOM     36  C   UNL     1      -6.451  10.119  18.699  0.00  0.00    +0.000 A 
ENDBRANCH  30  31
ENDBRANCH  29  30
ENDBRANCH   3  29
TORSDOF 6
ENDMDL
MODEL 5
REMARK VINA RESULT:      -8.6      0.982      1.288
REMARK  Name = 
REMARK  6 active torsions:
REMARK  status: ('A' for Active; 'I' for Inactive)
REMARK    1  A    between atoms: C_2  and  C_30
REMARK    2  A    between atoms: C_6  and  C_7
REMARK    3  A    between atoms: C_9  and  S_10
REMARK    4  A    between atoms: S_10  and  C_11
REMARK    5  A    between atoms: C_11  and  C_12
REMARK    6  A    between atoms: C_19  and  C_20
REMARK                            x       y       z     vdW  Elec       q    Type
REMARK                         _______ _______ _______ _____ _____    ______ ____
ROOT
ATOM      1  C   UNL     1       4.015   6.481  17.725  0.00  0.00    +0.000 A 
ATOM      2  N   UNL     1       3.883   7.849  17.573  0.00  0.00    +0.000 N 
ATOM      3  C   UNL     1       2.649   8.220  18.008  0.00  0.00    +0.000 A 
ATOM      4  N   UNL     1       1.953   7.200  18.439  0.00  0.00    +0.000 NA
ATOM      5  C   UNL     1       2.796   6.109  18.291  0.00  0.00    +0.000 A 
ATOM      6  H   UNL     1       4.563   8.480  17.180  0.00  0.00    +0.000 HD
ENDROOT
BRANCH   1  12
ATOM      7  O   UNL     1       5.986   5.739  13.189  0.00  0.00    +0.000 OA
ATOM      8  C   UNL     1       6.249   4.538  13.226  0.00  0.00    +0.000 C 
ATOM      9  N   UNL     1       6.478   3.832  14.389  0.00  0.00    +0.000 N 
ATOM     10  C   UNL     1       6.392   4.450  15.638  0.00  0.00    +0.000 A 
ATOM     11  C   UNL     1       5.273   5.196  15.998  0.00  0.00    +0.000 A 
ATOM     12  C   UNL     1       5.212   5.759  17.274  0.00  0.00    +0.000 A 
ATOM     13  C   UNL     1       6.321   5.594  18.108  0.00  0.00    +0.000 A 
ATOM     14  C   UNL     1       7.399   4.852  17.653  0.00  0.00    +0.000 A 
ATOM     15  N   UNL     1       7.432   4.227  16.459  0.00  0.00    +0.000 NA
ATOM     16  H   UNL     1       7.181   3.107  14.350  0.00  0.00    +0.000 HD
BRANCH   8  17
ATOM     17  C   UNL     1       6.358   3.684  11.972  0.00  0.00    +0.000 C 
ATOM     18  C   UNL     1       7.669   2.902  11.982  0.00  0.00    +0.000 C 
ATOM     19  C   UNL     1       7.412   1.697  11.096  0.00  0.00    +0.000 C 
ATOM     20  C   UNL     1       5.915   1.422  11.171  0.00  0.00    +0.000 C 
ATOM     21  C   UNL     1       5.288   2.592  11.917  0.00  0.00    +0.000 C 
ENDBRANCH   8  17
ENDBRANCH   1  12
BRANCH   5  22
ATOM     22  C   UNL     1       2.391   4.764  18.676  0.00  0.00    +0.000 A 
ATOM     23  C   UNL     1       2.003   4.492  19.999  0.00  0.00    +0.000 A 
ATOM     24  C   UNL     1       1.587   3.209  20.364  0.00  0.00    +0.000 A 
ATOM     25  C   UNL     1       1.553   2.198  19.406  0.00  0.00    +0.000 A 
ATOM     26  F   UNL     1       1.142   0.973  19.755  0.00  0.00    +0.000 F 
ATOM     27  C   UNL     1       1.946   2.442  18.100  0.00  0.00    +0.000 A 
ATOM     28  C   UNL     1       2.383   3.713  17.738  0.00  0.00    +0.000 A 
ENDBRANCH   5  22
BRANCH   3  29
ATOM     29  S   UNL     1       2.194   9.876  17.888  0.00  0.00    +0.000 S 
BRANCH  29  30
ATOM     30  C   UNL     1       1.021  10.046  19.267  0.00  0.00    +0.000 C 
BRANCH  30  31
ATOM     31  C   UNL     1      -0.346  10.448  18.755  0.00  0.00    +0.000 A 
ATOM     32  C   UNL     1      -1.127  11.376  19.460  0.00  0.00    +0.000 A 
ATOM     33  C   UNL     1      -2.410  11.710  19.015  0.00  0.00    +0.000 A 
ATOM     34  C   UNL     1      -2.927  11.121  17.864  0.00  0.00    +0.000 A 
ATOM     35  C   UNL     1      -2.162  10.198  17.153  0.00  0.00    +0.000 A 
ATOM     36  C   UNL     1      -0.879   9.862  17.595  0.00  0.00    +0.000 A 
ENDBRANCH  30  31
ENDBRANCH  29  30
ENDBRANCH   3  29
TORSDOF 6
ENDMDL
MODEL 6
REMARK VINA RESULT:      -8.5      5.821     11.719
REMARK  Name = 
REMARK  6 active torsions:
REMARK  status: ('A' for Active; 'I' for Inactive)
REMARK    1  A    between atoms: C_2  and  C_30
REMARK    2  A    between atoms: C_6  and  C_7
REMARK    3  A    between atoms: C_9  and  S_10
REMARK    4  A    between atoms: S_10  and  C_11
REMARK    5  A    between atoms: C_11  and  C_12
REMARK    6  A    between atoms: C_19  and  C_20
REMARK                            x       y       z     vdW  Elec       q    Type
REMARK                         _______ _______ _______ _____ _____    ______ ____
ROOT
ATOM      1  C   UNL     1       0.337  11.206  19.489  0.00  0.00    +0.000 A 
ATOM      2  N   UNL     1       0.591   9.869  19.247  0.00  0.00    +0.000 N 
ATOM      3  C   UNL     1       1.666   9.770  18.420  0.00  0.00    +0.000 A 
ATOM      4  N   UNL     1       2.145  10.943  18.096  0.00  0.00    +0.000 NA
ATOM      5  C   UNL     1       1.343  11.851  18.770  0.00  0.00    +0.000 A 
ATOM      6  H   UNL     1       0.063   9.083  19.592  0.00  0.00    +0.000 HD
ENDROOT
BRANCH   1  12
ATOM      7  O   UNL     1      -4.592  11.063  18.661  0.00  0.00    +0.000 OA
ATOM      8  C   UNL     1      -4.935  12.194  19.000  0.00  0.00    +0.000 C 
ATOM      9  N   UNL     1      -4.235  12.978  19.896  0.00  0.00    +0.000 N 
ATOM     10  C   UNL     1      -3.042  12.532  20.467  0.00  0.00    +0.000 A 
ATOM     11  C   UNL     1      -2.004  12.042  19.678  0.00  0.00    +0.000 A 
ATOM     12  C   UNL     1      -0.812  11.649  20.289  0.00  0.00    +0.000 A 
ATOM     13  C   UNL     1      -0.749  11.710  21.684  0.00  0.00    +0.000 A 
ATOM     14  C   UNL     1      -1.842  12.192  22.385  0.00  0.00    +0.000 A 
ATOM     15  N   UNL     1      -2.964  12.660  21.802  0.00  0.00    +0.000 NA
ATOM     16  H   UNL     1      -4.782  13.557  20.517  0.00  0.00    +0.000 HD
BRANCH   8  17
ATOM     17  C   UNL     1      -6.190  12.866  18.465  0.00  0.00    +0.000 C 
ATOM     18  C   UNL     1      -6.255  14.314  18.945  0.00  0.00    +0.000 C 
ATOM     19  C   UNL     1      -7.121  15.026  17.921  0.00  0.00    +0.000 C 
ATOM     20  C   UNL     1      -6.956  14.259  16.614  0.00  0.00    +0.000 C 
ATOM     21  C   UNL     1      -6.178  12.992  16.941  0.00  0.00    +0.000 C 
ENDBRANCH   8  17
ENDBRANCH   1  12
BRANCH   5  22
ATOM     22  C   UNL     1       1.561  13.289  18.679  0.00  0.00    +0.000 A 
ATOM     23  C   UNL     1       2.830  13.793  18.346  0.00  0.00    +0.000 A 
ATOM     24  C   UNL     1       3.035  15.171  18.230  0.00  0.00    +0.000 A 
ATOM     25  C   UNL     1       1.972  16.044  18.444  0.00  0.00    +0.000 A 
ATOM     26  F   UNL     1       2.167  17.363  18.320  0.00  0.00    +0.000 F 
ATOM     27  C   UNL     1       0.717  15.568  18.789  0.00  0.00    +0.000 A 
ATOM     28  C   UNL     1       0.515  14.198  18.927  0.00  0.00    +0.000 A 
ENDBRANCH   5  22
BRANCH   3  29
ATOM     29  S   UNL     1       2.177   8.207  17.911  0.00  0.00    +0.000 S 
BRANCH  29  30
ATOM     30  C   UNL     1       2.369   7.338  19.496  0.00  0.00    +0.000 C 
BRANCH  30  31
ATOM     31  C   UNL     1       2.007   5.875  19.346  0.00  0.00    +0.000 A 
ATOM     32  C   UNL     1       2.020   5.263  18.084  0.00  0.00    +0.000 A 
ATOM     33  C   UNL     1       1.638   3.926  17.937  0.00  0.00    +0.000 A 
ATOM     34  C   UNL     1       1.238   3.187  19.048  0.00  0.00    +0.000 A 
ATOM     35  C   UNL     1       1.221   3.782  20.308  0.00  0.00    +0.000 A 
ATOM     36  C   UNL     1       1.603   5.118  20.457  0.00  0.00    +0.000 A 
ENDBRANCH  30  31
ENDBRANCH  29  30
ENDBRANCH   3  29
TORSDOF 6
ENDMDL
MODEL 7
REMARK VINA RESULT:      -8.5      5.554     10.137
REMARK  Name = 
REMARK  6 active torsions:
REMARK  status: ('A' for Active; 'I' for Inactive)
REMARK    1  A    between atoms: C_2  and  C_30
REMARK    2  A    between atoms: C_6  and  C_7
REMARK    3  A    between atoms: C_9  and  S_10
REMARK    4  A    between atoms: S_10  and  C_11
REMARK    5  A    between atoms: C_11  and  C_12
REMARK    6  A    between atoms: C_19  and  C_20
REMARK                            x       y       z     vdW  Elec       q    Type
REMARK                         _______ _______ _______ _____ _____    ______ ____
ROOT
ATOM      1  C   UNL     1       1.181  11.511  19.037  0.00  0.00    +0.000 A 
ATOM      2  N   UNL     1       1.859  10.634  18.211  0.00  0.00    +0.000 N 
ATOM      3  C   UNL     1       1.516   9.362  18.548  0.00  0.00    +0.000 A 
ATOM      4  N   UNL     1       0.660   9.330  19.536  0.00  0.00    +0.000 NA
ATOM      5  C   UNL     1       0.421  10.661  19.840  0.00  0.00    +0.000 A 
ATOM      6  H   UNL     1       2.523  10.875  17.492  0.00  0.00    +0.000 HD
ENDROOT
BRANCH   1  12
ATOM      7  O   UNL     1       5.234  14.277  18.073  0.00  0.00    +0.000 OA
ATOM      8  C   UNL     1       5.171  15.127  18.960  0.00  0.00    +0.000 C 
ATOM      9  N   UNL     1       4.002  15.505  19.588  0.00  0.00    +0.000 N 
ATOM     10  C   UNL     1       2.784  14.904  19.267  0.00  0.00    +0.000 A 
ATOM     11  C   UNL     1       2.643  13.518  19.258  0.00  0.00    +0.000 A 
ATOM     12  C   UNL     1       1.393  12.963  18.975  0.00  0.00    +0.000 A 
ATOM     13  C   UNL     1       0.355  13.839  18.650  0.00  0.00    +0.000 A 
ATOM     14  C   UNL     1       0.596  15.203  18.665  0.00  0.00    +0.000 A 
ATOM     15  N   UNL     1       1.772  15.755  19.025  0.00  0.00    +0.000 NA
ATOM     16  H   UNL     1       3.913  16.480  19.835  0.00  0.00    +0.000 HD
BRANCH   8  17
ATOM     17  C   UNL     1       6.395  15.873  19.467  0.00  0.00    +0.000 C 
ATOM     18  C   UNL     1       7.660  15.074  19.163  0.00  0.00    +0.000 C 
ATOM     19  C   UNL     1       8.774  16.104  19.124  0.00  0.00    +0.000 C 
ATOM     20  C   UNL     1       8.125  17.420  18.711  0.00  0.00    +0.000 C 
ATOM     21  C   UNL     1       6.620  17.194  18.729  0.00  0.00    +0.000 C 
ENDBRANCH   8  17
ENDBRANCH   1  12
BRANCH   5  22
ATOM     22  C   UNL     1      -0.502  11.057  20.896  0.00  0.00    +0.000 A 
ATOM     23  C   UNL     1      -0.347  10.553  22.198  0.00  0.00    +0.000 A 
ATOM     24  C   UNL     1      -1.215  10.952  23.219  0.00  0.00    +0.000 A 
ATOM     25  C   UNL     1      -2.234  11.860  22.939  0.00  0.00    +0.000 A 
ATOM     26  F   UNL     1      -3.056  12.252  23.920  0.00  0.00    +0.000 F 
ATOM     27  C   UNL     1      -2.412  12.358  21.658  0.00  0.00    +0.000 A 
ATOM     28  C   UNL     1      -1.564  11.943  20.634  0.00  0.00    +0.000 A 
ENDBRANCH   5  22
BRANCH   3  29
ATOM     29  S   UNL     1       2.256   8.056  17.705  0.00  0.00    +0.000 S 
BRANCH  29  30
ATOM     30  C   UNL     1       2.925   7.058  19.069  0.00  0.00    +0.000 C 
BRANCH  30  31
ATOM     31  C   UNL     1       2.215   5.723  19.149  0.00  0.00    +0.000 A 
ATOM     32  C   UNL     1       1.752   5.233  20.380  0.00  0.00    +0.000 A 
ATOM     33  C   UNL     1       1.140   3.979  20.462  0.00  0.00    +0.000 A 
ATOM     34  C   UNL     1       0.985   3.199  19.318  0.00  0.00    +0.000 A 
ATOM     35  C   UNL     1       1.440   3.673  18.089  0.00  0.00    +0.000 A 
ATOM     36  C   UNL     1       2.051   4.927  18.003  0.00  0.00    +0.000 A 
ENDBRANCH  30  31
ENDBRANCH  29  30
ENDBRANCH   3  29
TORSDOF 6
ENDMDL
MODEL 8
REMARK VINA RESULT:      -8.5      5.318     11.392
REMARK  Name = 
REMARK  6 active torsions:
REMARK  status: ('A' for Active; 'I' for Inactive)
REMARK    1  A    between atoms: C_2  and  C_30
REMARK    2  A    between atoms: C_6  and  C_7
REMARK    3  A    between atoms: C_9  and  S_10
REMARK    4  A    between atoms: S_10  and  C_11
REMARK    5  A    between atoms: C_11  and  C_12
REMARK    6  A    between atoms: C_19  and  C_20
REMARK                            x       y       z     vdW  Elec       q    Type
REMARK                         _______ _______ _______ _____ _____    ______ ____
ROOT
ATOM      1  C   UNL     1       0.730   9.392  19.669  0.00  0.00    +0.000 A 
ATOM      2  N   UNL     1       1.904   8.693  19.465  0.00  0.00    +0.000 N 
ATOM      3  C   UNL     1       2.038   8.440  18.135  0.00  0.00    +0.000 A 
ATOM      4  N   UNL     1       1.038   8.920  17.442  0.00  0.00    +0.000 NA
ATOM      5  C   UNL     1       0.223   9.537  18.378  0.00  0.00    +0.000 A 
ATOM      6  H   UNL     1       2.554   8.386  20.172  0.00  0.00    +0.000 HD
ENDROOT
BRANCH   1  12
ATOM      7  O   UNL     1      -2.872  12.475  21.258  0.00  0.00    +0.000 OA
ATOM      8  C   UNL     1      -2.300  13.080  22.164  0.00  0.00    +0.000 C 
ATOM      9  N   UNL     1      -1.224  12.580  22.868  0.00  0.00    +0.000 N 
ATOM     10  C   UNL     1      -0.681  11.330  22.565  0.00  0.00    +0.000 A 
ATOM     11  C   UNL     1      -0.321  10.997  21.261  0.00  0.00    +0.000 A 
ATOM     12  C   UNL     1       0.260   9.751  21.013  0.00  0.00    +0.000 A 
ATOM     13  C   UNL     1       0.392   8.872  22.091  0.00  0.00    +0.000 A 
ATOM     14  C   UNL     1      -0.014   9.286  23.349  0.00  0.00    +0.000 A 
ATOM     15  N   UNL     1      -0.492  10.518  23.619  0.00  0.00    +0.000 NA
ATOM     16  H   UNL     1      -1.179  12.807  23.851  0.00  0.00    +0.000 HD
BRANCH   8  17
ATOM     17  C   UNL     1      -2.726  14.467  22.620  0.00  0.00    +0.000 C 
ATOM     18  C   UNL     1      -4.211  14.469  22.975  0.00  0.00    +0.000 C 
ATOM     19  C   UNL     1      -4.377  15.620  23.951  0.00  0.00    +0.000 C 
ATOM     20  C   UNL     1      -3.033  15.787  24.649  0.00  0.00    +0.000 C 
ATOM     21  C   UNL     1      -2.044  14.886  23.923  0.00  0.00    +0.000 C 
ENDBRANCH   8  17
ENDBRANCH   1  12
BRANCH   5  22
ATOM     22  C   UNL     1      -1.010  10.215  17.998  0.00  0.00    +0.000 A 
ATOM     23  C   UNL     1      -2.028   9.514  17.333  0.00  0.00    +0.000 A 
ATOM     24  C   UNL     1      -3.223  10.155  16.992  0.00  0.00    +0.000 A 
ATOM     25  C   UNL     1      -3.400  11.497  17.322  0.00  0.00    +0.000 A 
ATOM     26  F   UNL     1      -4.550  12.106  17.007  0.00  0.00    +0.000 F 
ATOM     27  C   UNL     1      -2.402  12.210  17.965  0.00  0.00    +0.000 A 
ATOM     28  C   UNL     1      -1.202  11.580  18.285  0.00  0.00    +0.000 A 
ENDBRANCH   5  22
BRANCH   3  29
ATOM     29  S   UNL     1       3.399   7.533  17.599  0.00  0.00    +0.000 S 
BRANCH  29  30
ATOM     30  C   UNL     1       3.719   6.452  19.025  0.00  0.00    +0.000 C 
BRANCH  30  31
ATOM     31  C   UNL     1       2.668   5.366  19.114  0.00  0.00    +0.000 A 
ATOM     32  C   UNL     1       2.014   5.104  20.328  0.00  0.00    +0.000 A 
ATOM     33  C   UNL     1       1.079   4.069  20.424  0.00  0.00    +0.000 A 
ATOM     34  C   UNL     1       0.789   3.283  19.312  0.00  0.00    +0.000 A 
ATOM     35  C   UNL     1       1.430   3.532  18.100  0.00  0.00    +0.000 A 
ATOM     36  C   UNL     1       2.364   4.566  18.001  0.00  0.00    +0.000 A 
ENDBRANCH  30  31
ENDBRANCH  29  30
ENDBRANCH   3  29
TORSDOF 6
ENDMDL
MODEL 9
REMARK VINA RESULT:      -8.5      4.547      8.104
REMARK  Name = 
REMARK  6 active torsions:
REMARK  status: ('A' for Active; 'I' for Inactive)
REMARK    1  A    between atoms: C_2  and  C_30
REMARK    2  A    between atoms: C_6  and  C_7
REMARK    3  A    between atoms: C_9  and  S_10
REMARK    4  A    between atoms: S_10  and  C_11
REMARK    5  A    between atoms: C_11  and  C_12
REMARK    6  A    between atoms: C_19  and  C_20
REMARK                            x       y       z     vdW  Elec       q    Type
REMARK                         _______ _______ _______ _____ _____    ______ ____
ROOT
ATOM      1  C   UNL     1      -0.556  10.892  19.228  0.00  0.00    +0.000 A 
ATOM      2  N   UNL     1      -1.782  10.469  18.750  0.00  0.00    +0.000 N 
ATOM      3  C   UNL     1      -2.334  11.470  18.014  0.00  0.00    +0.000 A 
ATOM      4  N   UNL     1      -1.564  12.527  17.968  0.00  0.00    +0.000 NA
ATOM      5  C   UNL     1      -0.440  12.177  18.701  0.00  0.00    +0.000 A 
ATOM      6  H   UNL     1      -2.225   9.581  18.928  0.00  0.00    +0.000 HD
ENDROOT
BRANCH   1  12
ATOM      7  O   UNL     1       3.137   7.634  18.360  0.00  0.00    +0.000 OA
ATOM      8  C   UNL     1       2.815   6.693  19.083  0.00  0.00    +0.000 C 
ATOM      9  N   UNL     1       2.026   6.819  20.209  0.00  0.00    +0.000 N 
ATOM     10  C   UNL     1       1.503   8.056  20.589  0.00  0.00    +0.000 A 
ATOM     11  C   UNL     1       0.803   8.852  19.686  0.00  0.00    +0.000 A 
ATOM     12  C   UNL     1       0.260  10.062  20.124  0.00  0.00    +0.000 A 
ATOM     13  C   UNL     1       0.506  10.441  21.446  0.00  0.00    +0.000 A 
ATOM     14  C   UNL     1       1.232   9.591  22.265  0.00  0.00    +0.000 A 
ATOM     15  N   UNL     1       1.684   8.380  21.881  0.00  0.00    +0.000 NA
ATOM     16  H   UNL     1       2.254   6.224  20.993  0.00  0.00    +0.000 HD
BRANCH   8  17
ATOM     17  C   UNL     1       3.261   5.264  18.818  0.00  0.00    +0.000 C 
ATOM     18  C   UNL     1       2.058   4.397  18.457  0.00  0.00    +0.000 C 
ATOM     19  C   UNL     1       2.631   3.250  17.646  0.00  0.00    +0.000 C 
ATOM     20  C   UNL     1       3.896   3.783  16.984  0.00  0.00    +0.000 C 
ATOM     21  C   UNL     1       4.163   5.156  17.587  0.00  0.00    +0.000 C 
ENDBRANCH   8  17
ENDBRANCH   1  12
BRANCH   5  22
ATOM     22  C   UNL     1       0.678  13.094  18.881  0.00  0.00    +0.000 A 
ATOM     23  C   UNL     1       1.909  12.840  18.254  0.00  0.00    +0.000 A 
ATOM     24  C   UNL     1       2.975  13.733  18.402  0.00  0.00    +0.000 A 
ATOM     25  C   UNL     1       2.808  14.881  19.173  0.00  0.00    +0.000 A 
ATOM     26  F   UNL     1       3.826  15.741  19.304  0.00  0.00    +0.000 F 
ATOM     27  C   UNL     1       1.606  15.141  19.812  0.00  0.00    +0.000 A 
ATOM     28  C   UNL     1       0.551  14.243  19.685  0.00  0.00    +0.000 A 
ENDBRANCH   5  22
BRANCH   3  29
ATOM     29  S   UNL     1      -3.896  11.232  17.333  0.00  0.00    +0.000 S 
BRANCH  29  30
ATOM     30  C   UNL     1      -4.921  12.347  18.338  0.00  0.00    +0.000 C 
BRANCH  30  31
ATOM     31  C   UNL     1      -5.940  11.559  19.133  0.00  0.00    +0.000 A 
ATOM     32  C   UNL     1      -6.596  12.141  20.229  0.00  0.00    +0.000 A 
ATOM     33  C   UNL     1      -7.500  11.398  20.994  0.00  0.00    +0.000 A 
ATOM     34  C   UNL     1      -7.759  10.067  20.676  0.00  0.00    +0.000 A 
ATOM     35  C   UNL     1      -7.115   9.476  19.590  0.00  0.00    +0.000 A 
ATOM     36  C   UNL     1      -6.211  10.216  18.823  0.00  0.00    +0.000 A 
ENDBRANCH  30  31
ENDBRANCH  29  30
ENDBRANCH   3  29
TORSDOF 6
ENDMDL
