MODEL 1
REMARK VINA RESULT:      -8.3      0.000      0.000
REMARK  Name = 
REMARK  5 active torsions:
REMARK  status: ('A' for Active; 'I' for Inactive)
REMARK    1  A    between atoms: C_1  and  C_2
REMARK    2  A    between atoms: C_2  and  C_3
REMARK    3  A    between atoms: C_9  and  C_11
REMARK    4  A    between atoms: N_19  and  C_20
REMARK    5  A    between atoms: C_20  and  C_21
REMARK                            x       y       z     vdW  Elec       q    Type
REMARK                         _______ _______ _______ _____ _____    ______ ____
ROOT
ATOM      1  C   UNL     1       0.503  12.635  21.266  0.00  0.00    +0.000 C 
ATOM      2  C   UNL     1      -0.390  11.388  21.396  0.00  0.00    +0.000 C 
ATOM      3  C   UNL     1      -1.404  11.540  22.535  0.00  0.00    +0.000 C 
ATOM      4  C   UNL     1       0.463  10.218  21.628  0.00  0.00    +0.000 A 
ATOM      5  N   UNL     1       1.265   9.739  22.597  0.00  0.00    +0.000 N 
ATOM      6  N   UNL     1       1.814   8.550  22.251  0.00  0.00    +0.000 NA
ATOM      7  C   UNL     1       1.453   8.389  20.964  0.00  0.00    +0.000 A 
ATOM      8  N   UNL     1       1.976   7.340  20.258  0.00  0.00    +0.000 N 
ATOM      9  C   UNL     1       2.336   7.445  18.933  0.00  0.00    +0.000 C 
ATOM     10  O   UNL     1       2.234   8.464  18.254  0.00  0.00    +0.000 OA
ATOM     11  C   UNL     1       0.532   9.363  20.573  0.00  0.00    +0.000 A 
ATOM     12  C   UNL     1      -0.359   9.802  19.487  0.00  0.00    +0.000 C 
ATOM     13  N   UNL     1      -1.115  10.948  20.139  0.00  0.00    +0.000 NA
ATOM     14  H   UNL     1       1.496  10.135  23.502  0.00  0.00    +0.000 HD
ATOM     15  H   UNL     1       2.392   6.648  20.855  0.00  0.00    +0.000 HD
ENDROOT
BRANCH   9  16
ATOM     16  C   UNL     1       2.902   6.214  18.303  0.00  0.00    +0.000 A 
ATOM     17  C   UNL     1       4.174   6.317  17.721  0.00  0.00    +0.000 A 
ATOM     18  C   UNL     1       4.716   5.245  17.012  0.00  0.00    +0.000 A 
ATOM     19  C   UNL     1       4.001   4.057  16.892  0.00  0.00    +0.000 A 
ATOM     20  C   UNL     1       2.757   3.927  17.508  0.00  0.00    +0.000 A 
ATOM     21  C   UNL     1       2.210   4.997  18.221  0.00  0.00    +0.000 A 
ENDBRANCH   9  16
BRANCH  13  22
ATOM     22  C   UNL     1      -1.408  12.031  19.198  0.00  0.00    +0.000 C 
BRANCH  22  23
ATOM     23  C   UNL     1      -2.587  11.822  18.264  0.00  0.00    +0.000 A 
ATOM     24  C   UNL     1      -3.888  12.033  18.759  0.00  0.00    +0.000 A 
ATOM     25  C   UNL     1      -5.012  11.720  17.991  0.00  0.00    +0.000 A 
ATOM     26  C   UNL     1      -4.854  11.176  16.719  0.00  0.00    +0.000 A 
ATOM     27  C   UNL     1      -3.572  10.966  16.215  0.00  0.00    +0.000 A 
ATOM     28 BR   UNL     1      -3.366  10.207  14.495  0.00  0.00    +0.000 Br
ATOM     29  C   UNL     1      -2.443  11.278  16.979  0.00  0.00    +0.000 A 
ENDBRANCH  22  23
ENDBRANCH  13  22
TORSDOF 3
ENDMDL
MODEL 2
REMARK VINA RESULT:      -8.2      3.721      6.636
REMARK  Name = 
REMARK  5 active torsions:
REMARK  status: ('A' for Active; 'I' for Inactive)
REMARK    1  A    between atoms: C_1  and  C_2
REMARK    2  A    between atoms: C_2  and  C_3
REMARK    3  A    between atoms: C_9  and  C_11
REMARK    4  A    between atoms: N_19  and  C_20
REMARK    5  A    between atoms: C_20  and  C_21
REMARK                            x       y       z     vdW  Elec       q    Type
REMARK                         _______ _______ _______ _____ _____    ______ ____
ROOT
ATOM      1  C   UNL     1       3.054   4.300  21.266  0.00  0.00    +0.000 C 
ATOM      2  C   UNL     1       2.117   4.456  20.055  0.00  0.00    +0.000 C 
ATOM      3  C   UNL     1       0.678   4.061  20.404  0.00  0.00    +0.000 C 
ATOM      4  C   UNL     1       2.621   3.623  18.958  0.00  0.00    +0.000 A 
ATOM      5  N   UNL     1       2.760   2.314  18.677  0.00  0.00    +0.000 N 
ATOM      6  N   UNL     1       3.302   2.121  17.450  0.00  0.00    +0.000 NA
ATOM      7  C   UNL     1       3.647   3.359  17.049  0.00  0.00    +0.000 A 
ATOM      8  N   UNL     1       4.365   3.503  15.893  0.00  0.00    +0.000 N 
ATOM      9  C   UNL     1       5.365   4.438  15.755  0.00  0.00    +0.000 C 
ATOM     10  O   UNL     1       5.719   5.226  16.629  0.00  0.00    +0.000 OA
ATOM     11  C   UNL     1       3.150   4.329  17.923  0.00  0.00    +0.000 A 
ATOM     12  C   UNL     1       2.992   5.775  18.143  0.00  0.00    +0.000 C 
ATOM     13  N   UNL     1       2.111   5.815  19.381  0.00  0.00    +0.000 NA
ATOM     14  H   UNL     1       2.523   1.502  19.235  0.00  0.00    +0.000 HD
ATOM     15  H   UNL     1       4.350   2.673  15.328  0.00  0.00    +0.000 HD
ENDROOT
BRANCH   9  16
ATOM     16  C   UNL     1       6.066   4.466  14.435  0.00  0.00    +0.000 A 
ATOM     17  C   UNL     1       5.567   3.630  13.425  0.00  0.00    +0.000 A 
ATOM     18  C   UNL     1       6.237   3.513  12.208  0.00  0.00    +0.000 A 
ATOM     19  C   UNL     1       7.402   4.240  11.983  0.00  0.00    +0.000 A 
ATOM     20  C   UNL     1       7.881   5.109  12.961  0.00  0.00    +0.000 A 
ATOM     21  C   UNL     1       7.212   5.232  14.182  0.00  0.00    +0.000 A 
ENDBRANCH   9  16
BRANCH  13  22
ATOM     22  C   UNL     1       2.444   6.931  20.268  0.00  0.00    +0.000 C 
BRANCH  22  23
ATOM     23  C   UNL     1       1.493   8.116  20.257  0.00  0.00    +0.000 A 
ATOM     24  C   UNL     1       1.396   8.894  19.088  0.00  0.00    +0.000 A 
ATOM     25  C   UNL     1       0.648  10.073  19.066  0.00  0.00    +0.000 A 
ATOM     26  C   UNL     1      -0.005  10.503  20.218  0.00  0.00    +0.000 A 
ATOM     27  C   UNL     1       0.080   9.740  21.381  0.00  0.00    +0.000 A 
ATOM     28 BR   UNL     1      -0.792  10.342  22.948  0.00  0.00    +0.000 Br
ATOM     29  C   UNL     1       0.827   8.558  21.409  0.00  0.00    +0.000 A 
ENDBRANCH  22  23
ENDBRANCH  13  22
TORSDOF 3
ENDMDL
MODEL 3
REMARK VINA RESULT:      -8.0      1.018      1.373
REMARK  Name = 
REMARK  5 active torsions:
REMARK  status: ('A' for Active; 'I' for Inactive)
REMARK    1  A    between atoms: C_1  and  C_2
REMARK    2  A    between atoms: C_2  and  C_3
REMARK    3  A    between atoms: C_9  and  C_11
REMARK    4  A    between atoms: N_19  and  C_20
REMARK    5  A    between atoms: C_20  and  C_21
REMARK                            x       y       z     vdW  Elec       q    Type
REMARK                         _______ _______ _______ _____ _____    ______ ____
ROOT
ATOM      1  C   UNL     1       0.478  12.628  21.141  0.00  0.00    +0.000 C 
ATOM      2  C   UNL     1      -0.389  11.374  21.360  0.00  0.00    +0.000 C 
ATOM      3  C   UNL     1      -1.353  11.557  22.537  0.00  0.00    +0.000 C 
ATOM      4  C   UNL     1       0.494  10.227  21.599  0.00  0.00    +0.000 A 
ATOM      5  N   UNL     1       1.346   9.799  22.549  0.00  0.00    +0.000 N 
ATOM      6  N   UNL     1       1.898   8.605  22.225  0.00  0.00    +0.000 NA
ATOM      7  C   UNL     1       1.483   8.388  20.962  0.00  0.00    +0.000 A 
ATOM      8  N   UNL     1       1.991   7.320  20.274  0.00  0.00    +0.000 N 
ATOM      9  C   UNL     1       2.289   7.377  18.932  0.00  0.00    +0.000 C 
ATOM     10  O   UNL     1       2.140   8.367  18.219  0.00  0.00    +0.000 OA
ATOM     11  C   UNL     1       0.529   9.332  20.575  0.00  0.00    +0.000 A 
ATOM     12  C   UNL     1      -0.417   9.714  19.515  0.00  0.00    +0.000 C 
ATOM     13  N   UNL     1      -1.162  10.874  20.155  0.00  0.00    +0.000 NA
ATOM     14  H   UNL     1       1.610  10.233  23.426  0.00  0.00    +0.000 HD
ATOM     15  H   UNL     1       2.445   6.657  20.879  0.00  0.00    +0.000 HD
ENDROOT
BRANCH   9  16
ATOM     16  C   UNL     1       2.847   6.130  18.326  0.00  0.00    +0.000 A 
ATOM     17  C   UNL     1       4.148   6.195  17.804  0.00  0.00    +0.000 A 
ATOM     18  C   UNL     1       4.690   5.109  17.119  0.00  0.00    +0.000 A 
ATOM     19  C   UNL     1       3.946   3.944  16.961  0.00  0.00    +0.000 A 
ATOM     20  C   UNL     1       2.670   3.851  17.516  0.00  0.00    +0.000 A 
ATOM     21  C   UNL     1       2.123   4.936  18.206  0.00  0.00    +0.000 A 
ENDBRANCH   9  16
BRANCH  13  22
ATOM     22  C   UNL     1      -1.513  11.915  19.187  0.00  0.00    +0.000 C 
BRANCH  22  23
ATOM     23  C   UNL     1      -2.636  11.590  18.216  0.00  0.00    +0.000 A 
ATOM     24  C   UNL     1      -2.307  11.276  16.884  0.00  0.00    +0.000 A 
ATOM     25  C   UNL     1      -3.301  11.108  15.916  0.00  0.00    +0.000 A 
ATOM     26  C   UNL     1      -4.641  11.265  16.262  0.00  0.00    +0.000 A 
ATOM     27  C   UNL     1      -4.979  11.571  17.578  0.00  0.00    +0.000 A 
ATOM     28 BR   UNL     1      -6.800  11.803  18.035  0.00  0.00    +0.000 Br
ATOM     29  C   UNL     1      -3.989  11.740  18.551  0.00  0.00    +0.000 A 
ENDBRANCH  22  23
ENDBRANCH  13  22
TORSDOF 3
ENDMDL
MODEL 4
REMARK VINA RESULT:      -8.0      3.558      8.598
REMARK  Name = 
REMARK  5 active torsions:
REMARK  status: ('A' for Active; 'I' for Inactive)
REMARK    1  A    between atoms: C_1  and  C_2
REMARK    2  A    between atoms: C_2  and  C_3
REMARK    3  A    between atoms: C_9  and  C_11
REMARK    4  A    between atoms: N_19  and  C_20
REMARK    5  A    between atoms: C_20  and  C_21
REMARK                            x       y       z     vdW  Elec       q    Type
REMARK                         _______ _______ _______ _____ _____    ______ ____
ROOT
ATOM      1  C   UNL     1       1.478   3.270  18.429  0.00  0.00    +0.000 C 
ATOM      2  C   UNL     1       2.670   4.004  19.070  0.00  0.00    +0.000 C 
ATOM      3  C   UNL     1       3.460   3.083  20.005  0.00  0.00    +0.000 C 
ATOM      4  C   UNL     1       2.165   5.167  19.809  0.00  0.00    +0.000 A 
ATOM      5  N   UNL     1       1.428   5.412  20.908  0.00  0.00    +0.000 N 
ATOM      6  N   UNL     1       1.285   6.742  21.128  0.00  0.00    +0.000 NA
ATOM      7  C   UNL     1       1.822   7.311  20.032  0.00  0.00    +0.000 A 
ATOM      8  N   UNL     1       1.705   8.664  19.867  0.00  0.00    +0.000 N 
ATOM      9  C   UNL     1       1.485   9.244  18.638  0.00  0.00    +0.000 C 
ATOM     10  O   UNL     1       1.369   8.630  17.580  0.00  0.00    +0.000 OA
ATOM     11  C   UNL     1       2.465   6.362  19.234  0.00  0.00    +0.000 A 
ATOM     12  C   UNL     1       3.312   6.172  18.046  0.00  0.00    +0.000 C 
ATOM     13  N   UNL     1       3.630   4.687  18.115  0.00  0.00    +0.000 NA
ATOM     14  H   UNL     1       0.992   4.764  21.554  0.00  0.00    +0.000 HD
ATOM     15  H   UNL     1       1.439   9.131  20.716  0.00  0.00    +0.000 HD
ENDROOT
BRANCH   9  16
ATOM     16  C   UNL     1       1.370  10.734  18.622  0.00  0.00    +0.000 A 
ATOM     17  C   UNL     1       0.150  11.289  19.033  0.00  0.00    +0.000 A 
ATOM     18  C   UNL     1      -0.073  12.662  18.933  0.00  0.00    +0.000 A 
ATOM     19  C   UNL     1       0.925  13.494  18.436  0.00  0.00    +0.000 A 
ATOM     20  C   UNL     1       2.160  12.960  18.069  0.00  0.00    +0.000 A 
ATOM     21  C   UNL     1       2.389  11.585  18.170  0.00  0.00    +0.000 A 
ENDBRANCH   9  16
BRANCH  13  22
ATOM     22  C   UNL     1       3.706   4.070  16.789  0.00  0.00    +0.000 C 
BRANCH  22  23
ATOM     23  C   UNL     1       5.022   4.218  16.045  0.00  0.00    +0.000 A 
ATOM     24  C   UNL     1       6.081   4.900  16.673  0.00  0.00    +0.000 A 
ATOM     25  C   UNL     1       7.262   5.189  15.985  0.00  0.00    +0.000 A 
ATOM     26  C   UNL     1       7.399   4.813  14.651  0.00  0.00    +0.000 A 
ATOM     27  C   UNL     1       6.359   4.133  14.019  0.00  0.00    +0.000 A 
ATOM     28 BR   UNL     1       6.544   3.644  12.201  0.00  0.00    +0.000 Br
ATOM     29  C   UNL     1       5.175   3.840  14.703  0.00  0.00    +0.000 A 
ENDBRANCH  22  23
ENDBRANCH  13  22
TORSDOF 3
ENDMDL
MODEL 5
REMARK VINA RESULT:      -7.7      3.425      8.409
REMARK  Name = 
REMARK  5 active torsions:
REMARK  status: ('A' for Active; 'I' for Inactive)
REMARK    1  A    between atoms: C_1  and  C_2
REMARK    2  A    between atoms: C_2  and  C_3
REMARK    3  A    between atoms: C_9  and  C_11
REMARK    4  A    between atoms: N_19  and  C_20
REMARK    5  A    between atoms: C_20  and  C_21
REMARK                            x       y       z     vdW  Elec       q    Type
REMARK                         _______ _______ _______ _____ _____    ______ ____
ROOT
ATOM      1  C   UNL     1       1.385   3.932  18.860  0.00  0.00    +0.000 C 
ATOM      2  C   UNL     1       2.580   4.736  19.402  0.00  0.00    +0.000 C 
ATOM      3  C   UNL     1       3.434   3.898  20.357  0.00  0.00    +0.000 C 
ATOM      4  C   UNL     1       2.073   5.930  20.087  0.00  0.00    +0.000 A 
ATOM      5  N   UNL     1       1.375   6.226  21.199  0.00  0.00    +0.000 N 
ATOM      6  N   UNL     1       1.203   7.562  21.342  0.00  0.00    +0.000 NA
ATOM      7  C   UNL     1       1.677   8.075  20.191  0.00  0.00    +0.000 A 
ATOM      8  N   UNL     1       1.514   9.411  19.946  0.00  0.00    +0.000 N 
ATOM      9  C   UNL     1       1.227   9.905  18.694  0.00  0.00    +0.000 C 
ATOM     10  O   UNL     1       1.085   9.222  17.682  0.00  0.00    +0.000 OA
ATOM     11  C   UNL     1       2.314   7.094  19.427  0.00  0.00    +0.000 A 
ATOM     12  C   UNL     1       3.116   6.851  18.217  0.00  0.00    +0.000 C 
ATOM     13  N   UNL     1       3.479   5.383  18.365  0.00  0.00    +0.000 NA
ATOM     14  H   UNL     1       0.985   5.609  21.903  0.00  0.00    +0.000 HD
ATOM     15  H   UNL     1       1.270   9.924  20.774  0.00  0.00    +0.000 HD
ENDROOT
BRANCH   9  16
ATOM     16  C   UNL     1       1.068  11.387  18.589  0.00  0.00    +0.000 A 
ATOM     17  C   UNL     1       2.239  12.157  18.534  0.00  0.00    +0.000 A 
ATOM     18  C   UNL     1       2.172  13.550  18.556  0.00  0.00    +0.000 A 
ATOM     19  C   UNL     1       0.935  14.186  18.617  0.00  0.00    +0.000 A 
ATOM     20  C   UNL     1      -0.237  13.431  18.624  0.00  0.00    +0.000 A 
ATOM     21  C   UNL     1      -0.175  12.036  18.601  0.00  0.00    +0.000 A 
ENDBRANCH   9  16
BRANCH  13  22
ATOM     22  C   UNL     1       3.519   4.684  17.079  0.00  0.00    +0.000 C 
BRANCH  22  23
ATOM     23  C   UNL     1       4.868   4.614  16.384  0.00  0.00    +0.000 A 
ATOM     24  C   UNL     1       5.998   5.129  17.047  0.00  0.00    +0.000 A 
ATOM     25  C   UNL     1       7.234   5.220  16.402  0.00  0.00    +0.000 A 
ATOM     26  C   UNL     1       7.358   4.810  15.078  0.00  0.00    +0.000 A 
ATOM     27  C   UNL     1       6.248   4.294  14.411  0.00  0.00    +0.000 A 
ATOM     28 BR   UNL     1       6.420   3.759  12.605  0.00  0.00    +0.000 Br
ATOM     29  C   UNL     1       5.008   4.200  15.052  0.00  0.00    +0.000 A 
ENDBRANCH  22  23
ENDBRANCH  13  22
TORSDOF 3
ENDMDL
MODEL 6
REMARK VINA RESULT:      -7.7      3.425      6.336
REMARK  Name = 
REMARK  5 active torsions:
REMARK  status: ('A' for Active; 'I' for Inactive)
REMARK    1  A    between atoms: C_1  and  C_2
REMARK    2  A    between atoms: C_2  and  C_3
REMARK    3  A    between atoms: C_9  and  C_11
REMARK    4  A    between atoms: N_19  and  C_20
REMARK    5  A    between atoms: C_20  and  C_21
REMARK                            x       y       z     vdW  Elec       q    Type
REMARK                         _______ _______ _______ _____ _____    ______ ____
ROOT
ATOM      1  C   UNL     1       2.969   4.530  21.208  0.00  0.00    +0.000 C 
ATOM      2  C   UNL     1       2.066   4.724  19.976  0.00  0.00    +0.000 C 
ATOM      3  C   UNL     1       0.596   4.448  20.308  0.00  0.00    +0.000 C 
ATOM      4  C   UNL     1       2.524   3.828  18.910  0.00  0.00    +0.000 A 
ATOM      5  N   UNL     1       2.568   2.505  18.663  0.00  0.00    +0.000 N 
ATOM      6  N   UNL     1       3.115   2.240  17.452  0.00  0.00    +0.000 NA
ATOM      7  C   UNL     1       3.559   3.438  17.027  0.00  0.00    +0.000 A 
ATOM      8  N   UNL     1       4.306   3.498  15.882  0.00  0.00    +0.000 N 
ATOM      9  C   UNL     1       5.376   4.351  15.740  0.00  0.00    +0.000 C 
ATOM     10  O   UNL     1       5.774   5.132  16.601  0.00  0.00    +0.000 OA
ATOM     11  C   UNL     1       3.123   4.465  17.868  0.00  0.00    +0.000 A 
ATOM     12  C   UNL     1       3.071   5.924  18.049  0.00  0.00    +0.000 C 
ATOM     13  N   UNL     1       2.175   6.062  19.269  0.00  0.00    +0.000 NA
ATOM     14  H   UNL     1       2.261   1.728  19.237  0.00  0.00    +0.000 HD
ATOM     15  H   UNL     1       4.237   2.657  15.338  0.00  0.00    +0.000 HD
ENDROOT
BRANCH   9  16
ATOM     16  C   UNL     1       6.099   4.292  14.433  0.00  0.00    +0.000 A 
ATOM     17  C   UNL     1       7.199   5.145  14.267  0.00  0.00    +0.000 A 
ATOM     18  C   UNL     1       7.849   5.231  13.036  0.00  0.00    +0.000 A 
ATOM     19  C   UNL     1       7.416   4.455  11.965  0.00  0.00    +0.000 A 
ATOM     20  C   UNL     1       6.353   3.568  12.132  0.00  0.00    +0.000 A 
ATOM     21  C   UNL     1       5.701   3.477  13.364  0.00  0.00    +0.000 A 
ENDBRANCH   9  16
BRANCH  13  22
ATOM     22  C   UNL     1       2.577   7.173  20.135  0.00  0.00    +0.000 C 
BRANCH  22  23
ATOM     23  C   UNL     1       1.511   8.209  20.449  0.00  0.00    +0.000 A 
ATOM     24  C   UNL     1       0.790   8.095  21.652  0.00  0.00    +0.000 A 
ATOM     25  C   UNL     1      -0.294   8.933  21.927  0.00  0.00    +0.000 A 
ATOM     26  C   UNL     1      -0.683   9.892  20.995  0.00  0.00    +0.000 A 
ATOM     27  C   UNL     1       0.025  10.019  19.802  0.00  0.00    +0.000 A 
ATOM     28 BR   UNL     1      -0.523  11.310  18.533  0.00  0.00    +0.000 Br
ATOM     29  C   UNL     1       1.111   9.183  19.522  0.00  0.00    +0.000 A 
ENDBRANCH  22  23
ENDBRANCH  13  22
TORSDOF 3
ENDMDL
MODEL 7
REMARK VINA RESULT:      -7.6      2.031      3.389
REMARK  Name = 
REMARK  5 active torsions:
REMARK  status: ('A' for Active; 'I' for Inactive)
REMARK    1  A    between atoms: C_1  and  C_2
REMARK    2  A    between atoms: C_2  and  C_3
REMARK    3  A    between atoms: C_9  and  C_11
REMARK    4  A    between atoms: N_19  and  C_20
REMARK    5  A    between atoms: C_20  and  C_21
REMARK                            x       y       z     vdW  Elec       q    Type
REMARK                         _______ _______ _______ _____ _____    ______ ____
ROOT
ATOM      1  C   UNL     1       1.874   9.261  21.955  0.00  0.00    +0.000 C 
ATOM      2  C   UNL     1       1.007   8.491  20.942  0.00  0.00    +0.000 C 
ATOM      3  C   UNL     1      -0.395   8.220  21.495  0.00  0.00    +0.000 C 
ATOM      4  C   UNL     1       1.677   7.228  20.612  0.00  0.00    +0.000 A 
ATOM      5  N   UNL     1       1.986   6.069  21.222  0.00  0.00    +0.000 N 
ATOM      6  N   UNL     1       2.627   5.218  20.385  0.00  0.00    +0.000 NA
ATOM      7  C   UNL     1       2.851   5.956  19.281  0.00  0.00    +0.000 A 
ATOM      8  N   UNL     1       3.623   5.431  18.281  0.00  0.00    +0.000 N 
ATOM      9  C   UNL     1       4.515   6.191  17.558  0.00  0.00    +0.000 C 
ATOM     10  O   UNL     1       4.716   7.391  17.725  0.00  0.00    +0.000 OA
ATOM     11  C   UNL     1       2.188   7.184  19.353  0.00  0.00    +0.000 A 
ATOM     12  C   UNL     1       1.848   8.406  18.608  0.00  0.00    +0.000 C 
ATOM     13  N   UNL     1       0.889   9.103  19.559  0.00  0.00    +0.000 NA
ATOM     14  H   UNL     1       1.808   5.770  22.175  0.00  0.00    +0.000 HD
ATOM     15  H   UNL     1       3.742   4.438  18.372  0.00  0.00    +0.000 HD
ENDROOT
BRANCH   9  16
ATOM     16  C   UNL     1       5.293   5.470  16.505  0.00  0.00    +0.000 A 
ATOM     17  C   UNL     1       6.648   5.804  16.366  0.00  0.00    +0.000 A 
ATOM     18  C   UNL     1       7.408   5.261  15.330  0.00  0.00    +0.000 A 
ATOM     19  C   UNL     1       6.826   4.370  14.434  0.00  0.00    +0.000 A 
ATOM     20  C   UNL     1       5.493   3.995  14.590  0.00  0.00    +0.000 A 
ATOM     21  C   UNL     1       4.728   4.534  15.628  0.00  0.00    +0.000 A 
ENDBRANCH   9  16
BRANCH  13  22
ATOM     22  C   UNL     1       1.030  10.560  19.528  0.00  0.00    +0.000 C 
BRANCH  22  23
ATOM     23  C   UNL     1      -0.254  11.369  19.612  0.00  0.00    +0.000 A 
ATOM     24  C   UNL     1      -0.410  12.280  20.673  0.00  0.00    +0.000 A 
ATOM     25  C   UNL     1      -1.622  12.945  20.881  0.00  0.00    +0.000 A 
ATOM     26  C   UNL     1      -2.702  12.699  20.038  0.00  0.00    +0.000 A 
ATOM     27  C   UNL     1      -2.559  11.803  18.980  0.00  0.00    +0.000 A 
ATOM     28 BR   UNL     1      -4.037  11.458  17.852  0.00  0.00    +0.000 Br
ATOM     29  C   UNL     1      -1.348  11.135  18.767  0.00  0.00    +0.000 A 
ENDBRANCH  22  23
ENDBRANCH  13  22
TORSDOF 3
ENDMDL
MODEL 8
REMARK VINA RESULT:      -7.5      1.425      2.027
REMARK  Name = 
REMARK  5 active torsions:
REMARK  status: ('A' for Active; 'I' for Inactive)
REMARK    1  A    between atoms: C_1  and  C_2
REMARK    2  A    between atoms: C_2  and  C_3
REMARK    3  A    between atoms: C_9  and  C_11
REMARK    4  A    between atoms: N_19  and  C_20
REMARK    5  A    between atoms: C_20  and  C_21
REMARK                            x       y       z     vdW  Elec       q    Type
REMARK                         _______ _______ _______ _____ _____    ______ ____
ROOT
ATOM      1  C   UNL     1       0.328  12.577  21.595  0.00  0.00    +0.000 C 
ATOM      2  C   UNL     1      -0.503  11.283  21.655  0.00  0.00    +0.000 C 
ATOM      3  C   UNL     1      -1.487  11.302  22.829  0.00  0.00    +0.000 C 
ATOM      4  C   UNL     1       0.409  10.141  21.774  0.00  0.00    +0.000 A 
ATOM      5  N   UNL     1       1.262   9.630  22.681  0.00  0.00    +0.000 N 
ATOM      6  N   UNL     1       1.853   8.497  22.231  0.00  0.00    +0.000 NA
ATOM      7  C   UNL     1       1.461   8.416  20.945  0.00  0.00    +0.000 A 
ATOM      8  N   UNL     1       2.008   7.449  20.147  0.00  0.00    +0.000 N 
ATOM      9  C   UNL     1       2.321   7.670  18.825  0.00  0.00    +0.000 C 
ATOM     10  O   UNL     1       2.152   8.730  18.229  0.00  0.00    +0.000 OA
ATOM     11  C   UNL     1       0.484   9.372  20.655  0.00  0.00    +0.000 A 
ATOM     12  C   UNL     1      -0.459   9.848  19.631  0.00  0.00    +0.000 C 
ATOM     13  N   UNL     1      -1.246  10.904  20.388  0.00  0.00    +0.000 NA
ATOM     14  H   UNL     1       1.502   9.968  23.607  0.00  0.00    +0.000 HD
ATOM     15  H   UNL     1       2.474   6.735  20.678  0.00  0.00    +0.000 HD
ENDROOT
BRANCH   9  16
ATOM     16  C   UNL     1       2.924   6.517  18.088  0.00  0.00    +0.000 A 
ATOM     17  C   UNL     1       2.243   5.292  18.144  0.00  0.00    +0.000 A 
ATOM     18  C   UNL     1       2.803   4.146  17.582  0.00  0.00    +0.000 A 
ATOM     19  C   UNL     1       4.040   4.215  16.947  0.00  0.00    +0.000 A 
ATOM     20  C   UNL     1       4.703   5.437  16.844  0.00  0.00    +0.000 A 
ATOM     21  C   UNL     1       4.145   6.589  17.403  0.00  0.00    +0.000 A 
ENDBRANCH   9  16
BRANCH  13  22
ATOM     22  C   UNL     1      -1.616  12.040  19.541  0.00  0.00    +0.000 C 
BRANCH  22  23
ATOM     23  C   UNL     1      -3.053  12.523  19.641  0.00  0.00    +0.000 A 
ATOM     24  C   UNL     1      -3.372  13.502  20.601  0.00  0.00    +0.000 A 
ATOM     25  C   UNL     1      -4.697  13.879  20.834  0.00  0.00    +0.000 A 
ATOM     26  C   UNL     1      -5.728  13.274  20.120  0.00  0.00    +0.000 A 
ATOM     27  C   UNL     1      -5.425  12.307  19.163  0.00  0.00    +0.000 A 
ATOM     28 BR   UNL     1      -6.832  11.474  18.212  0.00  0.00    +0.000 Br
ATOM     29  C   UNL     1      -4.101  11.925  18.925  0.00  0.00    +0.000 A 
ENDBRANCH  22  23
ENDBRANCH  13  22
TORSDOF 3
ENDMDL
MODEL 9
REMARK VINA RESULT:      -7.3      1.959      2.400
REMARK  Name = 
REMARK  5 active torsions:
REMARK  status: ('A' for Active; 'I' for Inactive)
REMARK    1  A    between atoms: C_1  and  C_2
REMARK    2  A    between atoms: C_2  and  C_3
REMARK    3  A    between atoms: C_9  and  C_11
REMARK    4  A    between atoms: N_19  and  C_20
REMARK    5  A    between atoms: C_20  and  C_21
REMARK                            x       y       z     vdW  Elec       q    Type
REMARK                         _______ _______ _______ _____ _____    ______ ____
ROOT
ATOM      1  C   UNL     1      -0.960  13.394  19.732  0.00  0.00    +0.000 C 
ATOM      2  C   UNL     1      -1.498  12.079  20.324  0.00  0.00    +0.000 C 
ATOM      3  C   UNL     1      -2.396  12.335  21.538  0.00  0.00    +0.000 C 
ATOM      4  C   UNL     1      -0.362  11.232  20.701  0.00  0.00    +0.000 A 
ATOM      5  N   UNL     1       0.629  11.232  21.612  0.00  0.00    +0.000 N 
ATOM      6  N   UNL     1       1.417  10.136  21.494  0.00  0.00    +0.000 NA
ATOM      7  C   UNL     1       0.978   9.540  20.369  0.00  0.00    +0.000 A 
ATOM      8  N   UNL     1       1.670   8.467  19.877  0.00  0.00    +0.000 N 
ATOM      9  C   UNL     1       1.854   8.260  18.529  0.00  0.00    +0.000 C 
ATOM     10  O   UNL     1       1.434   8.996  17.640  0.00  0.00    +0.000 OA
ATOM     11  C   UNL     1      -0.191  10.145  19.902  0.00  0.00    +0.000 A 
ATOM     12  C   UNL     1      -1.270  10.055  18.905  0.00  0.00    +0.000 C 
ATOM     13  N   UNL     1      -2.216  11.154  19.359  0.00  0.00    +0.000 NA
ATOM     14  H   UNL     1       0.845  11.909  22.334  0.00  0.00    +0.000 HD
ATOM     15  H   UNL     1       2.304   8.079  20.553  0.00  0.00    +0.000 HD
ENDROOT
BRANCH   9  16
ATOM     16  C   UNL     1       2.642   7.048  18.149  0.00  0.00    +0.000 A 
ATOM     17  C   UNL     1       3.869   7.255  17.503  0.00  0.00    +0.000 A 
ATOM     18  C   UNL     1       4.602   6.175  17.013  0.00  0.00    +0.000 A 
ATOM     19  C   UNL     1       4.124   4.878  17.177  0.00  0.00    +0.000 A 
ATOM     20  C   UNL     1       2.929   4.657  17.860  0.00  0.00    +0.000 A 
ATOM     21  C   UNL     1       2.192   5.736  18.355  0.00  0.00    +0.000 A 
ENDBRANCH   9  16
BRANCH  13  22
ATOM     22  C   UNL     1      -2.863  11.835  18.236  0.00  0.00    +0.000 C 
BRANCH  22  23
ATOM     23  C   UNL     1      -4.381  11.895  18.260  0.00  0.00    +0.000 A 
ATOM     24  C   UNL     1      -5.069  12.091  17.048  0.00  0.00    +0.000 A 
ATOM     25  C   UNL     1      -6.451  12.296  17.028  0.00  0.00    +0.000 A 
ATOM     26  C   UNL     1      -7.167  12.321  18.222  0.00  0.00    +0.000 A 
ATOM     27  C   UNL     1      -6.498  12.124  19.428  0.00  0.00    +0.000 A 
ATOM     28 BR   UNL     1      -7.474  12.180  21.047  0.00  0.00    +0.000 Br
ATOM     29  C   UNL     1      -5.115  11.918  19.455  0.00  0.00    +0.000 A 
ENDBRANCH  22  23
ENDBRANCH  13  22
TORSDOF 3
ENDMDL
