MODEL 1
REMARK VINA RESULT:      -7.9      0.000      0.000
REMARK  Name = 
REMARK  5 active torsions:
REMARK  status: ('A' for Active; 'I' for Inactive)
REMARK    1  A    between atoms: C_6  and  C_7
REMARK    2  A    between atoms: C_7  and  S_8
REMARK    3  A    between atoms: S_8  and  C_9
REMARK    4  A    between atoms: C_9  and  C_10
REMARK    5  A    between atoms: C_13  and  C_14
REMARK                            x       y       z     vdW  Elec       q    Type
REMARK                         _______ _______ _______ _____ _____    ______ ____
ROOT
ATOM      1  C   UNL     1       6.535   5.687  19.179  0.00  0.00    +0.000 C 
ENDROOT
BRANCH   1   7
ATOM      2  C   UNL     1       4.151   6.073  18.427  0.00  0.00    +0.000 A 
ATOM      3  C   UNL     1       2.830   5.650  18.255  0.00  0.00    +0.000 A 
ATOM      4  C   UNL     1       2.450   4.375  18.664  0.00  0.00    +0.000 A 
ATOM      5  C   UNL     1       3.395   3.511  19.225  0.00  0.00    +0.000 A 
ATOM      6  C   UNL     1       4.711   3.939  19.412  0.00  0.00    +0.000 A 
ATOM      7  C   UNL     1       5.108   5.222  19.001  0.00  0.00    +0.000 A 
ATOM      8  O   UNL     1       3.098   2.231  19.622  0.00  0.00    +0.000 OA
ATOM      9  C   UNL     1       1.855   1.790  19.064  0.00  0.00    +0.000 C 
ATOM     10  C   UNL     1       0.787   2.859  19.213  0.00  0.00    +0.000 C 
ATOM     11  O   UNL     1       1.136   4.032  18.470  0.00  0.00    +0.000 OA
ENDBRANCH   1   7
BRANCH   1  12
ATOM     12  S   UNL     1       7.295   6.113  17.580  0.00  0.00    +0.000 S 
BRANCH  12  13
ATOM     13  C   UNL     1       7.132   4.506  16.729  0.00  0.00    +0.000 C 
BRANCH  13  14
ATOM     14  C   UNL     1       7.101   4.617  15.246  0.00  0.00    +0.000 A 
ATOM     15  N   UNL     1       7.807   5.547  14.591  0.00  0.00    +0.000 NA
ATOM     16  O   UNL     1       7.524   5.285  13.255  0.00  0.00    +0.000 OA
ATOM     17  C   UNL     1       6.675   4.212  13.229  0.00  0.00    +0.000 A 
ATOM     18  N   UNL     1       6.391   3.757  14.431  0.00  0.00    +0.000 NA
BRANCH  17  19
ATOM     19  C   UNL     1       6.137   3.661  11.914  0.00  0.00    +0.000 C 
ATOM     20  C   UNL     1       5.628   2.237  11.824  0.00  0.00    +0.000 C 
ATOM     21  C   UNL     1       4.655   3.366  11.804  0.00  0.00    +0.000 C 
ENDBRANCH  17  19
ENDBRANCH  13  14
ENDBRANCH  12  13
ENDBRANCH   1  12
TORSDOF 5
ENDMDL
MODEL 2
REMARK VINA RESULT:      -7.5      1.229      1.528
REMARK  Name = 
REMARK  5 active torsions:
REMARK  status: ('A' for Active; 'I' for Inactive)
REMARK    1  A    between atoms: C_6  and  C_7
REMARK    2  A    between atoms: C_7  and  S_8
REMARK    3  A    between atoms: S_8  and  C_9
REMARK    4  A    between atoms: C_9  and  C_10
REMARK    5  A    between atoms: C_13  and  C_14
REMARK                            x       y       z     vdW  Elec       q    Type
REMARK                         _______ _______ _______ _____ _____    ______ ____
ROOT
ATOM      1  C   UNL     1       4.511   5.809  16.926  0.00  0.00    +0.000 C 
ENDROOT
BRANCH   1   7
ATOM      2  C   UNL     1       2.244   4.790  17.392  0.00  0.00    +0.000 A 
ATOM      3  C   UNL     1       1.364   4.056  18.194  0.00  0.00    +0.000 A 
ATOM      4  C   UNL     1       1.796   3.550  19.416  0.00  0.00    +0.000 A 
ATOM      5  C   UNL     1       3.115   3.757  19.831  0.00  0.00    +0.000 A 
ATOM      6  C   UNL     1       3.989   4.503  19.038  0.00  0.00    +0.000 A 
ATOM      7  C   UNL     1       3.567   5.017  17.801  0.00  0.00    +0.000 A 
ATOM      8  O   UNL     1       3.617   3.261  21.008  0.00  0.00    +0.000 OA
ATOM      9  C   UNL     1       2.770   2.239  21.544  0.00  0.00    +0.000 C 
ATOM     10  C   UNL     1       1.314   2.666  21.502  0.00  0.00    +0.000 C 
ATOM     11  O   UNL     1       0.876   2.846  20.150  0.00  0.00    +0.000 OA
ENDBRANCH   1   7
BRANCH   1  12
ATOM     12  S   UNL     1       6.182   5.875  17.646  0.00  0.00    +0.000 S 
BRANCH  12  13
ATOM     13  C   UNL     1       6.932   4.438  16.805  0.00  0.00    +0.000 C 
BRANCH  13  14
ATOM     14  C   UNL     1       6.979   4.572  15.325  0.00  0.00    +0.000 A 
ATOM     15  N   UNL     1       7.744   5.489  14.720  0.00  0.00    +0.000 NA
ATOM     16  O   UNL     1       7.521   5.256  13.368  0.00  0.00    +0.000 OA
ATOM     17  C   UNL     1       6.642   4.211  13.283  0.00  0.00    +0.000 A 
ATOM     18  N   UNL     1       6.284   3.747  14.462  0.00  0.00    +0.000 NA
BRANCH  17  19
ATOM     19  C   UNL     1       6.153   3.696  11.934  0.00  0.00    +0.000 C 
ATOM     20  C   UNL     1       5.768   2.243  11.755  0.00  0.00    +0.000 C 
ATOM     21  C   UNL     1       4.702   3.283  11.798  0.00  0.00    +0.000 C 
ENDBRANCH  17  19
ENDBRANCH  13  14
ENDBRANCH  12  13
ENDBRANCH   1  12
TORSDOF 5
ENDMDL
MODEL 3
REMARK VINA RESULT:      -7.4      0.939      1.096
REMARK  Name = 
REMARK  5 active torsions:
REMARK  status: ('A' for Active; 'I' for Inactive)
REMARK    1  A    between atoms: C_6  and  C_7
REMARK    2  A    between atoms: C_7  and  S_8
REMARK    3  A    between atoms: S_8  and  C_9
REMARK    4  A    between atoms: C_9  and  C_10
REMARK    5  A    between atoms: C_13  and  C_14
REMARK                            x       y       z     vdW  Elec       q    Type
REMARK                         _______ _______ _______ _____ _____    ______ ____
ROOT
ATOM      1  C   UNL     1       6.571   5.607  19.336  0.00  0.00    +0.000 C 
ENDROOT
BRANCH   1   7
ATOM      2  C   UNL     1       4.207   6.077  18.570  0.00  0.00    +0.000 A 
ATOM      3  C   UNL     1       2.896   5.672  18.299  0.00  0.00    +0.000 A 
ATOM      4  C   UNL     1       2.517   4.351  18.518  0.00  0.00    +0.000 A 
ATOM      5  C   UNL     1       3.454   3.425  18.985  0.00  0.00    +0.000 A 
ATOM      6  C   UNL     1       4.759   3.831  19.270  0.00  0.00    +0.000 A 
ATOM      7  C   UNL     1       5.155   5.161  19.051  0.00  0.00    +0.000 A 
ATOM      8  O   UNL     1       3.160   2.100  19.194  0.00  0.00    +0.000 OA
ATOM      9  C   UNL     1       1.939   1.732  18.542  0.00  0.00    +0.000 C 
ATOM     10  C   UNL     1       0.855   2.763  18.802  0.00  0.00    +0.000 C 
ATOM     11  O   UNL     1       1.214   4.029  18.237  0.00  0.00    +0.000 OA
ENDBRANCH   1   7
BRANCH   1  12
ATOM     12  S   UNL     1       7.740   4.906  18.130  0.00  0.00    +0.000 S 
BRANCH  12  13
ATOM     13  C   UNL     1       7.152   5.740  16.616  0.00  0.00    +0.000 C 
BRANCH  13  14
ATOM     14  C   UNL     1       6.686   4.802  15.561  0.00  0.00    +0.000 A 
ATOM     15  N   UNL     1       5.993   3.695  15.854  0.00  0.00    +0.000 NA
ATOM     16  O   UNL     1       5.736   3.135  14.607  0.00  0.00    +0.000 OA
ATOM     17  C   UNL     1       6.296   3.965  13.674  0.00  0.00    +0.000 A 
ATOM     18  N   UNL     1       6.886   5.012  14.210  0.00  0.00    +0.000 NA
BRANCH  17  19
ATOM     19  C   UNL     1       6.224   3.643  12.186  0.00  0.00    +0.000 C 
ATOM     20  C   UNL     1       5.890   2.244  11.713  0.00  0.00    +0.000 C 
ATOM     21  C   UNL     1       4.874   3.326  11.577  0.00  0.00    +0.000 C 
ENDBRANCH  17  19
ENDBRANCH  13  14
ENDBRANCH  12  13
ENDBRANCH   1  12
TORSDOF 5
ENDMDL
MODEL 4
REMARK VINA RESULT:      -7.3      1.206      1.344
REMARK  Name = 
REMARK  5 active torsions:
REMARK  status: ('A' for Active; 'I' for Inactive)
REMARK    1  A    between atoms: C_6  and  C_7
REMARK    2  A    between atoms: C_7  and  S_8
REMARK    3  A    between atoms: S_8  and  C_9
REMARK    4  A    between atoms: C_9  and  C_10
REMARK    5  A    between atoms: C_13  and  C_14
REMARK                            x       y       z     vdW  Elec       q    Type
REMARK                         _______ _______ _______ _____ _____    ______ ____
ROOT
ATOM      1  C   UNL     1       4.872   6.653  16.870  0.00  0.00    +0.000 C 
ENDROOT
BRANCH   1   7
ATOM      2  C   UNL     1       3.240   6.710  18.800  0.00  0.00    +0.000 A 
ATOM      3  C   UNL     1       2.283   6.109  19.624  0.00  0.00    +0.000 A 
ATOM      4  C   UNL     1       1.927   4.779  19.418  0.00  0.00    +0.000 A 
ATOM      5  C   UNL     1       2.509   4.054  18.374  0.00  0.00    +0.000 A 
ATOM      6  C   UNL     1       3.476   4.650  17.562  0.00  0.00    +0.000 A 
ATOM      7  C   UNL     1       3.842   5.991  17.756  0.00  0.00    +0.000 A 
ATOM      8  O   UNL     1       2.183   2.751  18.094  0.00  0.00    +0.000 OA
ATOM      9  C   UNL     1       0.960   2.372  18.734  0.00  0.00    +0.000 C 
ATOM     10  C   UNL     1       0.946   2.826  20.183  0.00  0.00    +0.000 C 
ATOM     11  O   UNL     1       0.988   4.254  20.268  0.00  0.00    +0.000 OA
ENDBRANCH   1   7
BRANCH   1  12
ATOM     12  S   UNL     1       6.552   6.443  17.538  0.00  0.00    +0.000 S 
BRANCH  12  13
ATOM     13  C   UNL     1       6.928   4.775  16.898  0.00  0.00    +0.000 C 
BRANCH  13  14
ATOM     14  C   UNL     1       6.915   4.690  15.413  0.00  0.00    +0.000 A 
ATOM     15  N   UNL     1       7.623   5.532  14.650  0.00  0.00    +0.000 NA
ATOM     16  O   UNL     1       7.359   5.094  13.357  0.00  0.00    +0.000 OA
ATOM     17  C   UNL     1       6.517   4.020  13.462  0.00  0.00    +0.000 A 
ATOM     18  N   UNL     1       6.221   3.725  14.710  0.00  0.00    +0.000 NA
BRANCH  17  19
ATOM     19  C   UNL     1       5.999   3.297  12.224  0.00  0.00    +0.000 C 
ATOM     20  C   UNL     1       4.535   2.935  12.098  0.00  0.00    +0.000 C 
ATOM     21  C   UNL     1       5.089   4.047  11.275  0.00  0.00    +0.000 C 
ENDBRANCH  17  19
ENDBRANCH  13  14
ENDBRANCH  12  13
ENDBRANCH   1  12
TORSDOF 5
ENDMDL
MODEL 5
REMARK VINA RESULT:      -7.2      3.204      5.057
REMARK  Name = 
REMARK  5 active torsions:
REMARK  status: ('A' for Active; 'I' for Inactive)
REMARK    1  A    between atoms: C_6  and  C_7
REMARK    2  A    between atoms: C_7  and  S_8
REMARK    3  A    between atoms: S_8  and  C_9
REMARK    4  A    between atoms: C_9  and  C_10
REMARK    5  A    between atoms: C_13  and  C_14
REMARK                            x       y       z     vdW  Elec       q    Type
REMARK                         _______ _______ _______ _____ _____    ______ ____
ROOT
ATOM      1  C   UNL     1       4.414   6.567  16.885  0.00  0.00    +0.000 C 
ENDROOT
BRANCH   1   7
ATOM      2  C   UNL     1       3.697   4.149  17.063  0.00  0.00    +0.000 A 
ATOM      3  C   UNL     1       3.148   3.075  17.771  0.00  0.00    +0.000 A 
ATOM      4  C   UNL     1       2.702   3.259  19.076  0.00  0.00    +0.000 A 
ATOM      5  C   UNL     1       2.826   4.511  19.686  0.00  0.00    +0.000 A 
ATOM      6  C   UNL     1       3.359   5.587  18.975  0.00  0.00    +0.000 A 
ATOM      7  C   UNL     1       3.815   5.415  17.657  0.00  0.00    +0.000 A 
ATOM      8  O   UNL     1       2.437   4.756  20.979  0.00  0.00    +0.000 OA
ATOM      9  C   UNL     1       2.253   3.536  21.706  0.00  0.00    +0.000 C 
ATOM     10  C   UNL     1       1.455   2.535  20.888  0.00  0.00    +0.000 C 
ATOM     11  O   UNL     1       2.170   2.163  19.705  0.00  0.00    +0.000 OA
ENDBRANCH   1   7
BRANCH   1  12
ATOM     12  S   UNL     1       5.480   5.974  15.533  0.00  0.00    +0.000 S 
BRANCH  12  13
ATOM     13  C   UNL     1       6.944   5.470  16.500  0.00  0.00    +0.000 C 
BRANCH  13  14
ATOM     14  C   UNL     1       7.489   6.552  17.364  0.00  0.00    +0.000 A 
ATOM     15  N   UNL     1       8.047   6.295  18.553  0.00  0.00    +0.000 NA
ATOM     16  O   UNL     1       8.442   7.549  19.002  0.00  0.00    +0.000 OA
ATOM     17  C   UNL     1       8.088   8.450  18.035  0.00  0.00    +0.000 A 
ATOM     18  N   UNL     1       7.506   7.884  16.999  0.00  0.00    +0.000 NA
BRANCH  17  19
ATOM     19  C   UNL     1       8.354   9.941  18.207  0.00  0.00    +0.000 C 
ATOM     20  C   UNL     1       9.255  10.442  19.315  0.00  0.00    +0.000 C 
ATOM     21  C   UNL     1       9.741  10.470  17.907  0.00  0.00    +0.000 C 
ENDBRANCH  17  19
ENDBRANCH  13  14
ENDBRANCH  12  13
ENDBRANCH   1  12
TORSDOF 5
ENDMDL
MODEL 6
REMARK VINA RESULT:      -7.2      3.869      5.717
REMARK  Name = 
REMARK  5 active torsions:
REMARK  status: ('A' for Active; 'I' for Inactive)
REMARK    1  A    between atoms: C_6  and  C_7
REMARK    2  A    between atoms: C_7  and  S_8
REMARK    3  A    between atoms: S_8  and  C_9
REMARK    4  A    between atoms: C_9  and  C_10
REMARK    5  A    between atoms: C_13  and  C_14
REMARK                            x       y       z     vdW  Elec       q    Type
REMARK                         _______ _______ _______ _____ _____    ______ ____
ROOT
ATOM      1  C   UNL     1       2.342   5.023  20.805  0.00  0.00    +0.000 C 
ENDROOT
BRANCH   1   7
ATOM      2  C   UNL     1       2.728   6.310  18.663  0.00  0.00    +0.000 A 
ATOM      3  C   UNL     1       2.631   7.469  17.887  0.00  0.00    +0.000 A 
ATOM      4  C   UNL     1       2.052   8.616  18.422  0.00  0.00    +0.000 A 
ATOM      5  C   UNL     1       1.546   8.600  19.725  0.00  0.00    +0.000 A 
ATOM      6  C   UNL     1       1.657   7.448  20.505  0.00  0.00    +0.000 A 
ATOM      7  C   UNL     1       2.236   6.282  19.977  0.00  0.00    +0.000 A 
ATOM      8  O   UNL     1       0.935   9.684  20.305  0.00  0.00    +0.000 OA
ATOM      9  C   UNL     1       0.561  10.656  19.323  0.00  0.00    +0.000 C 
ATOM     10  C   UNL     1       1.699  10.904  18.347  0.00  0.00    +0.000 C 
ATOM     11  O   UNL     1       1.998   9.717  17.605  0.00  0.00    +0.000 OA
ENDBRANCH   1   7
BRANCH   1  12
ATOM     12  S   UNL     1       1.868   3.554  19.838  0.00  0.00    +0.000 S 
BRANCH  12  13
ATOM     13  C   UNL     1       3.484   2.707  19.763  0.00  0.00    +0.000 C 
BRANCH  13  14
ATOM     14  C   UNL     1       4.434   3.320  18.796  0.00  0.00    +0.000 A 
ATOM     15  N   UNL     1       4.211   3.301  17.476  0.00  0.00    +0.000 NA
ATOM     16  O   UNL     1       5.299   3.991  16.955  0.00  0.00    +0.000 OA
ATOM     17  C   UNL     1       6.078   4.369  18.015  0.00  0.00    +0.000 A 
ATOM     18  N   UNL     1       5.583   3.987  19.174  0.00  0.00    +0.000 NA
BRANCH  17  19
ATOM     19  C   UNL     1       7.379   5.135  17.808  0.00  0.00    +0.000 C 
ATOM     20  C   UNL     1       7.361   6.575  17.340  0.00  0.00    +0.000 C 
ATOM     21  C   UNL     1       7.712   6.268  18.756  0.00  0.00    +0.000 C 
ENDBRANCH  17  19
ENDBRANCH  13  14
ENDBRANCH  12  13
ENDBRANCH   1  12
TORSDOF 5
ENDMDL
MODEL 7
REMARK VINA RESULT:      -7.1      1.430      1.680
REMARK  Name = 
REMARK  5 active torsions:
REMARK  status: ('A' for Active; 'I' for Inactive)
REMARK    1  A    between atoms: C_6  and  C_7
REMARK    2  A    between atoms: C_7  and  S_8
REMARK    3  A    between atoms: S_8  and  C_9
REMARK    4  A    between atoms: C_9  and  C_10
REMARK    5  A    between atoms: C_13  and  C_14
REMARK                            x       y       z     vdW  Elec       q    Type
REMARK                         _______ _______ _______ _____ _____    ______ ____
ROOT
ATOM      1  C   UNL     1       6.692   4.451  18.351  0.00  0.00    +0.000 C 
ENDROOT
BRANCH   1   7
ATOM      2  C   UNL     1       4.665   5.564  19.373  0.00  0.00    +0.000 A 
ATOM      3  C   UNL     1       3.324   5.558  19.769  0.00  0.00    +0.000 A 
ATOM      4  C   UNL     1       2.550   4.416  19.583  0.00  0.00    +0.000 A 
ATOM      5  C   UNL     1       3.109   3.285  18.981  0.00  0.00    +0.000 A 
ATOM      6  C   UNL     1       4.452   3.285  18.600  0.00  0.00    +0.000 A 
ATOM      7  C   UNL     1       5.243   4.432  18.779  0.00  0.00    +0.000 A 
ATOM      8  O   UNL     1       2.398   2.136  18.738  0.00  0.00    +0.000 OA
ATOM      9  C   UNL     1       0.988   2.370  18.830  0.00  0.00    +0.000 C 
ATOM     10  C   UNL     1       0.654   3.179  20.071  0.00  0.00    +0.000 C 
ATOM     11  O   UNL     1       1.246   4.481  20.002  0.00  0.00    +0.000 OA
ENDBRANCH   1   7
BRANCH   1  12
ATOM     12  S   UNL     1       7.513   5.993  18.865  0.00  0.00    +0.000 S 
BRANCH  12  13
ATOM     13  C   UNL     1       7.346   6.954  17.321  0.00  0.00    +0.000 C 
BRANCH  13  14
ATOM     14  C   UNL     1       6.713   6.193  16.211  0.00  0.00    +0.000 A 
ATOM     15  N   UNL     1       5.473   6.463  15.785  0.00  0.00    +0.000 NA
ATOM     16  O   UNL     1       5.287   5.564  14.741  0.00  0.00    +0.000 OA
ATOM     17  C   UNL     1       6.441   4.836  14.630  0.00  0.00    +0.000 A 
ATOM     18  N   UNL     1       7.355   5.193  15.508  0.00  0.00    +0.000 NA
BRANCH  17  19
ATOM     19  C   UNL     1       6.584   3.731  13.590  0.00  0.00    +0.000 C 
ATOM     20  C   UNL     1       5.568   3.584  12.477  0.00  0.00    +0.000 C 
ATOM     21  C   UNL     1       6.924   4.117  12.165  0.00  0.00    +0.000 C 
ENDBRANCH  17  19
ENDBRANCH  13  14
ENDBRANCH  12  13
ENDBRANCH   1  12
TORSDOF 5
ENDMDL
MODEL 8
REMARK VINA RESULT:      -7.1      2.830      4.044
REMARK  Name = 
REMARK  5 active torsions:
REMARK  status: ('A' for Active; 'I' for Inactive)
REMARK    1  A    between atoms: C_6  and  C_7
REMARK    2  A    between atoms: C_7  and  S_8
REMARK    3  A    between atoms: S_8  and  C_9
REMARK    4  A    between atoms: C_9  and  C_10
REMARK    5  A    between atoms: C_13  and  C_14
REMARK                            x       y       z     vdW  Elec       q    Type
REMARK                         _______ _______ _______ _____ _____    ______ ____
ROOT
ATOM      1  C   UNL     1       3.363   4.552  18.387  0.00  0.00    +0.000 C 
ENDROOT
BRANCH   1   7
ATOM      2  C   UNL     1       2.303   6.031  20.144  0.00  0.00    +0.000 A 
ATOM      3  C   UNL     1       1.763   7.249  20.566  0.00  0.00    +0.000 A 
ATOM      4  C   UNL     1       1.682   8.319  19.678  0.00  0.00    +0.000 A 
ATOM      5  C   UNL     1       2.162   8.179  18.373  0.00  0.00    +0.000 A 
ATOM      6  C   UNL     1       2.687   6.958  17.946  0.00  0.00    +0.000 A 
ATOM      7  C   UNL     1       2.777   5.872  18.832  0.00  0.00    +0.000 A 
ATOM      8  O   UNL     1       2.143   9.199  17.454  0.00  0.00    +0.000 OA
ATOM      9  C   UNL     1       1.931  10.465  18.089  0.00  0.00    +0.000 C 
ATOM     10  C   UNL     1       0.800  10.380  19.100  0.00  0.00    +0.000 C 
ATOM     11  O   UNL     1       1.135   9.479  20.161  0.00  0.00    +0.000 OA
ENDBRANCH   1   7
BRANCH   1  12
ATOM     12  S   UNL     1       5.140   4.454  18.772  0.00  0.00    +0.000 S 
BRANCH  12  13
ATOM     13  C   UNL     1       5.749   5.836  17.745  0.00  0.00    +0.000 C 
BRANCH  13  14
ATOM     14  C   UNL     1       6.287   5.406  16.427  0.00  0.00    +0.000 A 
ATOM     15  N   UNL     1       7.374   5.971  15.888  0.00  0.00    +0.000 NA
ATOM     16  O   UNL     1       7.546   5.271  14.699  0.00  0.00    +0.000 OA
ATOM     17  C   UNL     1       6.545   4.340  14.635  0.00  0.00    +0.000 A 
ATOM     18  N   UNL     1       5.746   4.376  15.681  0.00  0.00    +0.000 NA
BRANCH  17  19
ATOM     19  C   UNL     1       6.412   3.402  13.441  0.00  0.00    +0.000 C 
ATOM     20  C   UNL     1       5.311   3.599  12.422  0.00  0.00    +0.000 C 
ATOM     21  C   UNL     1       6.715   3.940  12.059  0.00  0.00    +0.000 C 
ENDBRANCH  17  19
ENDBRANCH  13  14
ENDBRANCH  12  13
ENDBRANCH   1  12
TORSDOF 5
ENDMDL
MODEL 9
REMARK VINA RESULT:      -7.0      3.912      5.483
REMARK  Name = 
REMARK  5 active torsions:
REMARK  status: ('A' for Active; 'I' for Inactive)
REMARK    1  A    between atoms: C_6  and  C_7
REMARK    2  A    between atoms: C_7  and  S_8
REMARK    3  A    between atoms: S_8  and  C_9
REMARK    4  A    between atoms: C_9  and  C_10
REMARK    5  A    between atoms: C_13  and  C_14
REMARK                            x       y       z     vdW  Elec       q    Type
REMARK                         _______ _______ _______ _____ _____    ______ ____
ROOT
ATOM      1  C   UNL     1       2.454   5.365  20.758  0.00  0.00    +0.000 C 
ENDROOT
BRANCH   1   7
ATOM      2  C   UNL     1       2.478   6.835  18.700  0.00  0.00    +0.000 A 
ATOM      3  C   UNL     1       2.200   8.036  18.041  0.00  0.00    +0.000 A 
ATOM      4  C   UNL     1       1.605   9.088  18.732  0.00  0.00    +0.000 A 
ATOM      5  C   UNL     1       1.265   8.932  20.079  0.00  0.00    +0.000 A 
ATOM      6  C   UNL     1       1.556   7.739  20.742  0.00  0.00    +0.000 A 
ATOM      7  C   UNL     1       2.154   6.669  20.056  0.00  0.00    +0.000 A 
ATOM      8  O   UNL     1       0.649   9.914  20.815  0.00  0.00    +0.000 OA
ATOM      9  C   UNL     1       0.085  10.921  19.967  0.00  0.00    +0.000 C 
ATOM     10  C   UNL     1       1.074  11.336  18.891  0.00  0.00    +0.000 C 
ATOM     11  O   UNL     1       1.370  10.237  18.023  0.00  0.00    +0.000 OA
ENDBRANCH   1   7
BRANCH   1  12
ATOM     12  S   UNL     1       1.606   3.970  19.952  0.00  0.00    +0.000 S 
BRANCH  12  13
ATOM     13  C   UNL     1       3.029   2.855  19.700  0.00  0.00    +0.000 C 
BRANCH  13  14
ATOM     14  C   UNL     1       4.121   3.457  18.889  0.00  0.00    +0.000 A 
ATOM     15  N   UNL     1       5.353   3.635  19.382  0.00  0.00    +0.000 NA
ATOM     16  O   UNL     1       6.053   4.182  18.313  0.00  0.00    +0.000 OA
ATOM     17  C   UNL     1       5.175   4.277  17.267  0.00  0.00    +0.000 A 
ATOM     18  N   UNL     1       3.972   3.834  17.569  0.00  0.00    +0.000 NA
BRANCH  17  19
ATOM     19  C   UNL     1       5.602   4.860  15.925  0.00  0.00    +0.000 C 
ATOM     20  C   UNL     1       7.058   4.857  15.511  0.00  0.00    +0.000 C 
ATOM     21  C   UNL     1       6.107   3.917  14.853  0.00  0.00    +0.000 C 
ENDBRANCH  17  19
ENDBRANCH  13  14
ENDBRANCH  12  13
ENDBRANCH   1  12
TORSDOF 5
ENDMDL
