MODEL 1
REMARK VINA RESULT:      -8.0      0.000      0.000
REMARK  Name = 
REMARK  13 active torsions:
REMARK  status: ('A' for Active; 'I' for Inactive)
REMARK    1  A    between atoms: C_1  and  C_2
REMARK    2  A    between atoms: C_2  and  C_3
REMARK    3  A    between atoms: C_3  and  C_4
REMARK    4  A    between atoms: C_4  and  O_5
REMARK    5  A    between atoms: O_5  and  P_6
REMARK    6  A    between atoms: P_6  and  N_8
REMARK    7  A    between atoms: P_6  and  C_24
REMARK    8  A    between atoms: N_8  and  C_9
REMARK    9  A    between atoms: C_11  and  C_12
REMARK   10  A    between atoms: C_20  and  C_21
REMARK   11  A    between atoms: C_21  and  O_23
REMARK   12  A    between atoms: C_27  and  C_28
REMARK   13  A    between atoms: C_30  and  C_31
REMARK                            x       y       z     vdW  Elec       q    Type
REMARK                         _______ _______ _______ _____ _____    ______ ____
ROOT
ATOM      1  N   UNL     1       5.647   4.158  17.765  0.00  0.00    +0.000 N 
ATOM      2  H   UNL     1       5.854   3.164  17.785  0.00  0.00    +0.000 HD
ENDROOT
BRANCH   1   3
ATOM      3  C   UNL     1       4.580   4.683  18.440  0.00  0.00    +0.000 A 
ATOM      4  C   UNL     1       3.987   5.943  18.130  0.00  0.00    +0.000 A 
ATOM      5  C   UNL     1       3.004   6.342  19.015  0.00  0.00    +0.000 A 
ATOM      6  S   UNL     1       2.654   5.085  20.111  0.00  0.00    +0.000 S 
ATOM      7  C   UNL     1       3.897   4.066  19.484  0.00  0.00    +0.000 A 
BRANCH   5   8
ATOM      8  C   UNL     1       2.289   7.626  19.049  0.00  0.00    +0.000 A 
ATOM      9  C   UNL     1       1.663   8.037  20.237  0.00  0.00    +0.000 A 
ATOM     10  C   UNL     1       0.926   9.222  20.293  0.00  0.00    +0.000 A 
ATOM     11  C   UNL     1       0.804  10.015  19.156  0.00  0.00    +0.000 A 
ATOM     12 CL   UNL     1      -0.109  11.470  19.226  0.00  0.00    +0.000 Cl
ATOM     13  C   UNL     1       1.414   9.631  17.965  0.00  0.00    +0.000 A 
ATOM     14  C   UNL     1       2.151   8.441  17.912  0.00  0.00    +0.000 A 
ENDBRANCH   5   8
BRANCH   7  15
ATOM     15  C   UNL     1       4.056   2.783  20.141  0.00  0.00    +0.000 C 
ATOM     16  O   UNL     1       3.392   2.350  21.075  0.00  0.00    +0.000 OA
BRANCH  15  17
ATOM     17  O   UNL     1       5.083   2.059  19.617  0.00  0.00    +0.000 OA
ATOM     18  H   UNL     1       5.940   2.521  19.717  0.00  0.00    +0.000 HD
ENDBRANCH  15  17
ENDBRANCH   7  15
ENDBRANCH   1   3
BRANCH   1  19
ATOM     19  P   UNL     1       6.970   5.080  17.014  0.00  0.00    +0.000 P 
ATOM     20  O   UNL     1       8.221   4.177  16.978  0.00  0.00    +0.000 OA
BRANCH  19  21
ATOM     21  C   UNL     1       6.497   4.537  15.332  0.00  0.00    +0.000 A 
ATOM     22  C   UNL     1       5.264   3.849  15.174  0.00  0.00    +0.000 A 
ATOM     23  C   UNL     1       4.811   3.361  13.943  0.00  0.00    +0.000 A 
ATOM     24  C   UNL     1       5.555   3.580  12.792  0.00  0.00    +0.000 A 
ATOM     25  C   UNL     1       5.101   3.074  11.455  0.00  0.00    +0.000 C 
ATOM     26  C   UNL     1       6.730   4.328  12.896  0.00  0.00    +0.000 A 
ATOM     27  C   UNL     1       7.188   4.844  14.132  0.00  0.00    +0.000 A 
ATOM     28  C   UNL     1       8.400   5.736  14.078  0.00  0.00    +0.000 C 
ENDBRANCH  19  21
BRANCH  19  29
ATOM     29  O   UNL     1       7.416   5.593  18.605  0.00  0.00    +0.000 OA
BRANCH  29  30
ATOM     30  C   UNL     1       8.072   6.861  18.599  0.00  0.00    +0.000 C 
BRANCH  30  31
ATOM     31  C   UNL     1       7.465   7.770  17.543  0.00  0.00    +0.000 C 
BRANCH  31  33
ATOM     32  C   UNL     1       8.849   9.394  18.876  0.00  0.00    +0.000 C 
ATOM     33  C   UNL     1       8.052   9.182  17.600  0.00  0.00    +0.000 C 
ENDBRANCH  31  33
ENDBRANCH  30  31
ENDBRANCH  29  30
ENDBRANCH  19  29
ENDBRANCH   1  19
TORSDOF 10
ENDMDL
MODEL 2
REMARK VINA RESULT:      -7.9      1.448      4.723
REMARK  Name = 
REMARK  13 active torsions:
REMARK  status: ('A' for Active; 'I' for Inactive)
REMARK    1  A    between atoms: C_1  and  C_2
REMARK    2  A    between atoms: C_2  and  C_3
REMARK    3  A    between atoms: C_3  and  C_4
REMARK    4  A    between atoms: C_4  and  O_5
REMARK    5  A    between atoms: O_5  and  P_6
REMARK    6  A    between atoms: P_6  and  N_8
REMARK    7  A    between atoms: P_6  and  C_24
REMARK    8  A    between atoms: N_8  and  C_9
REMARK    9  A    between atoms: C_11  and  C_12
REMARK   10  A    between atoms: C_20  and  C_21
REMARK   11  A    between atoms: C_21  and  O_23
REMARK   12  A    between atoms: C_27  and  C_28
REMARK   13  A    between atoms: C_30  and  C_31
REMARK                            x       y       z     vdW  Elec       q    Type
REMARK                         _______ _______ _______ _____ _____    ______ ____
ROOT
ATOM      1  N   UNL     1       5.104   5.810  16.463  0.00  0.00    +0.000 N 
ATOM      2  H   UNL     1       4.808   6.011  15.512  0.00  0.00    +0.000 HD
ENDROOT
BRANCH   1   3
ATOM      3  C   UNL     1       4.240   5.914  17.519  0.00  0.00    +0.000 A 
ATOM      4  C   UNL     1       3.426   7.060  17.766  0.00  0.00    +0.000 A 
ATOM      5  C   UNL     1       2.723   7.010  18.955  0.00  0.00    +0.000 A 
ATOM      6  S   UNL     1       2.893   5.476  19.676  0.00  0.00    +0.000 S 
ATOM      7  C   UNL     1       3.999   4.929  18.471  0.00  0.00    +0.000 A 
BRANCH   5   8
ATOM      8  C   UNL     1       1.897   8.067  19.557  0.00  0.00    +0.000 A 
ATOM      9  C   UNL     1       1.452   7.924  20.882  0.00  0.00    +0.000 A 
ATOM     10  C   UNL     1       0.618   8.879  21.471  0.00  0.00    +0.000 A 
ATOM     11  C   UNL     1       0.217   9.991  20.738  0.00  0.00    +0.000 A 
ATOM     12 CL   UNL     1      -0.814  11.160  21.463  0.00  0.00    +0.000 Cl
ATOM     13  C   UNL     1       0.643  10.157  19.423  0.00  0.00    +0.000 A 
ATOM     14  C   UNL     1       1.477   9.197  18.836  0.00  0.00    +0.000 A 
ENDBRANCH   5   8
BRANCH   7  15
ATOM     15  C   UNL     1       4.515   3.585  18.648  0.00  0.00    +0.000 C 
ATOM     16  O   UNL     1       5.133   3.158  19.617  0.00  0.00    +0.000 OA
BRANCH  15  17
ATOM     17  O   UNL     1       4.261   2.789  17.574  0.00  0.00    +0.000 OA
ATOM     18  H   UNL     1       4.632   3.163  16.749  0.00  0.00    +0.000 HD
ENDBRANCH  15  17
ENDBRANCH   7  15
ENDBRANCH   1   3
BRANCH   1  19
ATOM     19  P   UNL     1       6.719   5.068  16.497  0.00  0.00    +0.000 P 
ATOM     20  O   UNL     1       7.464   5.487  15.213  0.00  0.00    +0.000 OA
BRANCH  19  21
ATOM     21  C   UNL     1       7.436   6.485  17.406  0.00  0.00    +0.000 A 
ATOM     22  C   UNL     1       7.322   7.777  16.826  0.00  0.00    +0.000 A 
ATOM     23  C   UNL     1       7.856   8.930  17.413  0.00  0.00    +0.000 A 
ATOM     24  C   UNL     1       8.495   8.852  18.642  0.00  0.00    +0.000 A 
ATOM     25  C   UNL     1       9.078  10.067  19.304  0.00  0.00    +0.000 C 
ATOM     26  C   UNL     1       8.549   7.612  19.283  0.00  0.00    +0.000 A 
ATOM     27  C   UNL     1       7.995   6.442  18.708  0.00  0.00    +0.000 A 
ATOM     28  C   UNL     1       8.015   5.203  19.563  0.00  0.00    +0.000 C 
ENDBRANCH  19  21
BRANCH  19  29
ATOM     29  O   UNL     1       6.041   3.729  15.637  0.00  0.00    +0.000 OA
BRANCH  29  30
ATOM     30  C   UNL     1       6.349   3.770  14.243  0.00  0.00    +0.000 C 
BRANCH  30  31
ATOM     31  C   UNL     1       5.075   3.777  13.416  0.00  0.00    +0.000 C 
BRANCH  31  33
ATOM     32  C   UNL     1       6.797   3.083  11.719  0.00  0.00    +0.000 C 
ATOM     33  C   UNL     1       5.314   3.262  11.995  0.00  0.00    +0.000 C 
ENDBRANCH  31  33
ENDBRANCH  30  31
ENDBRANCH  29  30
ENDBRANCH  19  29
ENDBRANCH   1  19
TORSDOF 10
ENDMDL
MODEL 3
REMARK VINA RESULT:      -7.8      1.510      4.865
REMARK  Name = 
REMARK  13 active torsions:
REMARK  status: ('A' for Active; 'I' for Inactive)
REMARK    1  A    between atoms: C_1  and  C_2
REMARK    2  A    between atoms: C_2  and  C_3
REMARK    3  A    between atoms: C_3  and  C_4
REMARK    4  A    between atoms: C_4  and  O_5
REMARK    5  A    between atoms: O_5  and  P_6
REMARK    6  A    between atoms: P_6  and  N_8
REMARK    7  A    between atoms: P_6  and  C_24
REMARK    8  A    between atoms: N_8  and  C_9
REMARK    9  A    between atoms: C_11  and  C_12
REMARK   10  A    between atoms: C_20  and  C_21
REMARK   11  A    between atoms: C_21  and  O_23
REMARK   12  A    between atoms: C_27  and  C_28
REMARK   13  A    between atoms: C_30  and  C_31
REMARK                            x       y       z     vdW  Elec       q    Type
REMARK                         _______ _______ _______ _____ _____    ______ ____
ROOT
ATOM      1  N   UNL     1       5.131   5.851  16.339  0.00  0.00    +0.000 N 
ATOM      2  H   UNL     1       4.875   6.109  15.390  0.00  0.00    +0.000 HD
ENDROOT
BRANCH   1   3
ATOM      3  C   UNL     1       4.226   5.900  17.364  0.00  0.00    +0.000 A 
ATOM      4  C   UNL     1       3.476   7.066  17.704  0.00  0.00    +0.000 A 
ATOM      5  C   UNL     1       2.716   6.937  18.850  0.00  0.00    +0.000 A 
ATOM      6  S   UNL     1       2.752   5.326  19.403  0.00  0.00    +0.000 S 
ATOM      7  C   UNL     1       3.877   4.837  18.190  0.00  0.00    +0.000 A 
BRANCH   5   8
ATOM      8  C   UNL     1       1.931   7.977  19.532  0.00  0.00    +0.000 A 
ATOM      9  C   UNL     1       1.569   9.139  18.831  0.00  0.00    +0.000 A 
ATOM     10  C   UNL     1       0.873  10.175  19.460  0.00  0.00    +0.000 A 
ATOM     11  C   UNL     1       0.529  10.060  20.803  0.00  0.00    +0.000 A 
ATOM     12 CL   UNL     1      -0.322  11.338  21.576  0.00  0.00    +0.000 Cl
ATOM     13  C   UNL     1       0.876   8.919  21.522  0.00  0.00    +0.000 A 
ATOM     14  C   UNL     1       1.576   7.884  20.888  0.00  0.00    +0.000 A 
ENDBRANCH   5   8
BRANCH   7  15
ATOM     15  C   UNL     1       4.297   3.449  18.238  0.00  0.00    +0.000 C 
ATOM     16  O   UNL     1       3.876   2.531  17.544  0.00  0.00    +0.000 OA
BRANCH  15  17
ATOM     17  O   UNL     1       5.244   3.229  19.191  0.00  0.00    +0.000 OA
ATOM     18  H   UNL     1       5.438   2.276  19.297  0.00  0.00    +0.000 HD
ENDBRANCH  15  17
ENDBRANCH   7  15
ENDBRANCH   1   3
BRANCH   1  19
ATOM     19  P   UNL     1       6.739   5.096  16.394  0.00  0.00    +0.000 P 
ATOM     20  O   UNL     1       7.517   5.537  15.136  0.00  0.00    +0.000 OA
BRANCH  19  21
ATOM     21  C   UNL     1       7.446   6.486  17.350  0.00  0.00    +0.000 A 
ATOM     22  C   UNL     1       7.343   7.794  16.802  0.00  0.00    +0.000 A 
ATOM     23  C   UNL     1       7.870   8.930  17.428  0.00  0.00    +0.000 A 
ATOM     24  C   UNL     1       8.491   8.818  18.664  0.00  0.00    +0.000 A 
ATOM     25  C   UNL     1       9.067  10.013  19.365  0.00  0.00    +0.000 C 
ATOM     26  C   UNL     1       8.533   7.561  19.272  0.00  0.00    +0.000 A 
ATOM     27  C   UNL     1       7.986   6.408  18.659  0.00  0.00    +0.000 A 
ATOM     28  C   UNL     1       7.990   5.147  19.481  0.00  0.00    +0.000 C 
ENDBRANCH  19  21
BRANCH  19  29
ATOM     29  O   UNL     1       6.071   3.781  15.489  0.00  0.00    +0.000 OA
BRANCH  29  30
ATOM     30  C   UNL     1       5.488   4.213  14.259  0.00  0.00    +0.000 C 
BRANCH  30  31
ATOM     31  C   UNL     1       6.316   3.732  13.079  0.00  0.00    +0.000 C 
BRANCH  31  33
ATOM     32  C   UNL     1       4.361   3.450  11.522  0.00  0.00    +0.000 C 
ATOM     33  C   UNL     1       5.536   2.760  12.193  0.00  0.00    +0.000 C 
ENDBRANCH  31  33
ENDBRANCH  30  31
ENDBRANCH  29  30
ENDBRANCH  19  29
ENDBRANCH   1  19
TORSDOF 10
ENDMDL
MODEL 4
REMARK VINA RESULT:      -7.6      0.848      1.433
REMARK  Name = 
REMARK  13 active torsions:
REMARK  status: ('A' for Active; 'I' for Inactive)
REMARK    1  A    between atoms: C_1  and  C_2
REMARK    2  A    between atoms: C_2  and  C_3
REMARK    3  A    between atoms: C_3  and  C_4
REMARK    4  A    between atoms: C_4  and  O_5
REMARK    5  A    between atoms: O_5  and  P_6
REMARK    6  A    between atoms: P_6  and  N_8
REMARK    7  A    between atoms: P_6  and  C_24
REMARK    8  A    between atoms: N_8  and  C_9
REMARK    9  A    between atoms: C_11  and  C_12
REMARK   10  A    between atoms: C_20  and  C_21
REMARK   11  A    between atoms: C_21  and  O_23
REMARK   12  A    between atoms: C_27  and  C_28
REMARK   13  A    between atoms: C_30  and  C_31
REMARK                            x       y       z     vdW  Elec       q    Type
REMARK                         _______ _______ _______ _____ _____    ______ ____
ROOT
ATOM      1  N   UNL     1       5.891   4.206  18.306  0.00  0.00    +0.000 N 
ATOM      2  H   UNL     1       6.269   3.295  18.551  0.00  0.00    +0.000 HD
ENDROOT
BRANCH   1   3
ATOM      3  C   UNL     1       4.693   4.642  18.803  0.00  0.00    +0.000 A 
ATOM      4  C   UNL     1       4.142   5.928  18.525  0.00  0.00    +0.000 A 
ATOM      5  C   UNL     1       2.988   6.215  19.229  0.00  0.00    +0.000 A 
ATOM      6  S   UNL     1       2.457   4.835  20.077  0.00  0.00    +0.000 S 
ATOM      7  C   UNL     1       3.829   3.903  19.605  0.00  0.00    +0.000 A 
BRANCH   5   8
ATOM      8  C   UNL     1       2.245   7.483  19.262  0.00  0.00    +0.000 A 
ATOM      9  C   UNL     1       2.196   8.285  18.111  0.00  0.00    +0.000 A 
ATOM     10  C   UNL     1       1.548   9.524  18.119  0.00  0.00    +0.000 A 
ATOM     11  C   UNL     1       0.940   9.977  19.285  0.00  0.00    +0.000 A 
ATOM     12 CL   UNL     1       0.149  11.503  19.295  0.00  0.00    +0.000 Cl
ATOM     13  C   UNL     1       0.973   9.202  20.441  0.00  0.00    +0.000 A 
ATOM     14  C   UNL     1       1.625   7.962  20.429  0.00  0.00    +0.000 A 
ENDBRANCH   5   8
BRANCH   7  15
ATOM     15  C   UNL     1       3.887   2.551  20.128  0.00  0.00    +0.000 C 
ATOM     16  O   UNL     1       4.897   1.904  20.378  0.00  0.00    +0.000 OA
BRANCH  15  17
ATOM     17  O   UNL     1       2.649   2.017  20.314  0.00  0.00    +0.000 OA
ATOM     18  H   UNL     1       2.379   1.458  19.557  0.00  0.00    +0.000 HD
ENDBRANCH  15  17
ENDBRANCH   7  15
ENDBRANCH   1   3
BRANCH   1  19
ATOM     19  P   UNL     1       7.086   5.190  17.432  0.00  0.00    +0.000 P 
ATOM     20  O   UNL     1       8.310   4.300  17.132  0.00  0.00    +0.000 OA
BRANCH  19  21
ATOM     21  C   UNL     1       6.354   4.776  15.807  0.00  0.00    +0.000 A 
ATOM     22  C   UNL     1       6.557   3.464  15.299  0.00  0.00    +0.000 A 
ATOM     23  C   UNL     1       6.070   3.041  14.056  0.00  0.00    +0.000 A 
ATOM     24  C   UNL     1       5.313   3.902  13.276  0.00  0.00    +0.000 A 
ATOM     25  C   UNL     1       4.773   3.483  11.940  0.00  0.00    +0.000 C 
ATOM     26  C   UNL     1       5.021   5.170  13.783  0.00  0.00    +0.000 A 
ATOM     27  C   UNL     1       5.489   5.603  15.047  0.00  0.00    +0.000 A 
ATOM     28  C   UNL     1       4.995   6.944  15.522  0.00  0.00    +0.000 C 
ENDBRANCH  19  21
BRANCH  19  29
ATOM     29  O   UNL     1       7.778   5.581  18.968  0.00  0.00    +0.000 OA
BRANCH  29  30
ATOM     30  C   UNL     1       8.292   6.913  19.005  0.00  0.00    +0.000 C 
BRANCH  30  31
ATOM     31  C   UNL     1       7.673   7.754  17.902  0.00  0.00    +0.000 C 
BRANCH  31  33
ATOM     32  C   UNL     1       8.919   9.581  19.100  0.00  0.00    +0.000 C 
ATOM     33  C   UNL     1       8.361   9.114  17.767  0.00  0.00    +0.000 C 
ENDBRANCH  31  33
ENDBRANCH  30  31
ENDBRANCH  29  30
ENDBRANCH  19  29
ENDBRANCH   1  19
TORSDOF 10
ENDMDL
MODEL 5
REMARK VINA RESULT:      -7.5      1.279      1.548
REMARK  Name = 
REMARK  13 active torsions:
REMARK  status: ('A' for Active; 'I' for Inactive)
REMARK    1  A    between atoms: C_1  and  C_2
REMARK    2  A    between atoms: C_2  and  C_3
REMARK    3  A    between atoms: C_3  and  C_4
REMARK    4  A    between atoms: C_4  and  O_5
REMARK    5  A    between atoms: O_5  and  P_6
REMARK    6  A    between atoms: P_6  and  N_8
REMARK    7  A    between atoms: P_6  and  C_24
REMARK    8  A    between atoms: N_8  and  C_9
REMARK    9  A    between atoms: C_11  and  C_12
REMARK   10  A    between atoms: C_20  and  C_21
REMARK   11  A    between atoms: C_21  and  O_23
REMARK   12  A    between atoms: C_27  and  C_28
REMARK   13  A    between atoms: C_30  and  C_31
REMARK                            x       y       z     vdW  Elec       q    Type
REMARK                         _______ _______ _______ _____ _____    ______ ____
ROOT
ATOM      1  N   UNL     1       4.718   5.930  16.246  0.00  0.00    +0.000 N 
ATOM      2  H   UNL     1       4.261   5.686  15.372  0.00  0.00    +0.000 HD
ENDROOT
BRANCH   1   3
ATOM      3  C   UNL     1       4.021   6.015  17.421  0.00  0.00    +0.000 A 
ATOM      4  C   UNL     1       3.163   7.104  17.756  0.00  0.00    +0.000 A 
ATOM      5  C   UNL     1       2.658   7.054  19.040  0.00  0.00    +0.000 A 
ATOM      6  S   UNL     1       3.061   5.570  19.775  0.00  0.00    +0.000 S 
ATOM      7  C   UNL     1       4.010   5.056  18.429  0.00  0.00    +0.000 A 
BRANCH   5   8
ATOM      8  C   UNL     1       1.849   8.070  19.731  0.00  0.00    +0.000 A 
ATOM      9  C   UNL     1       1.481   7.865  21.070  0.00  0.00    +0.000 A 
ATOM     10  C   UNL     1       0.666   8.780  21.744  0.00  0.00    +0.000 A 
ATOM     11  C   UNL     1       0.208   9.914  21.082  0.00  0.00    +0.000 A 
ATOM     12 CL   UNL     1      -0.800  11.034  21.910  0.00  0.00    +0.000 Cl
ATOM     13  C   UNL     1       0.557  10.141  19.754  0.00  0.00    +0.000 A 
ATOM     14  C   UNL     1       1.373   9.221  19.082  0.00  0.00    +0.000 A 
ENDBRANCH   5   8
BRANCH   7  15
ATOM     15  C   UNL     1       4.656   3.765  18.566  0.00  0.00    +0.000 C 
ATOM     16  O   UNL     1       5.243   3.339  19.554  0.00  0.00    +0.000 OA
BRANCH  15  17
ATOM     17  O   UNL     1       4.572   3.023  17.428  0.00  0.00    +0.000 OA
ATOM     18  H   UNL     1       4.813   2.088  17.586  0.00  0.00    +0.000 HD
ENDBRANCH  15  17
ENDBRANCH   7  15
ENDBRANCH   1   3
BRANCH   1  19
ATOM     19  P   UNL     1       6.488   5.935  16.073  0.00  0.00    +0.000 P 
ATOM     20  O   UNL     1       7.052   4.756  16.893  0.00  0.00    +0.000 OA
BRANCH  19  21
ATOM     21  C   UNL     1       6.422   4.893  14.570  0.00  0.00    +0.000 A 
ATOM     22  C   UNL     1       5.264   4.096  14.361  0.00  0.00    +0.000 A 
ATOM     23  C   UNL     1       5.113   3.238  13.265  0.00  0.00    +0.000 A 
ATOM     24  C   UNL     1       6.101   3.171  12.293  0.00  0.00    +0.000 A 
ATOM     25  C   UNL     1       5.973   2.266  11.103  0.00  0.00    +0.000 C 
ATOM     26  C   UNL     1       7.214   4.007  12.422  0.00  0.00    +0.000 A 
ATOM     27  C   UNL     1       7.369   4.893  13.515  0.00  0.00    +0.000 A 
ATOM     28  C   UNL     1       8.552   5.822  13.461  0.00  0.00    +0.000 C 
ENDBRANCH  19  21
BRANCH  19  29
ATOM     29  O   UNL     1       6.550   6.920  17.494  0.00  0.00    +0.000 OA
BRANCH  29  30
ATOM     30  C   UNL     1       7.872   7.381  17.774  0.00  0.00    +0.000 C 
BRANCH  30  31
ATOM     31  C   UNL     1       7.940   8.896  17.676  0.00  0.00    +0.000 C 
BRANCH  31  33
ATOM     32  C   UNL     1       9.410  10.834  18.316  0.00  0.00    +0.000 C 
ATOM     33  C   UNL     1       8.837   9.498  18.758  0.00  0.00    +0.000 C 
ENDBRANCH  31  33
ENDBRANCH  30  31
ENDBRANCH  29  30
ENDBRANCH  19  29
ENDBRANCH   1  19
TORSDOF 10
ENDMDL
MODEL 6
REMARK VINA RESULT:      -7.5      0.982      1.067
REMARK  Name = 
REMARK  13 active torsions:
REMARK  status: ('A' for Active; 'I' for Inactive)
REMARK    1  A    between atoms: C_1  and  C_2
REMARK    2  A    between atoms: C_2  and  C_3
REMARK    3  A    between atoms: C_3  and  C_4
REMARK    4  A    between atoms: C_4  and  O_5
REMARK    5  A    between atoms: O_5  and  P_6
REMARK    6  A    between atoms: P_6  and  N_8
REMARK    7  A    between atoms: P_6  and  C_24
REMARK    8  A    between atoms: N_8  and  C_9
REMARK    9  A    between atoms: C_11  and  C_12
REMARK   10  A    between atoms: C_20  and  C_21
REMARK   11  A    between atoms: C_21  and  O_23
REMARK   12  A    between atoms: C_27  and  C_28
REMARK   13  A    between atoms: C_30  and  C_31
REMARK                            x       y       z     vdW  Elec       q    Type
REMARK                         _______ _______ _______ _____ _____    ______ ____
ROOT
ATOM      1  N   UNL     1       5.811   4.023  17.787  0.00  0.00    +0.000 N 
ATOM      2  H   UNL     1       6.145   3.150  18.186  0.00  0.00    +0.000 HD
ENDROOT
BRANCH   1   3
ATOM      3  C   UNL     1       4.550   4.489  18.037  0.00  0.00    +0.000 A 
ATOM      4  C   UNL     1       4.224   5.875  18.143  0.00  0.00    +0.000 A 
ATOM      5  C   UNL     1       2.920   6.123  18.526  0.00  0.00    +0.000 A 
ATOM      6  S   UNL     1       2.028   4.672  18.556  0.00  0.00    +0.000 S 
ATOM      7  C   UNL     1       3.409   3.707  18.183  0.00  0.00    +0.000 A 
BRANCH   5   8
ATOM      8  C   UNL     1       2.306   7.421  18.840  0.00  0.00    +0.000 A 
ATOM      9  C   UNL     1       1.830   7.664  20.139  0.00  0.00    +0.000 A 
ATOM     10  C   UNL     1       1.189   8.863  20.462  0.00  0.00    +0.000 A 
ATOM     11  C   UNL     1       1.014   9.837  19.485  0.00  0.00    +0.000 A 
ATOM     12 CL   UNL     1       0.218  11.309  19.883  0.00  0.00    +0.000 Cl
ATOM     13  C   UNL     1       1.475   9.623  18.189  0.00  0.00    +0.000 A 
ATOM     14  C   UNL     1       2.116   8.419  17.869  0.00  0.00    +0.000 A 
ENDBRANCH   5   8
BRANCH   7  15
ATOM     15  C   UNL     1       3.183   2.276  18.116  0.00  0.00    +0.000 C 
ATOM     16  O   UNL     1       3.990   1.392  18.378  0.00  0.00    +0.000 OA
BRANCH  15  17
ATOM     17  O   UNL     1       1.925   1.971  17.692  0.00  0.00    +0.000 OA
ATOM     18  H   UNL     1       1.537   2.695  17.160  0.00  0.00    +0.000 HD
ENDBRANCH  15  17
ENDBRANCH   7  15
ENDBRANCH   1   3
BRANCH   1  19
ATOM     19  P   UNL     1       7.131   4.927  17.011  0.00  0.00    +0.000 P 
ATOM     20  O   UNL     1       8.344   3.983  16.878  0.00  0.00    +0.000 OA
BRANCH  19  21
ATOM     21  C   UNL     1       6.561   4.473  15.332  0.00  0.00    +0.000 A 
ATOM     22  C   UNL     1       5.317   3.796  15.211  0.00  0.00    +0.000 A 
ATOM     23  C   UNL     1       4.792   3.374  13.983  0.00  0.00    +0.000 A 
ATOM     24  C   UNL     1       5.470   3.651  12.805  0.00  0.00    +0.000 A 
ATOM     25  C   UNL     1       4.938   3.216  11.471  0.00  0.00    +0.000 C 
ATOM     26  C   UNL     1       6.653   4.391  12.880  0.00  0.00    +0.000 A 
ATOM     27  C   UNL     1       7.183   4.841  14.113  0.00  0.00    +0.000 A 
ATOM     28  C   UNL     1       8.394   5.733  14.035  0.00  0.00    +0.000 C 
ENDBRANCH  19  21
BRANCH  19  29
ATOM     29  O   UNL     1       7.670   5.356  18.598  0.00  0.00    +0.000 OA
BRANCH  29  30
ATOM     30  C   UNL     1       7.787   6.770  18.764  0.00  0.00    +0.000 C 
BRANCH  30  31
ATOM     31  C   UNL     1       7.722   7.472  17.418  0.00  0.00    +0.000 C 
BRANCH  31  33
ATOM     32  C   UNL     1       8.749   9.506  18.484  0.00  0.00    +0.000 C 
ATOM     33  C   UNL     1       7.649   8.992  17.571  0.00  0.00    +0.000 C 
ENDBRANCH  31  33
ENDBRANCH  30  31
ENDBRANCH  29  30
ENDBRANCH  19  29
ENDBRANCH   1  19
TORSDOF 10
ENDMDL
MODEL 7
REMARK VINA RESULT:      -7.4      1.395      4.813
REMARK  Name = 
REMARK  13 active torsions:
REMARK  status: ('A' for Active; 'I' for Inactive)
REMARK    1  A    between atoms: C_1  and  C_2
REMARK    2  A    between atoms: C_2  and  C_3
REMARK    3  A    between atoms: C_3  and  C_4
REMARK    4  A    between atoms: C_4  and  O_5
REMARK    5  A    between atoms: O_5  and  P_6
REMARK    6  A    between atoms: P_6  and  N_8
REMARK    7  A    between atoms: P_6  and  C_24
REMARK    8  A    between atoms: N_8  and  C_9
REMARK    9  A    between atoms: C_11  and  C_12
REMARK   10  A    between atoms: C_20  and  C_21
REMARK   11  A    between atoms: C_21  and  O_23
REMARK   12  A    between atoms: C_27  and  C_28
REMARK   13  A    between atoms: C_30  and  C_31
REMARK                            x       y       z     vdW  Elec       q    Type
REMARK                         _______ _______ _______ _____ _____    ______ ____
ROOT
ATOM      1  N   UNL     1       5.716   4.778  18.050  0.00  0.00    +0.000 N 
ATOM      2  H   UNL     1       6.350   4.343  18.714  0.00  0.00    +0.000 HD
ENDROOT
BRANCH   1   3
ATOM      3  C   UNL     1       4.428   5.091  18.390  0.00  0.00    +0.000 A 
ATOM      4  C   UNL     1       3.965   6.425  18.599  0.00  0.00    +0.000 A 
ATOM      5  C   UNL     1       2.666   6.509  19.059  0.00  0.00    +0.000 A 
ATOM      6  S   UNL     1       1.933   4.971  19.041  0.00  0.00    +0.000 S 
ATOM      7  C   UNL     1       3.385   4.183  18.542  0.00  0.00    +0.000 A 
BRANCH   5   8
ATOM      8  C   UNL     1       1.936   7.713  19.483  0.00  0.00    +0.000 A 
ATOM      9  C   UNL     1       1.786   8.782  18.584  0.00  0.00    +0.000 A 
ATOM     10  C   UNL     1       1.150   9.965  18.967  0.00  0.00    +0.000 A 
ATOM     11  C   UNL     1       0.654  10.095  20.260  0.00  0.00    +0.000 A 
ATOM     12 CL   UNL     1      -0.124  11.555  20.731  0.00  0.00    +0.000 Cl
ATOM     13  C   UNL     1       0.789   9.052  21.172  0.00  0.00    +0.000 A 
ATOM     14  C   UNL     1       1.429   7.868  20.784  0.00  0.00    +0.000 A 
ENDBRANCH   5   8
BRANCH   7  15
ATOM     15  C   UNL     1       3.306   2.742  18.397  0.00  0.00    +0.000 C 
ATOM     16  O   UNL     1       2.476   1.998  18.905  0.00  0.00    +0.000 OA
BRANCH  15  17
ATOM     17  O   UNL     1       4.305   2.247  17.616  0.00  0.00    +0.000 OA
ATOM     18  H   UNL     1       5.151   2.189  18.104  0.00  0.00    +0.000 HD
ENDBRANCH  15  17
ENDBRANCH   7  15
ENDBRANCH   1   3
BRANCH   1  19
ATOM     19  P   UNL     1       6.571   5.302  16.583  0.00  0.00    +0.000 P 
ATOM     20  O   UNL     1       5.658   6.285  15.822  0.00  0.00    +0.000 OA
BRANCH  19  21
ATOM     21  C   UNL     1       7.383   6.690  17.456  0.00  0.00    +0.000 A 
ATOM     22  C   UNL     1       7.212   8.000  16.931  0.00  0.00    +0.000 A 
ATOM     23  C   UNL     1       7.807   9.134  17.496  0.00  0.00    +0.000 A 
ATOM     24  C   UNL     1       8.570   9.018  18.649  0.00  0.00    +0.000 A 
ATOM     25  C   UNL     1       9.221  10.212  19.283  0.00  0.00    +0.000 C 
ATOM     26  C   UNL     1       8.687   7.759  19.241  0.00  0.00    +0.000 A 
ATOM     27  C   UNL     1       8.074   6.607  18.691  0.00  0.00    +0.000 A 
ATOM     28  C   UNL     1       8.179   5.342  19.500  0.00  0.00    +0.000 C 
ENDBRANCH  19  21
BRANCH  19  29
ATOM     29  O   UNL     1       5.804   3.989  15.757  0.00  0.00    +0.000 OA
BRANCH  29  30
ATOM     30  C   UNL     1       5.431   4.335  14.422  0.00  0.00    +0.000 C 
BRANCH  30  31
ATOM     31  C   UNL     1       6.465   3.828  13.431  0.00  0.00    +0.000 C 
BRANCH  31  33
ATOM     32  C   UNL     1       6.806   2.383  11.401  0.00  0.00    +0.000 C 
ATOM     33  C   UNL     1       5.814   3.223  12.187  0.00  0.00    +0.000 C 
ENDBRANCH  31  33
ENDBRANCH  30  31
ENDBRANCH  29  30
ENDBRANCH  19  29
ENDBRANCH   1  19
TORSDOF 10
ENDMDL
MODEL 8
REMARK VINA RESULT:      -7.4      1.333      1.767
REMARK  Name = 
REMARK  13 active torsions:
REMARK  status: ('A' for Active; 'I' for Inactive)
REMARK    1  A    between atoms: C_1  and  C_2
REMARK    2  A    between atoms: C_2  and  C_3
REMARK    3  A    between atoms: C_3  and  C_4
REMARK    4  A    between atoms: C_4  and  O_5
REMARK    5  A    between atoms: O_5  and  P_6
REMARK    6  A    between atoms: P_6  and  N_8
REMARK    7  A    between atoms: P_6  and  C_24
REMARK    8  A    between atoms: N_8  and  C_9
REMARK    9  A    between atoms: C_11  and  C_12
REMARK   10  A    between atoms: C_20  and  C_21
REMARK   11  A    between atoms: C_21  and  O_23
REMARK   12  A    between atoms: C_27  and  C_28
REMARK   13  A    between atoms: C_30  and  C_31
REMARK                            x       y       z     vdW  Elec       q    Type
REMARK                         _______ _______ _______ _____ _____    ______ ____
ROOT
ATOM      1  N   UNL     1       4.686   5.967  16.239  0.00  0.00    +0.000 N 
ATOM      2  H   UNL     1       4.256   5.803  15.333  0.00  0.00    +0.000 HD
ENDROOT
BRANCH   1   3
ATOM      3  C   UNL     1       3.947   6.004  17.389  0.00  0.00    +0.000 A 
ATOM      4  C   UNL     1       3.163   7.126  17.792  0.00  0.00    +0.000 A 
ATOM      5  C   UNL     1       2.599   7.002  19.047  0.00  0.00    +0.000 A 
ATOM      6  S   UNL     1       2.852   5.431  19.654  0.00  0.00    +0.000 S 
ATOM      7  C   UNL     1       3.816   4.963  18.303  0.00  0.00    +0.000 A 
BRANCH   5   8
ATOM      8  C   UNL     1       1.843   8.015  19.798  0.00  0.00    +0.000 A 
ATOM      9  C   UNL     1       1.419   9.185  19.146  0.00  0.00    +0.000 A 
ATOM     10  C   UNL     1       0.748  10.196  19.839  0.00  0.00    +0.000 A 
ATOM     11  C   UNL     1       0.492  10.049  21.198  0.00  0.00    +0.000 A 
ATOM     12 CL   UNL     1      -0.328  11.297  22.050  0.00  0.00    +0.000 Cl
ATOM     13  C   UNL     1       0.901   8.900  21.869  0.00  0.00    +0.000 A 
ATOM     14  C   UNL     1       1.575   7.890  21.171  0.00  0.00    +0.000 A 
ENDBRANCH   5   8
BRANCH   7  15
ATOM     15  C   UNL     1       4.352   3.616  18.343  0.00  0.00    +0.000 C 
ATOM     16  O   UNL     1       3.891   2.626  17.787  0.00  0.00    +0.000 OA
BRANCH  15  17
ATOM     17  O   UNL     1       5.471   3.529  19.114  0.00  0.00    +0.000 OA
ATOM     18  H   UNL     1       5.362   2.879  19.838  0.00  0.00    +0.000 HD
ENDBRANCH  15  17
ENDBRANCH   7  15
ENDBRANCH   1   3
BRANCH   1  19
ATOM     19  P   UNL     1       6.460   5.907  16.132  0.00  0.00    +0.000 P 
ATOM     20  O   UNL     1       6.947   4.695  16.954  0.00  0.00    +0.000 OA
BRANCH  19  21
ATOM     21  C   UNL     1       6.413   4.890  14.612  0.00  0.00    +0.000 A 
ATOM     22  C   UNL     1       5.272   4.070  14.393  0.00  0.00    +0.000 A 
ATOM     23  C   UNL     1       5.136   3.229  13.282  0.00  0.00    +0.000 A 
ATOM     24  C   UNL     1       6.122   3.201  12.306  0.00  0.00    +0.000 A 
ATOM     25  C   UNL     1       6.010   2.314  11.101  0.00  0.00    +0.000 C 
ATOM     26  C   UNL     1       7.216   4.058  12.446  0.00  0.00    +0.000 A 
ATOM     27  C   UNL     1       7.355   4.929  13.553  0.00  0.00    +0.000 A 
ATOM     28  C   UNL     1       8.518   5.885  13.512  0.00  0.00    +0.000 C 
ENDBRANCH  19  21
BRANCH  19  29
ATOM     29  O   UNL     1       6.505   6.868  17.570  0.00  0.00    +0.000 OA
BRANCH  29  30
ATOM     30  C   UNL     1       7.813   7.372  17.842  0.00  0.00    +0.000 C 
BRANCH  30  31
ATOM     31  C   UNL     1       7.853   8.880  17.655  0.00  0.00    +0.000 C 
BRANCH  31  33
ATOM     32  C   UNL     1       9.083  11.002  18.211  0.00  0.00    +0.000 C 
ATOM     33  C   UNL     1       8.881   9.541  18.575  0.00  0.00    +0.000 C 
ENDBRANCH  31  33
ENDBRANCH  30  31
ENDBRANCH  29  30
ENDBRANCH  19  29
ENDBRANCH   1  19
TORSDOF 10
ENDMDL
MODEL 9
REMARK VINA RESULT:      -7.3      1.238      4.685
REMARK  Name = 
REMARK  13 active torsions:
REMARK  status: ('A' for Active; 'I' for Inactive)
REMARK    1  A    between atoms: C_1  and  C_2
REMARK    2  A    between atoms: C_2  and  C_3
REMARK    3  A    between atoms: C_3  and  C_4
REMARK    4  A    between atoms: C_4  and  O_5
REMARK    5  A    between atoms: O_5  and  P_6
REMARK    6  A    between atoms: P_6  and  N_8
REMARK    7  A    between atoms: P_6  and  C_24
REMARK    8  A    between atoms: N_8  and  C_9
REMARK    9  A    between atoms: C_11  and  C_12
REMARK   10  A    between atoms: C_20  and  C_21
REMARK   11  A    between atoms: C_21  and  O_23
REMARK   12  A    between atoms: C_27  and  C_28
REMARK   13  A    between atoms: C_30  and  C_31
REMARK                            x       y       z     vdW  Elec       q    Type
REMARK                         _______ _______ _______ _____ _____    ______ ____
ROOT
ATOM      1  N   UNL     1       5.623   4.484  17.626  0.00  0.00    +0.000 N 
ATOM      2  H   UNL     1       6.206   3.737  17.993  0.00  0.00    +0.000 HD
ENDROOT
BRANCH   1   3
ATOM      3  C   UNL     1       4.542   4.955  18.319  0.00  0.00    +0.000 A 
ATOM      4  C   UNL     1       3.903   6.201  18.039  0.00  0.00    +0.000 A 
ATOM      5  C   UNL     1       2.912   6.544  18.939  0.00  0.00    +0.000 A 
ATOM      6  S   UNL     1       2.614   5.253  20.009  0.00  0.00    +0.000 S 
ATOM      7  C   UNL     1       3.888   4.293  19.353  0.00  0.00    +0.000 A 
BRANCH   5   8
ATOM      8  C   UNL     1       2.152   7.801  19.004  0.00  0.00    +0.000 A 
ATOM      9  C   UNL     1       1.550   8.181  20.214  0.00  0.00    +0.000 A 
ATOM     10  C   UNL     1       0.772   9.339  20.303  0.00  0.00    +0.000 A 
ATOM     11  C   UNL     1       0.587  10.134  19.176  0.00  0.00    +0.000 A 
ATOM     12 CL   UNL     1      -0.376  11.554  19.285  0.00  0.00    +0.000 Cl
ATOM     13  C   UNL     1       1.172   9.781  17.963  0.00  0.00    +0.000 A 
ATOM     14  C   UNL     1       1.949   8.618  17.879  0.00  0.00    +0.000 A 
ENDBRANCH   5   8
BRANCH   7  15
ATOM     15  C   UNL     1       4.097   3.002  19.981  0.00  0.00    +0.000 C 
ATOM     16  O   UNL     1       3.435   2.512  20.888  0.00  0.00    +0.000 OA
BRANCH  15  17
ATOM     17  O   UNL     1       5.169   2.343  19.462  0.00  0.00    +0.000 OA
ATOM     18  H   UNL     1       4.895   1.631  18.849  0.00  0.00    +0.000 HD
ENDBRANCH  15  17
ENDBRANCH   7  15
ENDBRANCH   1   3
BRANCH   1  19
ATOM     19  P   UNL     1       6.353   5.228  16.186  0.00  0.00    +0.000 P 
ATOM     20  O   UNL     1       5.360   6.270  15.631  0.00  0.00    +0.000 OA
BRANCH  19  21
ATOM     21  C   UNL     1       7.191   6.516  17.180  0.00  0.00    +0.000 A 
ATOM     22  C   UNL     1       6.973   7.876  16.829  0.00  0.00    +0.000 A 
ATOM     23  C   UNL     1       7.581   8.946  17.497  0.00  0.00    +0.000 A 
ATOM     24  C   UNL     1       8.407   8.707  18.586  0.00  0.00    +0.000 A 
ATOM     25  C   UNL     1       9.074   9.828  19.327  0.00  0.00    +0.000 C 
ATOM     26  C   UNL     1       8.573   7.387  19.013  0.00  0.00    +0.000 A 
ATOM     27  C   UNL     1       7.948   6.298  18.359  0.00  0.00    +0.000 A 
ATOM     28  C   UNL     1       8.114   4.947  19.001  0.00  0.00    +0.000 C 
ENDBRANCH  19  21
BRANCH  19  29
ATOM     29  O   UNL     1       5.562   4.010  15.247  0.00  0.00    +0.000 OA
BRANCH  29  30
ATOM     30  C   UNL     1       6.196   3.805  13.984  0.00  0.00    +0.000 C 
BRANCH  30  31
ATOM     31  C   UNL     1       5.259   4.184  12.849  0.00  0.00    +0.000 C 
BRANCH  31  33
ATOM     32  C   UNL     1       3.886   3.246  10.961  0.00  0.00    +0.000 C 
ATOM     33  C   UNL     1       5.124   3.059  11.822  0.00  0.00    +0.000 C 
ENDBRANCH  31  33
ENDBRANCH  30  31
ENDBRANCH  29  30
ENDBRANCH  19  29
ENDBRANCH   1  19
TORSDOF 10
ENDMDL
