MODEL 1
REMARK VINA RESULT:      -6.7      0.000      0.000
REMARK  Name = 
REMARK  6 active torsions:
REMARK  status: ('A' for Active; 'I' for Inactive)
REMARK    1  A    between atoms: C_1  and  C_2
REMARK    2  A    between atoms: C_6  and  C_7
REMARK    3  A    between atoms: C_7  and  C_8
REMARK    4  A    between atoms: C_7  and  C_9
REMARK    5  A    between atoms: C_13  and  C_14
REMARK    6  A    between atoms: C_13  and  O_15
REMARK                            x       y       z     vdW  Elec       q    Type
REMARK                         _______ _______ _______ _____ _____    ______ ____
ROOT
ATOM      1  C   UNL     1       2.466   6.235  18.816  0.00  0.00    +0.000 C 
ATOM      2  C   UNL     1       2.983   5.189  17.871  0.00  0.00    +0.000 A 
ATOM      3  C   UNL     1       4.296   5.064  17.598  0.00  0.00    +0.000 A 
ATOM      4  C   UNL     1       4.952   3.977  16.899  0.00  0.00    +0.000 A 
ATOM      5  C   UNL     1       4.611   2.707  17.239  0.00  0.00    +0.000 A 
ATOM      6  C   UNL     1       3.515   2.418  18.196  0.00  0.00    +0.000 A 
ATOM      7  C   UNL     1       2.286   2.660  17.692  0.00  0.00    +0.000 A 
ATOM      8  C   UNL     1       1.964   4.134  17.469  0.00  0.00    +0.000 A 
ATOM      9  O   UNL     1       0.806   4.459  17.195  0.00  0.00    +0.000 OA
ATOM     10  C   UNL     1       6.389   4.377  16.299  0.00  0.00    +0.000 C 
ATOM     11  C   UNL     1       5.697   4.808  14.943  0.00  0.00    +0.000 C 
ATOM     12  C   UNL     1       6.592   4.746  17.837  0.00  0.00    +0.000 C 
ATOM     13  C   UNL     1       5.474   5.745  18.224  0.00  0.00    +0.000 C 
ENDROOT
BRANCH   6  14
ATOM     14  C   UNL     1       3.790   2.748  19.706  0.00  0.00    +0.000 C 
ATOM     15  C   UNL     1       2.564   2.846  20.643  0.00  0.00    +0.000 C 
ATOM     16  C   UNL     1       4.922   1.974  20.402  0.00  0.00    +0.000 C 
ENDBRANCH   6  14
BRANCH  10  17
ATOM     17  O   UNL     1       7.142   5.658  16.123  0.00  0.00    +0.000 OA
ATOM     18  H   UNL     1       7.064   6.132  16.972  0.00  0.00    +0.000 HD
ENDBRANCH  10  17
TORSDOF 2
ENDMDL
MODEL 2
REMARK VINA RESULT:      -6.3      1.646      2.958
REMARK  Name = 
REMARK  6 active torsions:
REMARK  status: ('A' for Active; 'I' for Inactive)
REMARK    1  A    between atoms: C_1  and  C_2
REMARK    2  A    between atoms: C_6  and  C_7
REMARK    3  A    between atoms: C_7  and  C_8
REMARK    4  A    between atoms: C_7  and  C_9
REMARK    5  A    between atoms: C_13  and  C_14
REMARK    6  A    between atoms: C_13  and  O_15
REMARK                            x       y       z     vdW  Elec       q    Type
REMARK                         _______ _______ _______ _____ _____    ______ ____
ROOT
ATOM      1  C   UNL     1       2.851   2.949  16.452  0.00  0.00    +0.000 C 
ATOM      2  C   UNL     1       3.930   3.262  17.448  0.00  0.00    +0.000 A 
ATOM      3  C   UNL     1       4.720   4.345  17.325  0.00  0.00    +0.000 A 
ATOM      4  C   UNL     1       5.632   4.889  18.310  0.00  0.00    +0.000 A 
ATOM      5  C   UNL     1       5.187   5.008  19.589  0.00  0.00    +0.000 A 
ATOM      6  C   UNL     1       3.865   4.485  20.011  0.00  0.00    +0.000 A 
ATOM      7  C   UNL     1       3.817   3.136  20.073  0.00  0.00    +0.000 A 
ATOM      8  C   UNL     1       3.880   2.431  18.721  0.00  0.00    +0.000 A 
ATOM      9  O   UNL     1       3.652   1.220  18.667  0.00  0.00    +0.000 OA
ATOM     10  C   UNL     1       6.769   5.833  17.678  0.00  0.00    +0.000 C 
ATOM     11  C   UNL     1       7.718   4.577  17.521  0.00  0.00    +0.000 C 
ATOM     12  C   UNL     1       5.450   6.551  17.141  0.00  0.00    +0.000 C 
ATOM     13  C   UNL     1       4.632   5.490  16.363  0.00  0.00    +0.000 C 
ENDROOT
BRANCH   6  14
ATOM     14  C   UNL     1       2.601   5.262  19.499  0.00  0.00    +0.000 C 
ATOM     15  C   UNL     1       1.220   4.765  19.984  0.00  0.00    +0.000 C 
ATOM     16  C   UNL     1       2.651   6.798  19.547  0.00  0.00    +0.000 C 
ENDBRANCH   6  14
BRANCH  10  17
ATOM     17  O   UNL     1       7.234   6.145  16.291  0.00  0.00    +0.000 OA
ATOM     18  H   UNL     1       6.924   7.049  16.102  0.00  0.00    +0.000 HD
ENDBRANCH  10  17
TORSDOF 2
ENDMDL
MODEL 3
REMARK VINA RESULT:      -6.1      1.616      3.370
REMARK  Name = 
REMARK  6 active torsions:
REMARK  status: ('A' for Active; 'I' for Inactive)
REMARK    1  A    between atoms: C_1  and  C_2
REMARK    2  A    between atoms: C_6  and  C_7
REMARK    3  A    between atoms: C_7  and  C_8
REMARK    4  A    between atoms: C_7  and  C_9
REMARK    5  A    between atoms: C_13  and  C_14
REMARK    6  A    between atoms: C_13  and  O_15
REMARK                            x       y       z     vdW  Elec       q    Type
REMARK                         _______ _______ _______ _____ _____    ______ ____
ROOT
ATOM      1  C   UNL     1       3.176   2.191  17.429  0.00  0.00    +0.000 C 
ATOM      2  C   UNL     1       4.140   3.142  18.079  0.00  0.00    +0.000 A 
ATOM      3  C   UNL     1       4.939   3.949  17.356  0.00  0.00    +0.000 A 
ATOM      4  C   UNL     1       5.739   5.058  17.835  0.00  0.00    +0.000 A 
ATOM      5  C   UNL     1       5.158   5.933  18.697  0.00  0.00    +0.000 A 
ATOM      6  C   UNL     1       3.797   5.709  19.244  0.00  0.00    +0.000 A 
ATOM      7  C   UNL     1       3.742   4.710  20.152  0.00  0.00    +0.000 A 
ATOM      8  C   UNL     1       3.952   3.312  19.578  0.00  0.00    +0.000 A 
ATOM      9  O   UNL     1       3.731   2.332  20.294  0.00  0.00    +0.000 OA
ATOM     10  C   UNL     1       6.938   5.460  16.843  0.00  0.00    +0.000 C 
ATOM     11  C   UNL     1       7.898   4.461  17.608  0.00  0.00    +0.000 C 
ATOM     12  C   UNL     1       5.686   5.576  15.863  0.00  0.00    +0.000 C 
ATOM     13  C   UNL     1       4.957   4.209  15.881  0.00  0.00    +0.000 C 
ENDROOT
BRANCH   6  14
ATOM     14  C   UNL     1       2.596   5.891  18.249  0.00  0.00    +0.000 C 
ATOM     15  C   UNL     1       1.317   5.069  18.527  0.00  0.00    +0.000 C 
ATOM     16  C   UNL     1       2.221   7.329  17.854  0.00  0.00    +0.000 C 
ENDBRANCH   6  14
BRANCH  10  17
ATOM     17  O   UNL     1       7.551   4.847  15.624  0.00  0.00    +0.000 OA
ATOM     18  H   UNL     1       8.390   4.448  15.918  0.00  0.00    +0.000 HD
ENDBRANCH  10  17
TORSDOF 2
ENDMDL
MODEL 4
REMARK VINA RESULT:      -5.9      1.932      3.563
REMARK  Name = 
REMARK  6 active torsions:
REMARK  status: ('A' for Active; 'I' for Inactive)
REMARK    1  A    between atoms: C_1  and  C_2
REMARK    2  A    between atoms: C_6  and  C_7
REMARK    3  A    between atoms: C_7  and  C_8
REMARK    4  A    between atoms: C_7  and  C_9
REMARK    5  A    between atoms: C_13  and  C_14
REMARK    6  A    between atoms: C_13  and  O_15
REMARK                            x       y       z     vdW  Elec       q    Type
REMARK                         _______ _______ _______ _____ _____    ______ ____
ROOT
ATOM      1  C   UNL     1       4.156   1.132  18.750  0.00  0.00    +0.000 C 
ATOM      2  C   UNL     1       4.300   2.514  19.320  0.00  0.00    +0.000 A 
ATOM      3  C   UNL     1       4.710   3.554  18.569  0.00  0.00    +0.000 A 
ATOM      4  C   UNL     1       4.677   4.960  18.916  0.00  0.00    +0.000 A 
ATOM      5  C   UNL     1       3.541   5.448  19.479  0.00  0.00    +0.000 A 
ATOM      6  C   UNL     1       2.410   4.565  19.855  0.00  0.00    +0.000 A 
ATOM      7  C   UNL     1       2.666   3.795  20.934  0.00  0.00    +0.000 A 
ATOM      8  C   UNL     1       3.700   2.696  20.706  0.00  0.00    +0.000 A 
ATOM      9  O   UNL     1       3.856   1.832  21.572  0.00  0.00    +0.000 OA
ATOM     10  C   UNL     1       5.690   5.858  18.049  0.00  0.00    +0.000 C 
ATOM     11  C   UNL     1       6.814   5.633  19.140  0.00  0.00    +0.000 C 
ATOM     12  C   UNL     1       4.835   5.169  16.893  0.00  0.00    +0.000 C 
ATOM     13  C   UNL     1       4.941   3.636  17.092  0.00  0.00    +0.000 C 
ENDROOT
BRANCH   6  14
ATOM     14  C   UNL     1       1.566   3.958  18.678  0.00  0.00    +0.000 C 
ATOM     15  C   UNL     1       0.362   3.065  19.058  0.00  0.00    +0.000 C 
ATOM     16  C   UNL     1       1.176   4.903  17.530  0.00  0.00    +0.000 C 
ENDBRANCH   6  14
BRANCH  10  17
ATOM     17  O   UNL     1       6.802   5.570  17.091  0.00  0.00    +0.000 OA
ATOM     18  H   UNL     1       6.898   6.372  16.545  0.00  0.00    +0.000 HD
ENDBRANCH  10  17
TORSDOF 2
ENDMDL
MODEL 5
REMARK VINA RESULT:      -5.7      1.795      4.813
REMARK  Name = 
REMARK  6 active torsions:
REMARK  status: ('A' for Active; 'I' for Inactive)
REMARK    1  A    between atoms: C_1  and  C_2
REMARK    2  A    between atoms: C_6  and  C_7
REMARK    3  A    between atoms: C_7  and  C_8
REMARK    4  A    between atoms: C_7  and  C_9
REMARK    5  A    between atoms: C_13  and  C_14
REMARK    6  A    between atoms: C_13  and  O_15
REMARK                            x       y       z     vdW  Elec       q    Type
REMARK                         _______ _______ _______ _____ _____    ______ ____
ROOT
ATOM      1  C   UNL     1       7.157   5.178  19.649  0.00  0.00    +0.000 C 
ATOM      2  C   UNL     1       6.302   4.505  18.614  0.00  0.00    +0.000 A 
ATOM      3  C   UNL     1       5.025   4.159  18.863  0.00  0.00    +0.000 A 
ATOM      4  C   UNL     1       4.027   3.720  17.908  0.00  0.00    +0.000 A 
ATOM      5  C   UNL     1       3.910   4.416  16.748  0.00  0.00    +0.000 A 
ATOM      6  C   UNL     1       4.847   5.510  16.392  0.00  0.00    +0.000 A 
ATOM      7  C   UNL     1       6.080   5.072  16.056  0.00  0.00    +0.000 A 
ATOM      8  C   UNL     1       6.890   4.493  17.212  0.00  0.00    +0.000 A 
ATOM      9  O   UNL     1       8.086   4.246  17.039  0.00  0.00    +0.000 OA
ATOM     10  C   UNL     1       2.812   2.908  18.579  0.00  0.00    +0.000 C 
ATOM     11  C   UNL     1       3.599   1.554  18.352  0.00  0.00    +0.000 C 
ATOM     12  C   UNL     1       2.762   4.266  19.412  0.00  0.00    +0.000 C 
ATOM     13  C   UNL     1       4.160   4.471  20.046  0.00  0.00    +0.000 C 
ENDROOT
BRANCH   6  14
ATOM     14  C   UNL     1       4.717   6.846  17.207  0.00  0.00    +0.000 C 
ATOM     15  C   UNL     1       5.850   7.885  17.048  0.00  0.00    +0.000 C 
ATOM     16  C   UNL     1       3.351   7.552  17.188  0.00  0.00    +0.000 C 
ENDBRANCH   6  14
BRANCH  10  17
ATOM     17  O   UNL     1       2.547   2.330  19.933  0.00  0.00    +0.000 OA
ATOM     18  H   UNL     1       2.755   1.380  19.863  0.00  0.00    +0.000 HD
ENDBRANCH  10  17
TORSDOF 2
ENDMDL
MODEL 6
REMARK VINA RESULT:      -5.7      1.587      4.512
REMARK  Name = 
REMARK  6 active torsions:
REMARK  status: ('A' for Active; 'I' for Inactive)
REMARK    1  A    between atoms: C_1  and  C_2
REMARK    2  A    between atoms: C_6  and  C_7
REMARK    3  A    between atoms: C_7  and  C_8
REMARK    4  A    between atoms: C_7  and  C_9
REMARK    5  A    between atoms: C_13  and  C_14
REMARK    6  A    between atoms: C_13  and  O_15
REMARK                            x       y       z     vdW  Elec       q    Type
REMARK                         _______ _______ _______ _____ _____    ______ ____
ROOT
ATOM      1  C   UNL     1       6.059   4.267  14.996  0.00  0.00    +0.000 C 
ATOM      2  C   UNL     1       5.033   4.939  15.861  0.00  0.00    +0.000 A 
ATOM      3  C   UNL     1       4.394   4.283  16.848  0.00  0.00    +0.000 A 
ATOM      4  C   UNL     1       3.564   4.849  17.892  0.00  0.00    +0.000 A 
ATOM      5  C   UNL     1       4.021   5.954  18.537  0.00  0.00    +0.000 A 
ATOM      6  C   UNL     1       5.263   6.649  18.118  0.00  0.00    +0.000 A 
ATOM      7  C   UNL     1       5.131   7.328  16.957  0.00  0.00    +0.000 A 
ATOM      8  C   UNL     1       4.972   6.453  15.718  0.00  0.00    +0.000 A 
ATOM      9  O   UNL     1       5.036   6.976  14.603  0.00  0.00    +0.000 OA
ATOM     10  C   UNL     1       2.562   3.785  18.562  0.00  0.00    +0.000 C 
ATOM     11  C   UNL     1       1.454   4.166  17.498  0.00  0.00    +0.000 C 
ATOM     12  C   UNL     1       3.964   3.060  18.785  0.00  0.00    +0.000 C 
ATOM     13  C   UNL     1       4.632   2.909  17.396  0.00  0.00    +0.000 C 
ENDROOT
BRANCH   6  14
ATOM     14  C   UNL     1       6.619   5.915  18.412  0.00  0.00    +0.000 C 
ATOM     15  C   UNL     1       7.923   6.683  18.095  0.00  0.00    +0.000 C 
ATOM     16  C   UNL     1       6.751   5.194  19.763  0.00  0.00    +0.000 C 
ENDBRANCH   6  14
BRANCH  10  17
ATOM     17  O   UNL     1       2.142   2.385  18.246  0.00  0.00    +0.000 OA
ATOM     18  H   UNL     1       2.242   2.287  17.281  0.00  0.00    +0.000 HD
ENDBRANCH  10  17
TORSDOF 2
ENDMDL
MODEL 7
REMARK VINA RESULT:      -5.5      9.324     11.816
REMARK  Name = 
REMARK  6 active torsions:
REMARK  status: ('A' for Active; 'I' for Inactive)
REMARK    1  A    between atoms: C_1  and  C_2
REMARK    2  A    between atoms: C_6  and  C_7
REMARK    3  A    between atoms: C_7  and  C_8
REMARK    4  A    between atoms: C_7  and  C_9
REMARK    5  A    between atoms: C_13  and  C_14
REMARK    6  A    between atoms: C_13  and  O_15
REMARK                            x       y       z     vdW  Elec       q    Type
REMARK                         _______ _______ _______ _____ _____    ______ ____
ROOT
ATOM      1  C   UNL     1       7.341  14.682  17.841  0.00  0.00    +0.000 C 
ATOM      2  C   UNL     1       8.339  14.270  18.884  0.00  0.00    +0.000 A 
ATOM      3  C   UNL     1       8.899  13.045  18.888  0.00  0.00    +0.000 A 
ATOM      4  C   UNL     1      10.025  12.592  19.678  0.00  0.00    +0.000 A 
ATOM      5  C   UNL     1      11.114  13.400  19.753  0.00  0.00    +0.000 A 
ATOM      6  C   UNL     1      11.123  14.761  19.162  0.00  0.00    +0.000 A 
ATOM      7  C   UNL     1      10.364  15.647  19.844  0.00  0.00    +0.000 A 
ATOM      8  C   UNL     1       8.861  15.406  19.751  0.00  0.00    +0.000 A 
ATOM      9  O   UNL     1       8.089  16.267  20.180  0.00  0.00    +0.000 OA
ATOM     10  C   UNL     1      10.099  10.993  19.831  0.00  0.00    +0.000 C 
ATOM     11  C   UNL     1       9.231  11.084  21.151  0.00  0.00    +0.000 C 
ATOM     12  C   UNL     1      10.082  11.143  18.244  0.00  0.00    +0.000 C 
ATOM     13  C   UNL     1       8.814  11.949  17.870  0.00  0.00    +0.000 C 
ENDROOT
BRANCH   6  14
ATOM     14  C   UNL     1      11.163  14.851  17.595  0.00  0.00    +0.000 C 
ATOM     15  C   UNL     1      11.253  16.262  16.969  0.00  0.00    +0.000 C 
ATOM     16  C   UNL     1      12.110  13.889  16.858  0.00  0.00    +0.000 C 
ENDBRANCH   6  14
BRANCH  10  17
ATOM     17  O   UNL     1       9.180   9.857  19.509  0.00  0.00    +0.000 OA
ATOM     18  H   UNL     1       8.914   9.477  20.367  0.00  0.00    +0.000 HD
ENDBRANCH  10  17
TORSDOF 2
ENDMDL
MODEL 8
REMARK VINA RESULT:      -5.4      9.994     12.167
REMARK  Name = 
REMARK  6 active torsions:
REMARK  status: ('A' for Active; 'I' for Inactive)
REMARK    1  A    between atoms: C_1  and  C_2
REMARK    2  A    between atoms: C_6  and  C_7
REMARK    3  A    between atoms: C_7  and  C_8
REMARK    4  A    between atoms: C_7  and  C_9
REMARK    5  A    between atoms: C_13  and  C_14
REMARK    6  A    between atoms: C_13  and  O_15
REMARK                            x       y       z     vdW  Elec       q    Type
REMARK                         _______ _______ _______ _____ _____    ______ ____
ROOT
ATOM      1  C   UNL     1       8.231  12.715  17.504  0.00  0.00    +0.000 C 
ATOM      2  C   UNL     1       9.598  13.205  17.884  0.00  0.00    +0.000 A 
ATOM      3  C   UNL     1       9.845  14.506  18.132  0.00  0.00    +0.000 A 
ATOM      4  C   UNL     1      11.037  15.082  18.720  0.00  0.00    +0.000 A 
ATOM      5  C   UNL     1      11.554  14.482  19.823  0.00  0.00    +0.000 A 
ATOM      6  C   UNL     1      11.010  13.205  20.349  0.00  0.00    +0.000 A 
ATOM      7  C   UNL     1      11.306  12.138  19.575  0.00  0.00    +0.000 A 
ATOM      8  C   UNL     1      10.595  12.109  18.226  0.00  0.00    +0.000 A 
ATOM      9  O   UNL     1      10.657  11.086  17.539  0.00  0.00    +0.000 OA
ATOM     10  C   UNL     1      11.218  16.647  18.398  0.00  0.00    +0.000 C 
ATOM     11  C   UNL     1      12.054  16.279  17.106  0.00  0.00    +0.000 C 
ATOM     12  C   UNL     1       9.767  16.642  19.061  0.00  0.00    +0.000 C 
ATOM     13  C   UNL     1       8.892  15.656  18.248  0.00  0.00    +0.000 C 
ENDROOT
BRANCH   6  14
ATOM     14  C   UNL     1       9.602  13.268  21.041  0.00  0.00    +0.000 C 
ATOM     15  C   UNL     1       9.015  11.940  21.571  0.00  0.00    +0.000 C 
ATOM     16  C   UNL     1       9.372  14.389  22.067  0.00  0.00    +0.000 C 
ENDBRANCH   6  14
BRANCH  10  17
ATOM     17  O   UNL     1      10.550  17.621  17.480  0.00  0.00    +0.000 OA
ATOM     18  H   UNL     1      11.221  18.297  17.273  0.00  0.00    +0.000 HD
ENDBRANCH  10  17
TORSDOF 2
ENDMDL
MODEL 9
REMARK VINA RESULT:      -5.4     10.906     12.744
REMARK  Name = 
REMARK  6 active torsions:
REMARK  status: ('A' for Active; 'I' for Inactive)
REMARK    1  A    between atoms: C_1  and  C_2
REMARK    2  A    between atoms: C_6  and  C_7
REMARK    3  A    between atoms: C_7  and  C_8
REMARK    4  A    between atoms: C_7  and  C_9
REMARK    5  A    between atoms: C_13  and  C_14
REMARK    6  A    between atoms: C_13  and  O_15
REMARK                            x       y       z     vdW  Elec       q    Type
REMARK                         _______ _______ _______ _____ _____    ______ ____
ROOT
ATOM      1  C   UNL     1       7.562  14.179  17.932  0.00  0.00    +0.000 C 
ATOM      2  C   UNL     1       8.748  14.173  18.853  0.00  0.00    +0.000 A 
ATOM      3  C   UNL     1       9.954  13.723  18.457  0.00  0.00    +0.000 A 
ATOM      4  C   UNL     1      11.220  13.867  19.148  0.00  0.00    +0.000 A 
ATOM      5  C   UNL     1      11.528  15.086  19.661  0.00  0.00    +0.000 A 
ATOM      6  C   UNL     1      10.562  16.212  19.642  0.00  0.00    +0.000 A 
ATOM      7  C   UNL     1       9.539  16.056  20.511  0.00  0.00    +0.000 A 
ATOM      8  C   UNL     1       8.554  14.950  20.146  0.00  0.00    +0.000 A 
ATOM      9  O   UNL     1       7.495  14.862  20.773  0.00  0.00    +0.000 OA
ATOM     10  C   UNL     1      12.327  12.797  18.684  0.00  0.00    +0.000 C 
ATOM     11  C   UNL     1      11.840  11.808  19.820  0.00  0.00    +0.000 C 
ATOM     12  C   UNL     1      11.953  13.468  17.286  0.00  0.00    +0.000 C 
ATOM     13  C   UNL     1      10.424  13.314  17.095  0.00  0.00    +0.000 C 
ENDROOT
BRANCH   6  14
ATOM     14  C   UNL     1      10.273  16.872  18.247  0.00  0.00    +0.000 C 
ATOM     15  C   UNL     1       9.196  17.980  18.199  0.00  0.00    +0.000 C 
ATOM     16  C   UNL     1      11.486  17.282  17.397  0.00  0.00    +0.000 C 
ENDBRANCH   6  14
BRANCH  10  17
ATOM     17  O   UNL     1      12.315  11.562  17.840  0.00  0.00    +0.000 OA
ATOM     18  H   UNL     1      12.451  10.817  18.454  0.00  0.00    +0.000 HD
ENDBRANCH  10  17
TORSDOF 2
ENDMDL
