MODEL 1
REMARK VINA RESULT:      -8.6      0.000      0.000
REMARK  Name = 
REMARK  13 active torsions:
REMARK  status: ('A' for Active; 'I' for Inactive)
REMARK    1  A    between atoms: C_1  and  C_2
REMARK    2  A    between atoms: C_4  and  O_5
REMARK    3  A    between atoms: C_7  and  C_8
REMARK    4  A    between atoms: C_9  and  C_10
REMARK    5  A    between atoms: C_10  and  C_11
REMARK    6  A    between atoms: C_11  and  N_12
REMARK    7  A    between atoms: C_11  and  C_13
REMARK    8  A    between atoms: N_15  and  C_16
REMARK    9  A    between atoms: C_16  and  C_17
REMARK   10  A    between atoms: C_19  and  C_20
REMARK   11  A    between atoms: C_20  and  C_21
REMARK   12  A    between atoms: C_29  and  O_30
REMARK   13  A    between atoms: O_30  and  C_31
REMARK                            x       y       z     vdW  Elec       q    Type
REMARK                         _______ _______ _______ _____ _____    ______ ____
ROOT
ATOM      1  C   UNL     1       2.683   3.573  18.894  0.00  0.00    +0.000 C 
ATOM      2  O   UNL     1       2.340   2.429  18.578  0.00  0.00    +0.000 OA
ATOM      3  N   UNL     1       4.013   3.962  18.870  0.00  0.00    +0.000 N 
ATOM      4  H   UNL     1       4.230   4.932  19.040  0.00  0.00    +0.000 HD
ENDROOT
BRANCH   1   5
ATOM      5  C   UNL     1       1.665   4.662  19.384  0.00  0.00    +0.000 C 
BRANCH   5   6
ATOM      6  N   UNL     1       0.668   4.076  20.306  0.00  0.00    +0.000 NA
ATOM      7  H   UNL     1       0.195   4.803  20.830  0.00  0.00    +0.000 HD
ATOM      8  H   UNL     1       1.113   3.428  20.949  0.00  0.00    +0.000 HD
ENDBRANCH   5   6
BRANCH   5   9
ATOM      9  C   UNL     1       2.438   5.853  20.018  0.00  0.00    +0.000 C 
BRANCH   9  17
ATOM     10  C   UNL     1       0.865   7.800  21.627  0.00  0.00    +0.000 C 
ATOM     11  C   UNL     1       1.394   8.162  20.260  0.00  0.00    +0.000 A 
ATOM     12  C   UNL     1       0.990   9.395  19.717  0.00  0.00    +0.000 A 
ATOM     13  C   UNL     1       1.394   9.779  18.457  0.00  0.00    +0.000 A 
ATOM     14  C   UNL     1       2.251   8.978  17.735  0.00  0.00    +0.000 A 
ATOM     15  C   UNL     1       2.734   7.765  18.265  0.00  0.00    +0.000 A 
ATOM     16  C   UNL     1       3.733   7.083  17.373  0.00  0.00    +0.000 C 
ATOM     17  C   UNL     1       2.242   7.287  19.515  0.00  0.00    +0.000 A 
BRANCH  13  18
ATOM     18  O   UNL     1       0.993  10.944  17.883  0.00  0.00    +0.000 OA
ATOM     19  H   UNL     1       0.029  10.997  17.934  0.00  0.00    +0.000 HD
ENDBRANCH  13  18
ENDBRANCH   9  17
ENDBRANCH   5   9
ENDBRANCH   1   5
BRANCH   3  20
ATOM     20  C   UNL     1       5.045   3.191  18.176  0.00  0.00    +0.000 C 
BRANCH  20  21
ATOM     21  C   UNL     1       5.732   3.966  17.058  0.00  0.00    +0.000 A 
ATOM     22  C   UNL     1       5.157   3.962  15.776  0.00  0.00    +0.000 A 
ATOM     23  C   UNL     1       5.796   4.445  14.630  0.00  0.00    +0.000 A 
ATOM     24  C   UNL     1       7.067   4.988  14.772  0.00  0.00    +0.000 A 
ATOM     25  C   UNL     1       7.641   5.088  16.048  0.00  0.00    +0.000 A 
ATOM     26  C   UNL     1       6.973   4.618  17.197  0.00  0.00    +0.000 A 
BRANCH  23  27
ATOM     27  C   UNL     1       5.109   4.308  13.292  0.00  0.00    +0.000 C 
BRANCH  27  28
ATOM     28  C   UNL     1       5.746   3.316  12.341  0.00  0.00    +0.000 A 
ATOM     29  C   UNL     1       7.099   3.436  12.001  0.00  0.00    +0.000 A 
ATOM     30  C   UNL     1       7.719   2.498  11.170  0.00  0.00    +0.000 A 
ATOM     31  C   UNL     1       7.012   1.392  10.711  0.00  0.00    +0.000 A 
ATOM     32  C   UNL     1       5.665   1.285  11.016  0.00  0.00    +0.000 A 
ATOM     33  C   UNL     1       5.031   2.256  11.808  0.00  0.00    +0.000 A 
ENDBRANCH  27  28
ENDBRANCH  23  27
BRANCH  26  34
ATOM     34  O   UNL     1       7.709   4.661  18.346  0.00  0.00    +0.000 OA
BRANCH  34  35
ATOM     35  C   UNL     1       7.589   5.814  19.174  0.00  0.00    +0.000 C 
ATOM     36  F   UNL     1       8.436   6.811  18.852  0.00  0.00    +0.000 F 
ATOM     37  F   UNL     1       6.326   6.281  19.053  0.00  0.00    +0.000 F 
ATOM     38  F   UNL     1       7.793   5.491  20.469  0.00  0.00    +0.000 F 
ENDBRANCH  34  35
ENDBRANCH  26  34
ENDBRANCH  20  21
ENDBRANCH   3  20
TORSDOF 11
ENDMDL
MODEL 2
REMARK VINA RESULT:      -8.1      1.694      3.773
REMARK  Name = 
REMARK  13 active torsions:
REMARK  status: ('A' for Active; 'I' for Inactive)
REMARK    1  A    between atoms: C_1  and  C_2
REMARK    2  A    between atoms: C_4  and  O_5
REMARK    3  A    between atoms: C_7  and  C_8
REMARK    4  A    between atoms: C_9  and  C_10
REMARK    5  A    between atoms: C_10  and  C_11
REMARK    6  A    between atoms: C_11  and  N_12
REMARK    7  A    between atoms: C_11  and  C_13
REMARK    8  A    between atoms: N_15  and  C_16
REMARK    9  A    between atoms: C_16  and  C_17
REMARK   10  A    between atoms: C_19  and  C_20
REMARK   11  A    between atoms: C_20  and  C_21
REMARK   12  A    between atoms: C_29  and  O_30
REMARK   13  A    between atoms: O_30  and  C_31
REMARK                            x       y       z     vdW  Elec       q    Type
REMARK                         _______ _______ _______ _____ _____    ______ ____
ROOT
ATOM      1  C   UNL     1       2.653   6.906  18.896  0.00  0.00    +0.000 C 
ATOM      2  O   UNL     1       1.971   7.555  18.097  0.00  0.00    +0.000 OA
ATOM      3  N   UNL     1       3.922   6.457  18.567  0.00  0.00    +0.000 N 
ATOM      4  H   UNL     1       4.475   6.020  19.288  0.00  0.00    +0.000 HD
ENDROOT
BRANCH   1   5
ATOM      5  C   UNL     1       2.137   6.500  20.322  0.00  0.00    +0.000 C 
BRANCH   5   6
ATOM      6  N   UNL     1       1.434   7.630  20.970  0.00  0.00    +0.000 NA
ATOM      7  H   UNL     1       0.500   7.734  20.592  0.00  0.00    +0.000 HD
ATOM      8  H   UNL     1       1.952   8.494  20.843  0.00  0.00    +0.000 HD
ENDBRANCH   5   6
BRANCH   5   9
ATOM      9  C   UNL     1       1.250   5.229  20.215  0.00  0.00    +0.000 C 
BRANCH   9  17
ATOM     10  C   UNL     1       2.350   3.157  22.045  0.00  0.00    +0.000 C 
ATOM     11  C   UNL     1       2.420   2.993  20.545  0.00  0.00    +0.000 A 
ATOM     12  C   UNL     1       3.155   1.900  20.050  0.00  0.00    +0.000 A 
ATOM     13  C   UNL     1       3.302   1.705  18.693  0.00  0.00    +0.000 A 
ATOM     14  C   UNL     1       2.678   2.552  17.805  0.00  0.00    +0.000 A 
ATOM     15  C   UNL     1       1.878   3.622  18.255  0.00  0.00    +0.000 A 
ATOM     16  C   UNL     1       1.204   4.369  17.141  0.00  0.00    +0.000 C 
ATOM     17  C   UNL     1       1.803   3.916  19.649  0.00  0.00    +0.000 A 
BRANCH  13  18
ATOM     18  O   UNL     1       4.036   0.685  18.177  0.00  0.00    +0.000 OA
ATOM     19  H   UNL     1       3.435  -0.029  17.920  0.00  0.00    +0.000 HD
ENDBRANCH  13  18
ENDBRANCH   9  17
ENDBRANCH   5   9
ENDBRANCH   1   5
BRANCH   3  20
ATOM     20  C   UNL     1       4.667   6.978  17.421  0.00  0.00    +0.000 C 
BRANCH  20  21
ATOM     21  C   UNL     1       5.399   5.899  16.631  0.00  0.00    +0.000 A 
ATOM     22  C   UNL     1       5.157   5.786  15.252  0.00  0.00    +0.000 A 
ATOM     23  C   UNL     1       5.592   4.714  14.467  0.00  0.00    +0.000 A 
ATOM     24  C   UNL     1       6.332   3.712  15.083  0.00  0.00    +0.000 A 
ATOM     25  C   UNL     1       6.667   3.831  16.440  0.00  0.00    +0.000 A 
ATOM     26  C   UNL     1       6.241   4.931  17.212  0.00  0.00    +0.000 A 
BRANCH  23  27
ATOM     27  C   UNL     1       5.197   4.662  13.010  0.00  0.00    +0.000 C 
BRANCH  27  28
ATOM     28  C   UNL     1       5.809   3.524  12.219  0.00  0.00    +0.000 A 
ATOM     29  C   UNL     1       7.171   3.542  11.898  0.00  0.00    +0.000 A 
ATOM     30  C   UNL     1       7.766   2.474  11.218  0.00  0.00    +0.000 A 
ATOM     31  C   UNL     1       7.020   1.345  10.899  0.00  0.00    +0.000 A 
ATOM     32  C   UNL     1       5.665   1.334  11.184  0.00  0.00    +0.000 A 
ATOM     33  C   UNL     1       5.059   2.429  11.820  0.00  0.00    +0.000 A 
ENDBRANCH  27  28
ENDBRANCH  23  27
BRANCH  26  34
ATOM     34  O   UNL     1       6.529   4.843  18.544  0.00  0.00    +0.000 OA
BRANCH  34  35
ATOM     35  C   UNL     1       7.765   5.385  18.998  0.00  0.00    +0.000 C 
ATOM     36  F   UNL     1       8.830   4.592  18.767  0.00  0.00    +0.000 F 
ATOM     37  F   UNL     1       7.966   6.556  18.352  0.00  0.00    +0.000 F 
ATOM     38  F   UNL     1       7.713   5.643  20.322  0.00  0.00    +0.000 F 
ENDBRANCH  34  35
ENDBRANCH  26  34
ENDBRANCH  20  21
ENDBRANCH   3  20
TORSDOF 11
ENDMDL
MODEL 3
REMARK VINA RESULT:      -8.1      4.481      7.309
REMARK  Name = 
REMARK  13 active torsions:
REMARK  status: ('A' for Active; 'I' for Inactive)
REMARK    1  A    between atoms: C_1  and  C_2
REMARK    2  A    between atoms: C_4  and  O_5
REMARK    3  A    between atoms: C_7  and  C_8
REMARK    4  A    between atoms: C_9  and  C_10
REMARK    5  A    between atoms: C_10  and  C_11
REMARK    6  A    between atoms: C_11  and  N_12
REMARK    7  A    between atoms: C_11  and  C_13
REMARK    8  A    between atoms: N_15  and  C_16
REMARK    9  A    between atoms: C_16  and  C_17
REMARK   10  A    between atoms: C_19  and  C_20
REMARK   11  A    between atoms: C_20  and  C_21
REMARK   12  A    between atoms: C_29  and  O_30
REMARK   13  A    between atoms: O_30  and  C_31
REMARK                            x       y       z     vdW  Elec       q    Type
REMARK                         _______ _______ _______ _____ _____    ______ ____
ROOT
ATOM      1  C   UNL     1       1.048  11.367  18.410  0.00  0.00    +0.000 C 
ATOM      2  O   UNL     1       2.137  11.948  18.354  0.00  0.00    +0.000 OA
ATOM      3  N   UNL     1       0.922  10.031  18.064  0.00  0.00    +0.000 N 
ATOM      4  H   UNL     1       0.035   9.579  18.223  0.00  0.00    +0.000 HD
ENDROOT
BRANCH   1   5
ATOM      5  C   UNL     1      -0.280  12.088  18.831  0.00  0.00    +0.000 C 
BRANCH   5   6
ATOM      6  N   UNL     1      -0.541  13.262  17.969  0.00  0.00    +0.000 NA
ATOM      7  H   UNL     1       0.170  13.345  17.253  0.00  0.00    +0.000 HD
ATOM      8  H   UNL     1      -0.570  14.113  18.522  0.00  0.00    +0.000 HD
ENDBRANCH   5   6
BRANCH   5   9
ATOM      9  C   UNL     1      -1.454  11.069  18.823  0.00  0.00    +0.000 C 
BRANCH   9  17
ATOM     10  C   UNL     1      -3.303  12.616  20.568  0.00  0.00    +0.000 C 
ATOM     11  C   UNL     1      -3.744  12.109  19.215  0.00  0.00    +0.000 A 
ATOM     12  C   UNL     1      -5.101  12.267  18.879  0.00  0.00    +0.000 A 
ATOM     13  C   UNL     1      -5.591  11.792  17.682  0.00  0.00    +0.000 A 
ATOM     14  C   UNL     1      -4.739  11.207  16.773  0.00  0.00    +0.000 A 
ATOM     15  C   UNL     1      -3.360  11.086  17.039  0.00  0.00    +0.000 A 
ATOM     16  C   UNL     1      -2.581  10.513  15.889  0.00  0.00    +0.000 C 
ATOM     17  C   UNL     1      -2.846  11.462  18.315  0.00  0.00    +0.000 A 
BRANCH  13  18
ATOM     18  O   UNL     1      -6.902  11.891  17.338  0.00  0.00    +0.000 OA
ATOM     19  H   UNL     1      -7.196  11.037  16.991  0.00  0.00    +0.000 HD
ENDBRANCH  13  18
ENDBRANCH   9  17
ENDBRANCH   5   9
ENDBRANCH   1   5
BRANCH   3  20
ATOM     20  C   UNL     1       2.076   9.141  17.933  0.00  0.00    +0.000 C 
BRANCH  20  21
ATOM     21  C   UNL     1       2.088   8.009  18.953  0.00  0.00    +0.000 A 
ATOM     22  C   UNL     1       2.782   6.826  18.647  0.00  0.00    +0.000 A 
ATOM     23  C   UNL     1       2.687   5.649  19.394  0.00  0.00    +0.000 A 
ATOM     24  C   UNL     1       1.880   5.656  20.525  0.00  0.00    +0.000 A 
ATOM     25  C   UNL     1       1.239   6.842  20.912  0.00  0.00    +0.000 A 
ATOM     26  C   UNL     1       1.364   8.028  20.161  0.00  0.00    +0.000 A 
BRANCH  23  27
ATOM     27  C   UNL     1       3.416   4.414  18.916  0.00  0.00    +0.000 C 
BRANCH  27  28
ATOM     28  C   UNL     1       4.754   4.674  18.257  0.00  0.00    +0.000 A 
ATOM     29  C   UNL     1       5.841   5.119  19.021  0.00  0.00    +0.000 A 
ATOM     30  C   UNL     1       7.099   5.310  18.442  0.00  0.00    +0.000 A 
ATOM     31  C   UNL     1       7.307   5.004  17.101  0.00  0.00    +0.000 A 
ATOM     32  C   UNL     1       6.230   4.596  16.333  0.00  0.00    +0.000 A 
ATOM     33  C   UNL     1       4.955   4.454  16.904  0.00  0.00    +0.000 A 
ENDBRANCH  27  28
ENDBRANCH  23  27
BRANCH  26  34
ATOM     34  O   UNL     1       0.577   9.061  20.585  0.00  0.00    +0.000 OA
BRANCH  34  35
ATOM     35  C   UNL     1       0.756   9.534  21.917  0.00  0.00    +0.000 C 
ATOM     36  F   UNL     1       0.561  10.859  22.059  0.00  0.00    +0.000 F 
ATOM     37  F   UNL     1      -0.132   8.891  22.708  0.00  0.00    +0.000 F 
ATOM     38  F   UNL     1       1.998   9.242  22.361  0.00  0.00    +0.000 F 
ENDBRANCH  34  35
ENDBRANCH  26  34
ENDBRANCH  20  21
ENDBRANCH   3  20
TORSDOF 11
ENDMDL
MODEL 4
REMARK VINA RESULT:      -8.0      4.825     10.842
REMARK  Name = 
REMARK  13 active torsions:
REMARK  status: ('A' for Active; 'I' for Inactive)
REMARK    1  A    between atoms: C_1  and  C_2
REMARK    2  A    between atoms: C_4  and  O_5
REMARK    3  A    between atoms: C_7  and  C_8
REMARK    4  A    between atoms: C_9  and  C_10
REMARK    5  A    between atoms: C_10  and  C_11
REMARK    6  A    between atoms: C_11  and  N_12
REMARK    7  A    between atoms: C_11  and  C_13
REMARK    8  A    between atoms: N_15  and  C_16
REMARK    9  A    between atoms: C_16  and  C_17
REMARK   10  A    between atoms: C_19  and  C_20
REMARK   11  A    between atoms: C_20  and  C_21
REMARK   12  A    between atoms: C_29  and  O_30
REMARK   13  A    between atoms: O_30  and  C_31
REMARK                            x       y       z     vdW  Elec       q    Type
REMARK                         _______ _______ _______ _____ _____    ______ ____
ROOT
ATOM      1  C   UNL     1       1.785   8.834  18.566  0.00  0.00    +0.000 C 
ATOM      2  O   UNL     1       1.915   9.143  17.377  0.00  0.00    +0.000 OA
ATOM      3  N   UNL     1       1.082   9.636  19.449  0.00  0.00    +0.000 N 
ATOM      4  H   UNL     1       0.919   9.290  20.383  0.00  0.00    +0.000 HD
ENDROOT
BRANCH   1   5
ATOM      5  C   UNL     1       2.430   7.544  19.185  0.00  0.00    +0.000 C 
BRANCH   5   6
ATOM      6  N   UNL     1       1.700   7.119  20.400  0.00  0.00    +0.000 NA
ATOM      7  H   UNL     1       0.709   7.036  20.210  0.00  0.00    +0.000 HD
ATOM      8  H   UNL     1       1.848   7.781  21.155  0.00  0.00    +0.000 HD
ENDBRANCH   5   6
BRANCH   5   9
ATOM      9  C   UNL     1       2.498   6.425  18.108  0.00  0.00    +0.000 C 
BRANCH   9  17
ATOM     10  C   UNL     1       0.991   3.899  18.555  0.00  0.00    +0.000 C 
ATOM     11  C   UNL     1       2.495   3.945  18.683  0.00  0.00    +0.000 A 
ATOM     12  C   UNL     1       3.137   2.791  19.166  0.00  0.00    +0.000 A 
ATOM     13  C   UNL     1       4.502   2.767  19.352  0.00  0.00    +0.000 A 
ATOM     14  C   UNL     1       5.262   3.864  19.011  0.00  0.00    +0.000 A 
ATOM     15  C   UNL     1       4.670   5.019  18.463  0.00  0.00    +0.000 A 
ATOM     16  C   UNL     1       5.670   6.067  18.063  0.00  0.00    +0.000 C 
ATOM     17  C   UNL     1       3.250   5.115  18.368  0.00  0.00    +0.000 A 
BRANCH  13  18
ATOM     18  O   UNL     1       5.154   1.685  19.853  0.00  0.00    +0.000 OA
ATOM     19  H   UNL     1       6.096   1.893  19.916  0.00  0.00    +0.000 HD
ENDBRANCH  13  18
ENDBRANCH   9  17
ENDBRANCH   5   9
ENDBRANCH   1   5
BRANCH   3  20
ATOM     20  C   UNL     1       0.183  10.701  19.001  0.00  0.00    +0.000 C 
BRANCH  20  21
ATOM     21  C   UNL     1      -0.784  11.173  20.079  0.00  0.00    +0.000 A 
ATOM     22  C   UNL     1      -1.984  11.793  19.690  0.00  0.00    +0.000 A 
ATOM     23  C   UNL     1      -2.841  12.459  20.571  0.00  0.00    +0.000 A 
ATOM     24  C   UNL     1      -2.501  12.486  21.918  0.00  0.00    +0.000 A 
ATOM     25  C   UNL     1      -1.356  11.806  22.358  0.00  0.00    +0.000 A 
ATOM     26  C   UNL     1      -0.515  11.118  21.460  0.00  0.00    +0.000 A 
BRANCH  23  27
ATOM     27  C   UNL     1      -4.061  13.160  20.020  0.00  0.00    +0.000 C 
BRANCH  27  28
ATOM     28  C   UNL     1      -5.342  12.353  20.068  0.00  0.00    +0.000 A 
ATOM     29  C   UNL     1      -5.673  11.493  19.014  0.00  0.00    +0.000 A 
ATOM     30  C   UNL     1      -6.822  10.699  19.065  0.00  0.00    +0.000 A 
ATOM     31  C   UNL     1      -7.630  10.707  20.197  0.00  0.00    +0.000 A 
ATOM     32  C   UNL     1      -7.327  11.580  21.229  0.00  0.00    +0.000 A 
ATOM     33  C   UNL     1      -6.201  12.416  21.153  0.00  0.00    +0.000 A 
ENDBRANCH  27  28
ENDBRANCH  23  27
BRANCH  26  34
ATOM     34  O   UNL     1       0.630  10.620  22.014  0.00  0.00    +0.000 OA
BRANCH  34  35
ATOM     35  C   UNL     1       0.537   9.417  22.770  0.00  0.00    +0.000 C 
ATOM     36  F   UNL     1       0.171   9.603  24.053  0.00  0.00    +0.000 F 
ATOM     37  F   UNL     1      -0.388   8.626  22.180  0.00  0.00    +0.000 F 
ATOM     38  F   UNL     1       1.716   8.759  22.761  0.00  0.00    +0.000 F 
ENDBRANCH  34  35
ENDBRANCH  26  34
ENDBRANCH  20  21
ENDBRANCH   3  20
TORSDOF 11
ENDMDL
MODEL 5
REMARK VINA RESULT:      -8.0      0.527      1.706
REMARK  Name = 
REMARK  13 active torsions:
REMARK  status: ('A' for Active; 'I' for Inactive)
REMARK    1  A    between atoms: C_1  and  C_2
REMARK    2  A    between atoms: C_4  and  O_5
REMARK    3  A    between atoms: C_7  and  C_8
REMARK    4  A    between atoms: C_9  and  C_10
REMARK    5  A    between atoms: C_10  and  C_11
REMARK    6  A    between atoms: C_11  and  N_12
REMARK    7  A    between atoms: C_11  and  C_13
REMARK    8  A    between atoms: N_15  and  C_16
REMARK    9  A    between atoms: C_16  and  C_17
REMARK   10  A    between atoms: C_19  and  C_20
REMARK   11  A    between atoms: C_20  and  C_21
REMARK   12  A    between atoms: C_29  and  O_30
REMARK   13  A    between atoms: O_30  and  C_31
REMARK                            x       y       z     vdW  Elec       q    Type
REMARK                         _______ _______ _______ _____ _____    ______ ____
ROOT
ATOM      1  C   UNL     1       2.805   3.687  19.513  0.00  0.00    +0.000 C 
ATOM      2  O   UNL     1       2.426   2.512  19.555  0.00  0.00    +0.000 OA
ATOM      3  N   UNL     1       3.920   4.062  18.782  0.00  0.00    +0.000 N 
ATOM      4  H   UNL     1       4.128   5.045  18.698  0.00  0.00    +0.000 HD
ENDROOT
BRANCH   1   5
ATOM      5  C   UNL     1       2.093   4.839  20.306  0.00  0.00    +0.000 C 
BRANCH   5   6
ATOM      6  N   UNL     1       1.939   4.481  21.733  0.00  0.00    +0.000 NA
ATOM      7  H   UNL     1       2.395   3.599  21.932  0.00  0.00    +0.000 HD
ATOM      8  H   UNL     1       0.956   4.421  21.983  0.00  0.00    +0.000 HD
ENDBRANCH   5   6
BRANCH   5   9
ATOM      9  C   UNL     1       2.870   6.170  20.105  0.00  0.00    +0.000 C 
BRANCH   9  17
ATOM     10  C   UNL     1       3.412   7.043  17.313  0.00  0.00    +0.000 C 
ATOM     11  C   UNL     1       2.545   7.867  18.236  0.00  0.00    +0.000 A 
ATOM     12  C   UNL     1       2.130   9.129  17.775  0.00  0.00    +0.000 A 
ATOM     13  C   UNL     1       1.374   9.959  18.573  0.00  0.00    +0.000 A 
ATOM     14  C   UNL     1       0.966   9.533  19.818  0.00  0.00    +0.000 A 
ATOM     15  C   UNL     1       1.303   8.250  20.295  0.00  0.00    +0.000 A 
ATOM     16  C   UNL     1       0.685   7.932  21.627  0.00  0.00    +0.000 C 
ATOM     17  C   UNL     1       2.180   7.417  19.540  0.00  0.00    +0.000 A 
BRANCH  13  18
ATOM     18  O   UNL     1       0.986  11.200  18.178  0.00  0.00    +0.000 OA
ATOM     19  H   UNL     1       1.734  11.805  18.281  0.00  0.00    +0.000 HD
ENDBRANCH  13  18
ENDBRANCH   9  17
ENDBRANCH   5   9
ENDBRANCH   1   5
BRANCH   3  20
ATOM     20  C   UNL     1       4.522   3.197  17.767  0.00  0.00    +0.000 C 
BRANCH  20  21
ATOM     21  C   UNL     1       5.418   3.944  16.785  0.00  0.00    +0.000 A 
ATOM     22  C   UNL     1       5.027   4.027  15.438  0.00  0.00    +0.000 A 
ATOM     23  C   UNL     1       5.856   4.489  14.411  0.00  0.00    +0.000 A 
ATOM     24  C   UNL     1       7.135   4.917  14.747  0.00  0.00    +0.000 A 
ATOM     25  C   UNL     1       7.531   4.930  16.092  0.00  0.00    +0.000 A 
ATOM     26  C   UNL     1       6.675   4.485  17.119  0.00  0.00    +0.000 A 
BRANCH  23  27
ATOM     27  C   UNL     1       5.352   4.451  12.987  0.00  0.00    +0.000 C 
BRANCH  27  28
ATOM     28  C   UNL     1       5.884   3.308  12.148  0.00  0.00    +0.000 A 
ATOM     29  C   UNL     1       7.227   3.291  11.751  0.00  0.00    +0.000 A 
ATOM     30  C   UNL     1       7.750   2.217  11.024  0.00  0.00    +0.000 A 
ATOM     31  C   UNL     1       6.954   1.115  10.732  0.00  0.00    +0.000 A 
ATOM     32  C   UNL     1       5.618   1.140  11.093  0.00  0.00    +0.000 A 
ATOM     33  C   UNL     1       5.081   2.242  11.777  0.00  0.00    +0.000 A 
ENDBRANCH  27  28
ENDBRANCH  23  27
BRANCH  26  34
ATOM     34  O   UNL     1       7.246   4.430  18.358  0.00  0.00    +0.000 OA
BRANCH  34  35
ATOM     35  C   UNL     1       7.293   5.629  19.125  0.00  0.00    +0.000 C 
ATOM     36  F   UNL     1       7.772   5.463  20.373  0.00  0.00    +0.000 F 
ATOM     37  F   UNL     1       8.099   6.503  18.479  0.00  0.00    +0.000 F 
ATOM     38  F   UNL     1       6.065   6.184  19.216  0.00  0.00    +0.000 F 
ENDBRANCH  34  35
ENDBRANCH  26  34
ENDBRANCH  20  21
ENDBRANCH   3  20
TORSDOF 11
ENDMDL
MODEL 6
REMARK VINA RESULT:      -8.0      5.096     11.602
REMARK  Name = 
REMARK  13 active torsions:
REMARK  status: ('A' for Active; 'I' for Inactive)
REMARK    1  A    between atoms: C_1  and  C_2
REMARK    2  A    between atoms: C_4  and  O_5
REMARK    3  A    between atoms: C_7  and  C_8
REMARK    4  A    between atoms: C_9  and  C_10
REMARK    5  A    between atoms: C_10  and  C_11
REMARK    6  A    between atoms: C_11  and  N_12
REMARK    7  A    between atoms: C_11  and  C_13
REMARK    8  A    between atoms: N_15  and  C_16
REMARK    9  A    between atoms: C_16  and  C_17
REMARK   10  A    between atoms: C_19  and  C_20
REMARK   11  A    between atoms: C_20  and  C_21
REMARK   12  A    between atoms: C_29  and  O_30
REMARK   13  A    between atoms: O_30  and  C_31
REMARK                            x       y       z     vdW  Elec       q    Type
REMARK                         _______ _______ _______ _____ _____    ______ ____
ROOT
ATOM      1  C   UNL     1       2.062   8.516  18.269  0.00  0.00    +0.000 C 
ATOM      2  O   UNL     1       2.790   9.108  17.464  0.00  0.00    +0.000 OA
ATOM      3  N   UNL     1       0.804   8.997  18.595  0.00  0.00    +0.000 N 
ATOM      4  H   UNL     1       0.212   8.426  19.178  0.00  0.00    +0.000 HD
ENDROOT
BRANCH   1   5
ATOM      5  C   UNL     1       2.506   7.209  19.015  0.00  0.00    +0.000 C 
BRANCH   5   6
ATOM      6  N   UNL     1       2.056   7.227  20.424  0.00  0.00    +0.000 NA
ATOM      7  H   UNL     1       2.820   6.992  21.046  0.00  0.00    +0.000 HD
ATOM      8  H   UNL     1       1.290   6.574  20.563  0.00  0.00    +0.000 HD
ENDBRANCH   5   6
BRANCH   5   9
ATOM      9  C   UNL     1       1.990   5.964  18.240  0.00  0.00    +0.000 C 
BRANCH   9  17
ATOM     10  C   UNL     1       4.502   5.247  16.815  0.00  0.00    +0.000 C 
ATOM     11  C   UNL     1       3.766   4.235  17.661  0.00  0.00    +0.000 A 
ATOM     12  C   UNL     1       4.231   2.908  17.628  0.00  0.00    +0.000 A 
ATOM     13  C   UNL     1       3.588   1.917  18.338  0.00  0.00    +0.000 A 
ATOM     14  C   UNL     1       2.511   2.231  19.137  0.00  0.00    +0.000 A 
ATOM     15  C   UNL     1       2.051   3.558  19.252  0.00  0.00    +0.000 A 
ATOM     16  C   UNL     1       0.935   3.715  20.245  0.00  0.00    +0.000 C 
ATOM     17  C   UNL     1       2.623   4.582  18.441  0.00  0.00    +0.000 A 
BRANCH  13  18
ATOM     18  O   UNL     1       3.983   0.617  18.301  0.00  0.00    +0.000 OA
ATOM     19  H   UNL     1       3.525   0.134  19.003  0.00  0.00    +0.000 HD
ENDBRANCH  13  18
ENDBRANCH   9  17
ENDBRANCH   5   9
ENDBRANCH   1   5
BRANCH   3  20
ATOM     20  C   UNL     1       0.120  10.015  17.798  0.00  0.00    +0.000 C 
BRANCH  20  21
ATOM     21  C   UNL     1      -0.781  10.927  18.622  0.00  0.00    +0.000 A 
ATOM     22  C   UNL     1      -0.507  11.096  19.990  0.00  0.00    +0.000 A 
ATOM     23  C   UNL     1      -1.375  11.723  20.889  0.00  0.00    +0.000 A 
ATOM     24  C   UNL     1      -2.569  12.235  20.396  0.00  0.00    +0.000 A 
ATOM     25  C   UNL     1      -2.839  12.161  19.022  0.00  0.00    +0.000 A 
ATOM     26  C   UNL     1      -1.943  11.548  18.124  0.00  0.00    +0.000 A 
BRANCH  23  27
ATOM     27  C   UNL     1      -1.008  11.769  22.354  0.00  0.00    +0.000 C 
BRANCH  27  28
ATOM     28  C   UNL     1      -1.819  12.737  23.189  0.00  0.00    +0.000 A 
ATOM     29  C   UNL     1      -3.084  12.371  23.664  0.00  0.00    +0.000 A 
ATOM     30  C   UNL     1      -3.824  13.230  24.482  0.00  0.00    +0.000 A 
ATOM     31  C   UNL     1      -3.286  14.447  24.888  0.00  0.00    +0.000 A 
ATOM     32  C   UNL     1      -2.050  14.830  24.396  0.00  0.00    +0.000 A 
ATOM     33  C   UNL     1      -1.331  13.989  23.532  0.00  0.00    +0.000 A 
ENDBRANCH  27  28
ENDBRANCH  23  27
BRANCH  26  34
ATOM     34  O   UNL     1      -2.402  11.434  16.843  0.00  0.00    +0.000 OA
BRANCH  34  35
ATOM     35  C   UNL     1      -3.356  10.414  16.564  0.00  0.00    +0.000 C 
ATOM     36  F   UNL     1      -4.636  10.834  16.609  0.00  0.00    +0.000 F 
ATOM     37  F   UNL     1      -3.112   9.946  15.319  0.00  0.00    +0.000 F 
ATOM     38  F   UNL     1      -3.221   9.387  17.430  0.00  0.00    +0.000 F 
ENDBRANCH  34  35
ENDBRANCH  26  34
ENDBRANCH  20  21
ENDBRANCH   3  20
TORSDOF 11
ENDMDL
MODEL 7
REMARK VINA RESULT:      -7.8      4.323      9.960
REMARK  Name = 
REMARK  13 active torsions:
REMARK  status: ('A' for Active; 'I' for Inactive)
REMARK    1  A    between atoms: C_1  and  C_2
REMARK    2  A    between atoms: C_4  and  O_5
REMARK    3  A    between atoms: C_7  and  C_8
REMARK    4  A    between atoms: C_9  and  C_10
REMARK    5  A    between atoms: C_10  and  C_11
REMARK    6  A    between atoms: C_11  and  N_12
REMARK    7  A    between atoms: C_11  and  C_13
REMARK    8  A    between atoms: N_15  and  C_16
REMARK    9  A    between atoms: C_16  and  C_17
REMARK   10  A    between atoms: C_19  and  C_20
REMARK   11  A    between atoms: C_20  and  C_21
REMARK   12  A    between atoms: C_29  and  O_30
REMARK   13  A    between atoms: O_30  and  C_31
REMARK                            x       y       z     vdW  Elec       q    Type
REMARK                         _______ _______ _______ _____ _____    ______ ____
ROOT
ATOM      1  C   UNL     1       1.901   8.682  18.328  0.00  0.00    +0.000 C 
ATOM      2  O   UNL     1       2.302   9.114  17.243  0.00  0.00    +0.000 OA
ATOM      3  N   UNL     1       0.932   9.350  19.059  0.00  0.00    +0.000 N 
ATOM      4  H   UNL     1       0.568   8.905  19.888  0.00  0.00    +0.000 HD
ENDROOT
BRANCH   1   5
ATOM      5  C   UNL     1       2.474   7.378  18.989  0.00  0.00    +0.000 C 
BRANCH   5   6
ATOM      6  N   UNL     1       2.114   7.311  20.422  0.00  0.00    +0.000 NA
ATOM      7  H   UNL     1       2.703   7.929  20.968  0.00  0.00    +0.000 HD
ATOM      8  H   UNL     1       2.204   6.361  20.769  0.00  0.00    +0.000 HD
ENDBRANCH   5   6
BRANCH   5   9
ATOM      9  C   UNL     1       1.990   6.133  18.194  0.00  0.00    +0.000 C 
BRANCH   9  17
ATOM     10  C   UNL     1       4.509   5.374  16.806  0.00  0.00    +0.000 C 
ATOM     11  C   UNL     1       3.758   4.382  17.662  0.00  0.00    +0.000 A 
ATOM     12  C   UNL     1       4.213   3.051  17.656  0.00  0.00    +0.000 A 
ATOM     13  C   UNL     1       3.555   2.077  18.376  0.00  0.00    +0.000 A 
ATOM     14  C   UNL     1       2.474   2.413  19.159  0.00  0.00    +0.000 A 
ATOM     15  C   UNL     1       2.023   3.745  19.247  0.00  0.00    +0.000 A 
ATOM     16  C   UNL     1       0.898   3.927  20.226  0.00  0.00    +0.000 C 
ATOM     17  C   UNL     1       2.610   4.751  18.425  0.00  0.00    +0.000 A 
BRANCH  13  18
ATOM     18  O   UNL     1       3.940   0.774  18.365  0.00  0.00    +0.000 OA
ATOM     19  H   UNL     1       4.282   0.560  17.486  0.00  0.00    +0.000 HD
ENDBRANCH  13  18
ENDBRANCH   9  17
ENDBRANCH   5   9
ENDBRANCH   1   5
BRANCH   3  20
ATOM     20  C   UNL     1       0.092  10.397  18.479  0.00  0.00    +0.000 C 
BRANCH  20  21
ATOM     21  C   UNL     1      -0.046  11.627  19.368  0.00  0.00    +0.000 A 
ATOM     22  C   UNL     1       0.448  12.859  18.905  0.00  0.00    +0.000 A 
ATOM     23  C   UNL     1       0.578  13.999  19.703  0.00  0.00    +0.000 A 
ATOM     24  C   UNL     1       0.168  13.918  21.028  0.00  0.00    +0.000 A 
ATOM     25  C   UNL     1      -0.410  12.733  21.505  0.00  0.00    +0.000 A 
ATOM     26  C   UNL     1      -0.557  11.599  20.680  0.00  0.00    +0.000 A 
BRANCH  23  27
ATOM     27  C   UNL     1       1.203  15.241  19.113  0.00  0.00    +0.000 C 
BRANCH  27  28
ATOM     28  C   UNL     1       2.716  15.230  19.049  0.00  0.00    +0.000 A 
ATOM     29  C   UNL     1       3.471  15.152  20.225  0.00  0.00    +0.000 A 
ATOM     30  C   UNL     1       4.867  15.083  20.183  0.00  0.00    +0.000 A 
ATOM     31  C   UNL     1       5.530  15.033  18.961  0.00  0.00    +0.000 A 
ATOM     32  C   UNL     1       4.792  15.143  17.795  0.00  0.00    +0.000 A 
ATOM     33  C   UNL     1       3.394  15.264  17.840  0.00  0.00    +0.000 A 
ENDBRANCH  27  28
ENDBRANCH  23  27
BRANCH  26  34
ATOM     34  O   UNL     1      -1.011  10.481  21.318  0.00  0.00    +0.000 OA
BRANCH  34  35
ATOM     35  C   UNL     1      -0.149   9.855  22.265  0.00  0.00    +0.000 C 
ATOM     36  F   UNL     1       1.161  10.085  22.049  0.00  0.00    +0.000 F 
ATOM     37  F   UNL     1      -0.463  10.333  23.490  0.00  0.00    +0.000 F 
ATOM     38  F   UNL     1      -0.346   8.519  22.275  0.00  0.00    +0.000 F 
ENDBRANCH  34  35
ENDBRANCH  26  34
ENDBRANCH  20  21
ENDBRANCH   3  20
TORSDOF 11
ENDMDL
MODEL 8
REMARK VINA RESULT:      -7.8      3.284      4.948
REMARK  Name = 
REMARK  13 active torsions:
REMARK  status: ('A' for Active; 'I' for Inactive)
REMARK    1  A    between atoms: C_1  and  C_2
REMARK    2  A    between atoms: C_4  and  O_5
REMARK    3  A    between atoms: C_7  and  C_8
REMARK    4  A    between atoms: C_9  and  C_10
REMARK    5  A    between atoms: C_10  and  C_11
REMARK    6  A    between atoms: C_11  and  N_12
REMARK    7  A    between atoms: C_11  and  C_13
REMARK    8  A    between atoms: N_15  and  C_16
REMARK    9  A    between atoms: C_16  and  C_17
REMARK   10  A    between atoms: C_19  and  C_20
REMARK   11  A    between atoms: C_20  and  C_21
REMARK   12  A    between atoms: C_29  and  O_30
REMARK   13  A    between atoms: O_30  and  C_31
REMARK                            x       y       z     vdW  Elec       q    Type
REMARK                         _______ _______ _______ _____ _____    ______ ____
ROOT
ATOM      1  C   UNL     1       1.842   8.345  19.053  0.00  0.00    +0.000 C 
ATOM      2  O   UNL     1       1.993   7.805  20.154  0.00  0.00    +0.000 OA
ATOM      3  N   UNL     1       1.979   7.632  17.873  0.00  0.00    +0.000 N 
ATOM      4  H   UNL     1       1.747   8.093  17.007  0.00  0.00    +0.000 HD
ENDROOT
BRANCH   1   5
ATOM      5  C   UNL     1       1.526   9.873  18.892  0.00  0.00    +0.000 C 
BRANCH   5   6
ATOM      6  N   UNL     1       1.987  10.372  17.577  0.00  0.00    +0.000 NA
ATOM      7  H   UNL     1       1.668  11.320  17.422  0.00  0.00    +0.000 HD
ATOM      8  H   UNL     1       1.650   9.773  16.829  0.00  0.00    +0.000 HD
ENDBRANCH   5   6
BRANCH   5   9
ATOM      9  C   UNL     1       0.009  10.121  19.125  0.00  0.00    +0.000 C 
BRANCH   9  17
ATOM     10  C   UNL     1      -0.720  12.983  18.768  0.00  0.00    +0.000 C 
ATOM     11  C   UNL     1      -0.727  12.339  20.133  0.00  0.00    +0.000 A 
ATOM     12  C   UNL     1      -0.945  13.178  21.241  0.00  0.00    +0.000 A 
ATOM     13  C   UNL     1      -0.924  12.674  22.524  0.00  0.00    +0.000 A 
ATOM     14  C   UNL     1      -0.744  11.324  22.730  0.00  0.00    +0.000 A 
ATOM     15  C   UNL     1      -0.587  10.436  21.647  0.00  0.00    +0.000 A 
ATOM     16  C   UNL     1      -0.505   8.996  22.068  0.00  0.00    +0.000 C 
ATOM     17  C   UNL     1      -0.489  10.944  20.318  0.00  0.00    +0.000 A 
BRANCH  13  18
ATOM     18  O   UNL     1      -1.091  13.459  23.621  0.00  0.00    +0.000 OA
ATOM     19  H   UNL     1      -1.949  13.901  23.557  0.00  0.00    +0.000 HD
ENDBRANCH  13  18
ENDBRANCH   9  17
ENDBRANCH   5   9
ENDBRANCH   1   5
BRANCH   3  20
ATOM     20  C   UNL     1       1.980   6.169  17.833  0.00  0.00    +0.000 C 
BRANCH  20  21
ATOM     21  C   UNL     1       3.362   5.557  18.031  0.00  0.00    +0.000 A 
ATOM     22  C   UNL     1       4.407   5.949  17.178  0.00  0.00    +0.000 A 
ATOM     23  C   UNL     1       5.648   5.309  17.116  0.00  0.00    +0.000 A 
ATOM     24  C   UNL     1       5.872   4.236  17.970  0.00  0.00    +0.000 A 
ATOM     25  C   UNL     1       4.886   3.869  18.896  0.00  0.00    +0.000 A 
ATOM     26  C   UNL     1       3.648   4.540  18.963  0.00  0.00    +0.000 A 
BRANCH  23  27
ATOM     27  C   UNL     1       6.662   5.770  16.095  0.00  0.00    +0.000 C 
BRANCH  27  28
ATOM     28  C   UNL     1       6.570   5.089  14.746  0.00  0.00    +0.000 A 
ATOM     29  C   UNL     1       7.566   5.295  13.783  0.00  0.00    +0.000 A 
ATOM     30  C   UNL     1       7.527   4.632  12.553  0.00  0.00    +0.000 A 
ATOM     31  C   UNL     1       6.522   3.708  12.286  0.00  0.00    +0.000 A 
ATOM     32  C   UNL     1       5.516   3.525  13.219  0.00  0.00    +0.000 A 
ATOM     33  C   UNL     1       5.528   4.231  14.433  0.00  0.00    +0.000 A 
ENDBRANCH  27  28
ENDBRANCH  23  27
BRANCH  26  34
ATOM     34  O   UNL     1       2.740   3.986  19.819  0.00  0.00    +0.000 OA
BRANCH  34  35
ATOM     35  C   UNL     1       1.920   2.929  19.330  0.00  0.00    +0.000 C 
ATOM     36  F   UNL     1       1.805   2.900  17.988  0.00  0.00    +0.000 F 
ATOM     37  F   UNL     1       2.470   1.759  19.729  0.00  0.00    +0.000 F 
ATOM     38  F   UNL     1       0.680   3.008  19.857  0.00  0.00    +0.000 F 
ENDBRANCH  34  35
ENDBRANCH  26  34
ENDBRANCH  20  21
ENDBRANCH   3  20
TORSDOF 11
ENDMDL
MODEL 9
REMARK VINA RESULT:      -7.7      3.279      4.761
REMARK  Name = 
REMARK  13 active torsions:
REMARK  status: ('A' for Active; 'I' for Inactive)
REMARK    1  A    between atoms: C_1  and  C_2
REMARK    2  A    between atoms: C_4  and  O_5
REMARK    3  A    between atoms: C_7  and  C_8
REMARK    4  A    between atoms: C_9  and  C_10
REMARK    5  A    between atoms: C_10  and  C_11
REMARK    6  A    between atoms: C_11  and  N_12
REMARK    7  A    between atoms: C_11  and  C_13
REMARK    8  A    between atoms: N_15  and  C_16
REMARK    9  A    between atoms: C_16  and  C_17
REMARK   10  A    between atoms: C_19  and  C_20
REMARK   11  A    between atoms: C_20  and  C_21
REMARK   12  A    between atoms: C_29  and  O_30
REMARK   13  A    between atoms: O_30  and  C_31
REMARK                            x       y       z     vdW  Elec       q    Type
REMARK                         _______ _______ _______ _____ _____    ______ ____
ROOT
ATOM      1  C   UNL     1       1.846   8.428  19.107  0.00  0.00    +0.000 C 
ATOM      2  O   UNL     1       1.759   7.817  20.178  0.00  0.00    +0.000 OA
ATOM      3  N   UNL     1       2.286   7.802  17.952  0.00  0.00    +0.000 N 
ATOM      4  H   UNL     1       2.243   8.316  17.085  0.00  0.00    +0.000 HD
ENDROOT
BRANCH   1   5
ATOM      5  C   UNL     1       1.509   9.954  18.968  0.00  0.00    +0.000 C 
BRANCH   5   6
ATOM      6  N   UNL     1       1.725  10.418  17.580  0.00  0.00    +0.000 NA
ATOM      7  H   UNL     1       2.125  11.349  17.572  0.00  0.00    +0.000 HD
ATOM      8  H   UNL     1       0.851  10.418  17.063  0.00  0.00    +0.000 HD
ENDBRANCH   5   6
BRANCH   5   9
ATOM      9  C   UNL     1       0.061  10.218  19.467  0.00  0.00    +0.000 C 
BRANCH   9  17
ATOM     10  C   UNL     1      -0.408   9.132  22.196  0.00  0.00    +0.000 C 
ATOM     11  C   UNL     1      -0.544  10.608  21.908  0.00  0.00    +0.000 A 
ATOM     12  C   UNL     1      -1.044  11.423  22.940  0.00  0.00    +0.000 A 
ATOM     13  C   UNL     1      -1.238  12.773  22.742  0.00  0.00    +0.000 A 
ATOM     14  C   UNL     1      -0.888  13.350  21.541  0.00  0.00    +0.000 A 
ATOM     15  C   UNL     1      -0.323  12.584  20.502  0.00  0.00    +0.000 A 
ATOM     16  C   UNL     1       0.084  13.406  19.312  0.00  0.00    +0.000 C 
ATOM     17  C   UNL     1      -0.218  11.168  20.636  0.00  0.00    +0.000 A 
BRANCH  13  18
ATOM     18  O   UNL     1      -1.755  13.586  23.700  0.00  0.00    +0.000 OA
ATOM     19  H   UNL     1      -2.544  13.166  24.069  0.00  0.00    +0.000 HD
ENDBRANCH  13  18
ENDBRANCH   9  17
ENDBRANCH   5   9
ENDBRANCH   1   5
BRANCH   3  20
ATOM     20  C   UNL     1       2.362   6.347  17.825  0.00  0.00    +0.000 C 
BRANCH  20  21
ATOM     21  C   UNL     1       3.766   5.791  18.027  0.00  0.00    +0.000 A 
ATOM     22  C   UNL     1       4.751   6.069  17.064  0.00  0.00    +0.000 A 
ATOM     23  C   UNL     1       6.001   5.444  17.022  0.00  0.00    +0.000 A 
ATOM     24  C   UNL     1       6.299   4.512  18.009  0.00  0.00    +0.000 A 
ATOM     25  C   UNL     1       5.376   4.270  19.036  0.00  0.00    +0.000 A 
ATOM     26  C   UNL     1       4.129   4.926  19.078  0.00  0.00    +0.000 A 
BRANCH  23  27
ATOM     27  C   UNL     1       6.945   5.765  15.887  0.00  0.00    +0.000 C 
BRANCH  27  28
ATOM     28  C   UNL     1       6.672   5.022  14.596  0.00  0.00    +0.000 A 
ATOM     29  C   UNL     1       7.566   5.121  13.523  0.00  0.00    +0.000 A 
ATOM     30  C   UNL     1       7.360   4.399  12.344  0.00  0.00    +0.000 A 
ATOM     31  C   UNL     1       6.287   3.521  12.238  0.00  0.00    +0.000 A 
ATOM     32  C   UNL     1       5.381   3.443  13.282  0.00  0.00    +0.000 A 
ATOM     33  C   UNL     1       5.560   4.208  14.446  0.00  0.00    +0.000 A 
ENDBRANCH  27  28
ENDBRANCH  23  27
BRANCH  26  34
ATOM     34  O   UNL     1       3.284   4.490  20.059  0.00  0.00    +0.000 OA
BRANCH  34  35
ATOM     35  C   UNL     1       2.569   3.279  19.834  0.00  0.00    +0.000 C 
ATOM     36  F   UNL     1       3.168   2.186  20.345  0.00  0.00    +0.000 F 
ATOM     37  F   UNL     1       1.354   3.402  20.415  0.00  0.00    +0.000 F 
ATOM     38  F   UNL     1       2.381   3.077  18.513  0.00  0.00    +0.000 F 
ENDBRANCH  34  35
ENDBRANCH  26  34
ENDBRANCH  20  21
ENDBRANCH   3  20
TORSDOF 11
ENDMDL
