MODEL 1
REMARK VINA RESULT:     -10.0      0.000      0.000
REMARK  Name = 
REMARK  8 active torsions:
REMARK  status: ('A' for Active; 'I' for Inactive)
REMARK    1  A    between atoms: C_1  and  C_2
REMARK    2  A    between atoms: N_6  and  C_7
REMARK    3  A    between atoms: C_7  and  C_8
REMARK    4  A    between atoms: C_8  and  N_9
REMARK    5  A    between atoms: C_8  and  C_10
REMARK    6  A    between atoms: C_13  and  N_14
REMARK    7  A    between atoms: N_14  and  C_15
REMARK    8  A    between atoms: C_15  and  C_16
REMARK                            x       y       z     vdW  Elec       q    Type
REMARK                         _______ _______ _______ _____ _____    ______ ____
ROOT
ATOM      1  C   UNL     1       6.079   5.328  17.762  0.00  0.00    +0.000 C 
ATOM      2  C   UNL     1       7.471   5.007  18.340  0.00  0.00    +0.000 C 
ATOM      3  C   UNL     1       8.102   6.173  19.098  0.00  0.00    +0.000 C 
ATOM      4  C   UNL     1       8.189   7.423  18.219  0.00  0.00    +0.000 C 
ATOM      5  C   UNL     1       6.771   7.812  17.779  0.00  0.00    +0.000 C 
ATOM      6  C   UNL     1       6.103   6.678  17.004  0.00  0.00    +0.000 C 
ENDROOT
BRANCH   4   7
ATOM      7  N   UNL     1       8.791   8.555  18.926  0.00  0.00    +0.000 NA
ATOM      8  H   UNL     1       8.269   8.703  19.796  0.00  0.00    +0.000 HD
BRANCH   7   9
ATOM      9  C   UNL     1       8.713   9.823  18.178  0.00  0.00    +0.000 C 
BRANCH   9  10
ATOM     10  C   UNL     1       9.704  10.804  18.774  0.00  0.00    +0.000 A 
ATOM     11  C   UNL     1       9.715  11.053  20.149  0.00  0.00    +0.000 A 
ATOM     12  C   UNL     1      10.335  12.210  20.619  0.00  0.00    +0.000 A 
ATOM     13  C   UNL     1      10.884  13.084  19.693  0.00  0.00    +0.000 A 
ATOM     14  C   UNL     1      10.923  12.700  18.356  0.00  0.00    +0.000 A 
ATOM     15  N   UNL     1      10.361  11.581  17.880  0.00  0.00    +0.000 NA
ATOM     16  N   UNL     1      11.506  13.576  17.418  0.00  0.00    +0.000 N 
ATOM     17  C   UNL     1      11.134  14.888  17.637  0.00  0.00    +0.000 C 
ATOM     18  O   UNL     1      10.827  15.652  16.728  0.00  0.00    +0.000 OA
ATOM     19  C   UNL     1      11.175  15.310  19.112  0.00  0.00    +0.000 C 
ATOM     20  O   UNL     1      11.346  14.303  20.114  0.00  0.00    +0.000 OA
ATOM     21  H   UNL     1      12.503  13.530  17.615  0.00  0.00    +0.000 HD
ENDBRANCH   9  10
ENDBRANCH   7   9
ENDBRANCH   4   7
BRANCH   1  22
ATOM     22  C   UNL     1       5.578   4.200  16.809  0.00  0.00    +0.000 C 
BRANCH  22  23
ATOM     23  N   UNL     1       6.331   4.245  15.541  0.00  0.00    +0.000 NA
ATOM     24  H   UNL     1       7.162   3.656  15.615  0.00  0.00    +0.000 HD
ATOM     25  H   UNL     1       6.683   5.194  15.405  0.00  0.00    +0.000 HD
ENDBRANCH  22  23
BRANCH  22  26
ATOM     26  C   UNL     1       4.037   4.195  16.546  0.00  0.00    +0.000 C 
BRANCH  26  32
ATOM     27  C   UNL     1       2.035   3.273  21.876  0.00  0.00    +0.000 C 
ATOM     28  C   UNL     1       2.305   3.509  20.418  0.00  0.00    +0.000 A 
ATOM     29  C   UNL     1       2.584   2.490  19.591  0.00  0.00    +0.000 A 
ATOM     30  C   UNL     1       3.006   2.681  18.187  0.00  0.00    +0.000 A 
ATOM     31  O   UNL     1       3.178   1.687  17.487  0.00  0.00    +0.000 OA
ATOM     32  N   UNL     1       3.260   3.982  17.780  0.00  0.00    +0.000 N 
ATOM     33  C   UNL     1       2.789   5.093  18.555  0.00  0.00    +0.000 A 
ATOM     34  C   UNL     1       2.802   6.400  18.043  0.00  0.00    +0.000 A 
ATOM     35  C   UNL     1       2.325   7.462  18.812  0.00  0.00    +0.000 A 
ATOM     36  F   UNL     1       2.331   8.696  18.298  0.00  0.00    +0.000 F 
ATOM     37  C   UNL     1       1.839   7.257  20.093  0.00  0.00    +0.000 A 
ATOM     38  C   UNL     1       1.828   5.965  20.617  0.00  0.00    +0.000 A 
ATOM     39  C   UNL     1       2.303   4.875  19.859  0.00  0.00    +0.000 A 
ENDBRANCH  26  32
ENDBRANCH  22  26
ENDBRANCH   1  22
TORSDOF 7
ENDMDL
MODEL 2
REMARK VINA RESULT:      -9.7      1.043      1.090
REMARK  Name = 
REMARK  8 active torsions:
REMARK  status: ('A' for Active; 'I' for Inactive)
REMARK    1  A    between atoms: C_1  and  C_2
REMARK    2  A    between atoms: N_6  and  C_7
REMARK    3  A    between atoms: C_7  and  C_8
REMARK    4  A    between atoms: C_8  and  N_9
REMARK    5  A    between atoms: C_8  and  C_10
REMARK    6  A    between atoms: C_13  and  N_14
REMARK    7  A    between atoms: N_14  and  C_15
REMARK    8  A    between atoms: C_15  and  C_16
REMARK                            x       y       z     vdW  Elec       q    Type
REMARK                         _______ _______ _______ _____ _____    ______ ____
ROOT
ATOM      1  C   UNL     1       6.314   5.891  18.157  0.00  0.00    +0.000 C 
ATOM      2  C   UNL     1       7.814   5.980  18.496  0.00  0.00    +0.000 C 
ATOM      3  C   UNL     1       8.294   7.401  18.780  0.00  0.00    +0.000 C 
ATOM      4  C   UNL     1       7.979   8.336  17.610  0.00  0.00    +0.000 C 
ATOM      5  C   UNL     1       6.460   8.348  17.388  0.00  0.00    +0.000 C 
ATOM      6  C   UNL     1       5.936   6.946  17.088  0.00  0.00    +0.000 C 
ENDROOT
BRANCH   4   7
ATOM      7  N   UNL     1       8.430   9.706  17.860  0.00  0.00    +0.000 NA
ATOM      8  H   UNL     1       9.060   9.980  17.099  0.00  0.00    +0.000 HD
BRANCH   7   9
ATOM      9  C   UNL     1       9.202   9.852  19.108  0.00  0.00    +0.000 C 
BRANCH   9  10
ATOM     10  C   UNL     1      10.025  11.124  19.026  0.00  0.00    +0.000 A 
ATOM     11  C   UNL     1      10.945  11.439  20.030  0.00  0.00    +0.000 A 
ATOM     12  C   UNL     1      11.389  12.754  20.148  0.00  0.00    +0.000 A 
ATOM     13  C   UNL     1      10.869  13.704  19.282  0.00  0.00    +0.000 A 
ATOM     14  C   UNL     1      10.044  13.279  18.246  0.00  0.00    +0.000 A 
ATOM     15  N   UNL     1       9.623  12.017  18.090  0.00  0.00    +0.000 NA
ATOM     16  N   UNL     1       9.537  14.241  17.348  0.00  0.00    +0.000 N 
ATOM     17  C   UNL     1       9.112  15.382  18.000  0.00  0.00    +0.000 C 
ATOM     18  O   UNL     1       8.070  15.962  17.715  0.00  0.00    +0.000 OA
ATOM     19  C   UNL     1      10.078  15.876  19.086  0.00  0.00    +0.000 C 
ATOM     20  O   UNL     1      11.159  15.027  19.486  0.00  0.00    +0.000 OA
ATOM     21  H   UNL     1      10.342  14.518  16.793  0.00  0.00    +0.000 HD
ENDBRANCH   9  10
ENDBRANCH   7   9
ENDBRANCH   4   7
BRANCH   1  22
ATOM     22  C   UNL     1       5.921   4.468  17.652  0.00  0.00    +0.000 C 
BRANCH  22  23
ATOM     23  N   UNL     1       6.909   3.998  16.661  0.00  0.00    +0.000 NA
ATOM     24  H   UNL     1       7.554   3.343  17.105  0.00  0.00    +0.000 HD
ATOM     25  H   UNL     1       7.485   4.791  16.374  0.00  0.00    +0.000 HD
ENDBRANCH  22  23
BRANCH  22  26
ATOM     26  C   UNL     1       4.466   4.345  17.095  0.00  0.00    +0.000 C 
BRANCH  26  32
ATOM     27  C   UNL     1       1.627   2.694  21.837  0.00  0.00    +0.000 C 
ATOM     28  C   UNL     1       2.132   3.120  20.488  0.00  0.00    +0.000 A 
ATOM     29  C   UNL     1       2.609   2.222  19.613  0.00  0.00    +0.000 A 
ATOM     30  C   UNL     1       3.257   2.601  18.339  0.00  0.00    +0.000 A 
ATOM     31  O   UNL     1       3.606   1.709  17.571  0.00  0.00    +0.000 OA
ATOM     32  N   UNL     1       3.501   3.951  18.137  0.00  0.00    +0.000 N 
ATOM     33  C   UNL     1       2.837   4.939  18.938  0.00  0.00    +0.000 A 
ATOM     34  C   UNL     1       2.862   6.299  18.590  0.00  0.00    +0.000 A 
ATOM     35  C   UNL     1       2.197   7.239  19.379  0.00  0.00    +0.000 A 
ATOM     36  F   UNL     1       2.220   8.527  19.020  0.00  0.00    +0.000 F 
ATOM     37  C   UNL     1       1.509   6.858  20.519  0.00  0.00    +0.000 A 
ATOM     38  C   UNL     1       1.483   5.512  20.881  0.00  0.00    +0.000 A 
ATOM     39  C   UNL     1       2.147   4.543  20.100  0.00  0.00    +0.000 A 
ENDBRANCH  26  32
ENDBRANCH  22  26
ENDBRANCH   1  22
TORSDOF 7
ENDMDL
MODEL 3
REMARK VINA RESULT:      -9.7      0.729      1.098
REMARK  Name = 
REMARK  8 active torsions:
REMARK  status: ('A' for Active; 'I' for Inactive)
REMARK    1  A    between atoms: C_1  and  C_2
REMARK    2  A    between atoms: N_6  and  C_7
REMARK    3  A    between atoms: C_7  and  C_8
REMARK    4  A    between atoms: C_8  and  N_9
REMARK    5  A    between atoms: C_8  and  C_10
REMARK    6  A    between atoms: C_13  and  N_14
REMARK    7  A    between atoms: N_14  and  C_15
REMARK    8  A    between atoms: C_15  and  C_16
REMARK                            x       y       z     vdW  Elec       q    Type
REMARK                         _______ _______ _______ _____ _____    ______ ____
ROOT
ATOM      1  C   UNL     1       6.798   4.871  17.064  0.00  0.00    +0.000 C 
ATOM      2  C   UNL     1       6.398   6.270  16.558  0.00  0.00    +0.000 C 
ATOM      3  C   UNL     1       7.400   7.362  16.925  0.00  0.00    +0.000 C 
ATOM      4  C   UNL     1       7.636   7.413  18.436  0.00  0.00    +0.000 C 
ATOM      5  C   UNL     1       8.179   6.052  18.893  0.00  0.00    +0.000 C 
ATOM      6  C   UNL     1       7.202   4.928  18.557  0.00  0.00    +0.000 C 
ENDROOT
BRANCH   4   7
ATOM      7  N   UNL     1       8.595   8.453  18.812  0.00  0.00    +0.000 NA
ATOM      8  H   UNL     1       8.415   8.718  19.786  0.00  0.00    +0.000 HD
BRANCH   7   9
ATOM      9  C   UNL     1       8.463   9.689  18.018  0.00  0.00    +0.000 C 
BRANCH   9  10
ATOM     10  C   UNL     1       9.377  10.747  18.604  0.00  0.00    +0.000 A 
ATOM     11  C   UNL     1       9.674  10.749  19.970  0.00  0.00    +0.000 A 
ATOM     12  C   UNL     1      10.173  11.915  20.548  0.00  0.00    +0.000 A 
ATOM     13  C   UNL     1      10.318  13.037  19.747  0.00  0.00    +0.000 A 
ATOM     14  C   UNL     1      10.102  12.910  18.378  0.00  0.00    +0.000 A 
ATOM     15  N   UNL     1       9.651  11.794  17.790  0.00  0.00    +0.000 NA
ATOM     16  N   UNL     1      10.277  14.044  17.559  0.00  0.00    +0.000 N 
ATOM     17  C   UNL     1       9.740  15.181  18.129  0.00  0.00    +0.000 C 
ATOM     18  O   UNL     1       9.093  16.003  17.491  0.00  0.00    +0.000 OA
ATOM     19  C   UNL     1      10.058  15.339  19.623  0.00  0.00    +0.000 C 
ATOM     20  O   UNL     1      10.642  14.236  20.324  0.00  0.00    +0.000 OA
ATOM     21  H   UNL     1      11.283  14.188  17.538  0.00  0.00    +0.000 HD
ENDBRANCH   9  10
ENDBRANCH   7   9
ENDBRANCH   4   7
BRANCH   1  22
ATOM     22  C   UNL     1       5.645   3.838  16.871  0.00  0.00    +0.000 C 
BRANCH  22  23
ATOM     23  N   UNL     1       5.951   2.953  15.731  0.00  0.00    +0.000 NA
ATOM     24  H   UNL     1       5.737   1.986  15.980  0.00  0.00    +0.000 HD
ATOM     25  H   UNL     1       6.959   2.971  15.566  0.00  0.00    +0.000 HD
ENDBRANCH  22  23
BRANCH  22  26
ATOM     26  C   UNL     1       4.218   4.461  16.730  0.00  0.00    +0.000 C 
BRANCH  26  32
ATOM     27  C   UNL     1       1.796   2.999  21.756  0.00  0.00    +0.000 C 
ATOM     28  C   UNL     1       2.182   3.382  20.356  0.00  0.00    +0.000 A 
ATOM     29  C   UNL     1       2.541   2.452  19.458  0.00  0.00    +0.000 A 
ATOM     30  C   UNL     1       3.075   2.786  18.120  0.00  0.00    +0.000 A 
ATOM     31  O   UNL     1       3.316   1.868  17.341  0.00  0.00    +0.000 OA
ATOM     32  N   UNL     1       3.345   4.122  17.867  0.00  0.00    +0.000 N 
ATOM     33  C   UNL     1       2.798   5.147  18.708  0.00  0.00    +0.000 A 
ATOM     34  C   UNL     1       2.837   6.499  18.332  0.00  0.00    +0.000 A 
ATOM     35  C   UNL     1       2.285   7.476  19.161  0.00  0.00    +0.000 A 
ATOM     36  F   UNL     1       2.319   8.756  18.775  0.00  0.00    +0.000 F 
ATOM     37  C   UNL     1       1.698   7.141  20.370  0.00  0.00    +0.000 A 
ATOM     38  C   UNL     1       1.660   5.803  20.760  0.00  0.00    +0.000 A 
ATOM     39  C   UNL     1       2.210   4.797  19.939  0.00  0.00    +0.000 A 
ENDBRANCH  26  32
ENDBRANCH  22  26
ENDBRANCH   1  22
TORSDOF 7
ENDMDL
MODEL 4
REMARK VINA RESULT:      -9.5      5.953      8.926
REMARK  Name = 
REMARK  8 active torsions:
REMARK  status: ('A' for Active; 'I' for Inactive)
REMARK    1  A    between atoms: C_1  and  C_2
REMARK    2  A    between atoms: N_6  and  C_7
REMARK    3  A    between atoms: C_7  and  C_8
REMARK    4  A    between atoms: C_8  and  N_9
REMARK    5  A    between atoms: C_8  and  C_10
REMARK    6  A    between atoms: C_13  and  N_14
REMARK    7  A    between atoms: N_14  and  C_15
REMARK    8  A    between atoms: C_15  and  C_16
REMARK                            x       y       z     vdW  Elec       q    Type
REMARK                         _______ _______ _______ _____ _____    ______ ____
ROOT
ATOM      1  C   UNL     1       2.459   6.211  19.704  0.00  0.00    +0.000 C 
ATOM      2  C   UNL     1       2.448   6.753  18.262  0.00  0.00    +0.000 C 
ATOM      3  C   UNL     1       2.526   8.275  18.180  0.00  0.00    +0.000 C 
ATOM      4  C   UNL     1       1.400   8.932  18.982  0.00  0.00    +0.000 C 
ATOM      5  C   UNL     1       1.524   8.496  20.449  0.00  0.00    +0.000 C 
ATOM      6  C   UNL     1       1.438   6.977  20.581  0.00  0.00    +0.000 C 
ENDROOT
BRANCH   4   7
ATOM      7  N   UNL     1       1.456  10.394  18.919  0.00  0.00    +0.000 NA
ATOM      8  H   UNL     1       2.440  10.679  18.961  0.00  0.00    +0.000 HD
BRANCH   7   9
ATOM      9  C   UNL     1       0.785  11.057  20.053  0.00  0.00    +0.000 C 
BRANCH   9  10
ATOM     10  C   UNL     1      -0.517  11.662  19.564  0.00  0.00    +0.000 A 
ATOM     11  C   UNL     1      -1.544  11.956  20.465  0.00  0.00    +0.000 A 
ATOM     12  C   UNL     1      -2.838  12.131  19.977  0.00  0.00    +0.000 A 
ATOM     13  C   UNL     1      -3.056  11.968  18.618  0.00  0.00    +0.000 A 
ATOM     14  C   UNL     1      -1.957  11.784  17.785  0.00  0.00    +0.000 A 
ATOM     15  N   UNL     1      -0.698  11.642  18.222  0.00  0.00    +0.000 NA
ATOM     16  N   UNL     1      -2.175  11.646  16.399  0.00  0.00    +0.000 N 
ATOM     17  C   UNL     1      -3.256  10.831  16.125  0.00  0.00    +0.000 C 
ATOM     18  O   UNL     1      -3.242   9.984  15.239  0.00  0.00    +0.000 OA
ATOM     19  C   UNL     1      -4.483  11.106  17.005  0.00  0.00    +0.000 C 
ATOM     20  O   UNL     1      -4.339  11.966  18.140  0.00  0.00    +0.000 OA
ATOM     21  H   UNL     1      -2.442  12.578  16.090  0.00  0.00    +0.000 HD
ENDBRANCH   9  10
ENDBRANCH   7   9
ENDBRANCH   4   7
BRANCH   1  22
ATOM     22  C   UNL     1       2.146   4.684  19.748  0.00  0.00    +0.000 C 
BRANCH  22  23
ATOM     23  N   UNL     1       1.232   4.391  20.868  0.00  0.00    +0.000 NA
ATOM     24  H   UNL     1       1.033   5.252  21.382  0.00  0.00    +0.000 HD
ATOM     25  H   UNL     1       1.715   3.786  21.533  0.00  0.00    +0.000 HD
ENDBRANCH  22  23
BRANCH  22  26
ATOM     26  C   UNL     1       3.402   3.754  19.792  0.00  0.00    +0.000 C 
BRANCH  26  32
ATOM     27  C   UNL     1       5.515   4.520  14.480  0.00  0.00    +0.000 C 
ATOM     28  C   UNL     1       5.134   4.122  15.877  0.00  0.00    +0.000 A 
ATOM     29  C   UNL     1       4.099   3.299  16.104  0.00  0.00    +0.000 A 
ATOM     30  C   UNL     1       3.588   2.999  17.459  0.00  0.00    +0.000 A 
ATOM     31  O   UNL     1       2.676   2.184  17.573  0.00  0.00    +0.000 OA
ATOM     32  N   UNL     1       4.125   3.729  18.508  0.00  0.00    +0.000 N 
ATOM     33  C   UNL     1       5.349   4.456  18.337  0.00  0.00    +0.000 A 
ATOM     34  C   UNL     1       6.046   4.984  19.437  0.00  0.00    +0.000 A 
ATOM     35  C   UNL     1       7.242   5.676  19.245  0.00  0.00    +0.000 A 
ATOM     36  F   UNL     1       7.897   6.155  20.307  0.00  0.00    +0.000 F 
ATOM     37  C   UNL     1       7.764   5.867  17.976  0.00  0.00    +0.000 A 
ATOM     38  C   UNL     1       7.078   5.356  16.875  0.00  0.00    +0.000 A 
ATOM     39  C   UNL     1       5.868   4.652  17.042  0.00  0.00    +0.000 A 
ENDBRANCH  26  32
ENDBRANCH  22  26
ENDBRANCH   1  22
TORSDOF 7
ENDMDL
MODEL 5
REMARK VINA RESULT:      -9.4      1.315      1.434
REMARK  Name = 
REMARK  8 active torsions:
REMARK  status: ('A' for Active; 'I' for Inactive)
REMARK    1  A    between atoms: C_1  and  C_2
REMARK    2  A    between atoms: N_6  and  C_7
REMARK    3  A    between atoms: C_7  and  C_8
REMARK    4  A    between atoms: C_8  and  N_9
REMARK    5  A    between atoms: C_8  and  C_10
REMARK    6  A    between atoms: C_13  and  N_14
REMARK    7  A    between atoms: N_14  and  C_15
REMARK    8  A    between atoms: C_15  and  C_16
REMARK                            x       y       z     vdW  Elec       q    Type
REMARK                         _______ _______ _______ _____ _____    ______ ____
ROOT
ATOM      1  C   UNL     1       6.172   5.379  17.815  0.00  0.00    +0.000 C 
ATOM      2  C   UNL     1       7.562   5.142  18.435  0.00  0.00    +0.000 C 
ATOM      3  C   UNL     1       8.142   6.374  19.126  0.00  0.00    +0.000 C 
ATOM      4  C   UNL     1       8.205   7.567  18.170  0.00  0.00    +0.000 C 
ATOM      5  C   UNL     1       6.784   7.880  17.682  0.00  0.00    +0.000 C 
ATOM      6  C   UNL     1       6.168   6.677  16.971  0.00  0.00    +0.000 C 
ENDROOT
BRANCH   4   7
ATOM      7  N   UNL     1       8.757   8.762  18.811  0.00  0.00    +0.000 NA
ATOM      8  H   UNL     1       8.241   8.925  19.682  0.00  0.00    +0.000 HD
BRANCH   7   9
ATOM      9  C   UNL     1       8.602   9.987  18.005  0.00  0.00    +0.000 C 
BRANCH   9  10
ATOM     10  C   UNL     1       9.355  11.116  18.682  0.00  0.00    +0.000 A 
ATOM     11  C   UNL     1      10.225  10.852  19.744  0.00  0.00    +0.000 A 
ATOM     12  C   UNL     1      10.591  11.897  20.590  0.00  0.00    +0.000 A 
ATOM     13  C   UNL     1      10.044  13.150  20.362  0.00  0.00    +0.000 A 
ATOM     14  C   UNL     1       9.275  13.343  19.219  0.00  0.00    +0.000 A 
ATOM     15  N   UNL     1       8.932  12.364  18.371  0.00  0.00    +0.000 NA
ATOM     16  N   UNL     1       8.742  14.625  18.972  0.00  0.00    +0.000 N 
ATOM     17  C   UNL     1       8.234  15.203  20.118  0.00  0.00    +0.000 C 
ATOM     18  O   UNL     1       7.171  15.812  20.141  0.00  0.00    +0.000 OA
ATOM     19  C   UNL     1       9.138  15.044  21.349  0.00  0.00    +0.000 C 
ATOM     20  O   UNL     1      10.253  14.149  21.276  0.00  0.00    +0.000 OA
ATOM     21  H   UNL     1       9.547  15.187  18.706  0.00  0.00    +0.000 HD
ENDBRANCH   9  10
ENDBRANCH   7   9
ENDBRANCH   4   7
BRANCH   1  22
ATOM     22  C   UNL     1       5.725   4.176  16.928  0.00  0.00    +0.000 C 
BRANCH  22  23
ATOM     23  N   UNL     1       6.516   4.151  15.682  0.00  0.00    +0.000 NA
ATOM     24  H   UNL     1       6.221   3.362  15.106  0.00  0.00    +0.000 HD
ATOM     25  H   UNL     1       7.491   3.964  15.919  0.00  0.00    +0.000 HD
ENDBRANCH  22  23
BRANCH  22  26
ATOM     26  C   UNL     1       4.193   4.116  16.622  0.00  0.00    +0.000 C 
BRANCH  26  32
ATOM     27  C   UNL     1       2.066   3.255  21.913  0.00  0.00    +0.000 C 
ATOM     28  C   UNL     1       2.370   3.472  20.459  0.00  0.00    +0.000 A 
ATOM     29  C   UNL     1       2.683   2.443  19.657  0.00  0.00    +0.000 A 
ATOM     30  C   UNL     1       3.140   2.616  18.261  0.00  0.00    +0.000 A 
ATOM     31  O   UNL     1       3.343   1.612  17.583  0.00  0.00    +0.000 OA
ATOM     32  N   UNL     1       3.388   3.913  17.839  0.00  0.00    +0.000 N 
ATOM     33  C   UNL     1       2.882   5.030  18.582  0.00  0.00    +0.000 A 
ATOM     34  C   UNL     1       2.892   6.329  18.049  0.00  0.00    +0.000 A 
ATOM     35  C   UNL     1       2.381   7.397  18.788  0.00  0.00    +0.000 A 
ATOM     36  F   UNL     1       2.385   8.622  18.253  0.00  0.00    +0.000 F 
ATOM     37  C   UNL     1       1.864   7.206  20.059  0.00  0.00    +0.000 A 
ATOM     38  C   UNL     1       1.856   5.924  20.604  0.00  0.00    +0.000 A 
ATOM     39  C   UNL     1       2.366   4.827  19.878  0.00  0.00    +0.000 A 
ENDBRANCH  26  32
ENDBRANCH  22  26
ENDBRANCH   1  22
TORSDOF 7
ENDMDL
MODEL 6
REMARK VINA RESULT:      -9.1      5.704      9.000
REMARK  Name = 
REMARK  8 active torsions:
REMARK  status: ('A' for Active; 'I' for Inactive)
REMARK    1  A    between atoms: C_1  and  C_2
REMARK    2  A    between atoms: N_6  and  C_7
REMARK    3  A    between atoms: C_7  and  C_8
REMARK    4  A    between atoms: C_8  and  N_9
REMARK    5  A    between atoms: C_8  and  C_10
REMARK    6  A    between atoms: C_13  and  N_14
REMARK    7  A    between atoms: N_14  and  C_15
REMARK    8  A    between atoms: C_15  and  C_16
REMARK                            x       y       z     vdW  Elec       q    Type
REMARK                         _______ _______ _______ _____ _____    ______ ____
ROOT
ATOM      1  C   UNL     1       1.869   8.273  20.364  0.00  0.00    +0.000 C 
ATOM      2  C   UNL     1       1.496   6.840  20.790  0.00  0.00    +0.000 C 
ATOM      3  C   UNL     1       2.287   5.758  20.057  0.00  0.00    +0.000 C 
ATOM      4  C   UNL     1       2.138   5.896  18.540  0.00  0.00    +0.000 C 
ATOM      5  C   UNL     1       2.658   7.277  18.120  0.00  0.00    +0.000 C 
ATOM      6  C   UNL     1       1.886   8.393  18.820  0.00  0.00    +0.000 C 
ENDROOT
BRANCH   4   7
ATOM      7  N   UNL     1       2.889   4.869  17.815  0.00  0.00    +0.000 NA
ATOM      8  H   UNL     1       2.265   4.073  17.649  0.00  0.00    +0.000 HD
BRANCH   7   9
ATOM      9  C   UNL     1       4.039   4.339  18.571  0.00  0.00    +0.000 C 
BRANCH   9  10
ATOM     10  C   UNL     1       5.288   4.482  17.723  0.00  0.00    +0.000 A 
ATOM     11  C   UNL     1       6.113   5.603  17.858  0.00  0.00    +0.000 A 
ATOM     12  C   UNL     1       7.006   5.909  16.833  0.00  0.00    +0.000 A 
ATOM     13  C   UNL     1       7.010   5.107  15.703  0.00  0.00    +0.000 A 
ATOM     14  C   UNL     1       6.235   3.951  15.703  0.00  0.00    +0.000 A 
ATOM     15  N   UNL     1       5.389   3.615  16.687  0.00  0.00    +0.000 NA
ATOM     16  N   UNL     1       6.261   3.120  14.565  0.00  0.00    +0.000 N 
ATOM     17  C   UNL     1       6.219   3.848  13.393  0.00  0.00    +0.000 C 
ATOM     18  O   UNL     1       5.528   3.525  12.433  0.00  0.00    +0.000 OA
ATOM     19  C   UNL     1       7.143   5.074  13.387  0.00  0.00    +0.000 C 
ATOM     20  O   UNL     1       7.753   5.484  14.615  0.00  0.00    +0.000 OA
ATOM     21  H   UNL     1       7.179   2.682  14.592  0.00  0.00    +0.000 HD
ENDBRANCH   9  10
ENDBRANCH   7   9
ENDBRANCH   4   7
BRANCH   1  22
ATOM     22  C   UNL     1       0.885   9.325  20.961  0.00  0.00    +0.000 C 
BRANCH  22  23
ATOM     23  N   UNL     1      -0.371   8.664  21.363  0.00  0.00    +0.000 NA
ATOM     24  H   UNL     1      -1.076   8.798  20.636  0.00  0.00    +0.000 HD
ATOM     25  H   UNL     1      -0.740   9.140  22.187  0.00  0.00    +0.000 HD
ENDBRANCH  22  23
BRANCH  22  26
ATOM     26  C   UNL     1       0.602  10.559  20.043  0.00  0.00    +0.000 C 
BRANCH  26  32
ATOM     27  C   UNL     1      -4.112  13.825  20.654  0.00  0.00    +0.000 C 
ATOM     28  C   UNL     1      -3.033  12.783  20.592  0.00  0.00    +0.000 A 
ATOM     29  C   UNL     1      -2.145  12.646  21.589  0.00  0.00    +0.000 A 
ATOM     30  C   UNL     1      -0.975  11.745  21.510  0.00  0.00    +0.000 A 
ATOM     31  O   UNL     1      -0.252  11.637  22.497  0.00  0.00    +0.000 OA
ATOM     32  N   UNL     1      -0.729  11.141  20.286  0.00  0.00    +0.000 N 
ATOM     33  C   UNL     1      -1.747  11.102  19.277  0.00  0.00    +0.000 A 
ATOM     34  C   UNL     1      -1.621  10.283  18.143  0.00  0.00    +0.000 A 
ATOM     35  C   UNL     1      -2.631  10.253  17.181  0.00  0.00    +0.000 A 
ATOM     36  F   UNL     1      -2.498   9.453  16.118  0.00  0.00    +0.000 F 
ATOM     37  C   UNL     1      -3.771  11.029  17.314  0.00  0.00    +0.000 A 
ATOM     38  C   UNL     1      -3.905  11.853  18.431  0.00  0.00    +0.000 A 
ATOM     39  C   UNL     1      -2.898  11.902  19.417  0.00  0.00    +0.000 A 
ENDBRANCH  26  32
ENDBRANCH  22  26
ENDBRANCH   1  22
TORSDOF 7
ENDMDL
MODEL 7
REMARK VINA RESULT:      -8.8      4.528      6.654
REMARK  Name = 
REMARK  8 active torsions:
REMARK  status: ('A' for Active; 'I' for Inactive)
REMARK    1  A    between atoms: C_1  and  C_2
REMARK    2  A    between atoms: N_6  and  C_7
REMARK    3  A    between atoms: C_7  and  C_8
REMARK    4  A    between atoms: C_8  and  N_9
REMARK    5  A    between atoms: C_8  and  C_10
REMARK    6  A    between atoms: C_13  and  N_14
REMARK    7  A    between atoms: N_14  and  C_15
REMARK    8  A    between atoms: C_15  and  C_16
REMARK                            x       y       z     vdW  Elec       q    Type
REMARK                         _______ _______ _______ _____ _____    ______ ____
ROOT
ATOM      1  C   UNL     1       2.441   6.295  19.643  0.00  0.00    +0.000 C 
ATOM      2  C   UNL     1       2.390   6.808  18.191  0.00  0.00    +0.000 C 
ATOM      3  C   UNL     1       2.469   8.329  18.077  0.00  0.00    +0.000 C 
ATOM      4  C   UNL     1       1.367   9.004  18.897  0.00  0.00    +0.000 C 
ATOM      5  C   UNL     1       1.531   8.597  20.368  0.00  0.00    +0.000 C 
ATOM      6  C   UNL     1       1.447   7.081  20.532  0.00  0.00    +0.000 C 
ENDROOT
BRANCH   4   7
ATOM      7  N   UNL     1       1.423  10.464  18.803  0.00  0.00    +0.000 NA
ATOM      8  H   UNL     1       2.407  10.749  18.830  0.00  0.00    +0.000 HD
BRANCH   7   9
ATOM      9  C   UNL     1       0.764  11.151  19.929  0.00  0.00    +0.000 C 
BRANCH   9  10
ATOM     10  C   UNL     1       1.004  12.643  19.799  0.00  0.00    +0.000 A 
ATOM     11  C   UNL     1      -0.015  13.488  19.351  0.00  0.00    +0.000 A 
ATOM     12  C   UNL     1       0.322  14.752  18.869  0.00  0.00    +0.000 A 
ATOM     13  C   UNL     1       1.663  15.101  18.821  0.00  0.00    +0.000 A 
ATOM     14  C   UNL     1       2.596  14.240  19.390  0.00  0.00    +0.000 A 
ATOM     15  N   UNL     1       2.298  13.033  19.887  0.00  0.00    +0.000 NA
ATOM     16  N   UNL     1       3.957  14.608  19.367  0.00  0.00    +0.000 N 
ATOM     17  C   UNL     1       4.326  15.145  18.150  0.00  0.00    +0.000 C 
ATOM     18  O   UNL     1       5.380  14.862  17.591  0.00  0.00    +0.000 OA
ATOM     19  C   UNL     1       3.317  16.151  17.580  0.00  0.00    +0.000 C 
ATOM     20  O   UNL     1       2.031  16.264  18.197  0.00  0.00    +0.000 OA
ATOM     21  H   UNL     1       4.025  15.368  20.041  0.00  0.00    +0.000 HD
ENDBRANCH   9  10
ENDBRANCH   7   9
ENDBRANCH   4   7
BRANCH   1  22
ATOM     22  C   UNL     1       2.127   4.770  19.726  0.00  0.00    +0.000 C 
BRANCH  22  23
ATOM     23  N   UNL     1       1.214   4.507  20.854  0.00  0.00    +0.000 NA
ATOM     24  H   UNL     1       0.768   5.379  21.145  0.00  0.00    +0.000 HD
ATOM     25  H   UNL     1       1.767   4.205  21.658  0.00  0.00    +0.000 HD
ENDBRANCH  22  23
BRANCH  22  26
ATOM     26  C   UNL     1       3.383   3.840  19.792  0.00  0.00    +0.000 C 
BRANCH  26  32
ATOM     27  C   UNL     1       5.523   4.508  14.478  0.00  0.00    +0.000 C 
ATOM     28  C   UNL     1       5.131   4.132  15.878  0.00  0.00    +0.000 A 
ATOM     29  C   UNL     1       4.079   3.333  16.111  0.00  0.00    +0.000 A 
ATOM     30  C   UNL     1       3.558   3.057  17.468  0.00  0.00    +0.000 A 
ATOM     31  O   UNL     1       2.631   2.262  17.589  0.00  0.00    +0.000 OA
ATOM     32  N   UNL     1       4.107   3.788  18.511  0.00  0.00    +0.000 N 
ATOM     33  C   UNL     1       5.346   4.489  18.335  0.00  0.00    +0.000 A 
ATOM     34  C   UNL     1       6.051   5.014  19.431  0.00  0.00    +0.000 A 
ATOM     35  C   UNL     1       7.261   5.680  19.235  0.00  0.00    +0.000 A 
ATOM     36  F   UNL     1       7.923   6.158  20.294  0.00  0.00    +0.000 F 
ATOM     37  C   UNL     1       7.790   5.847  17.965  0.00  0.00    +0.000 A 
ATOM     38  C   UNL     1       7.097   5.338  16.868  0.00  0.00    +0.000 A 
ATOM     39  C   UNL     1       5.872   4.660  17.039  0.00  0.00    +0.000 A 
ENDBRANCH  26  32
ENDBRANCH  22  26
ENDBRANCH   1  22
TORSDOF 7
ENDMDL
MODEL 8
REMARK VINA RESULT:      -8.7      5.856      8.869
REMARK  Name = 
REMARK  8 active torsions:
REMARK  status: ('A' for Active; 'I' for Inactive)
REMARK    1  A    between atoms: C_1  and  C_2
REMARK    2  A    between atoms: N_6  and  C_7
REMARK    3  A    between atoms: C_7  and  C_8
REMARK    4  A    between atoms: C_8  and  N_9
REMARK    5  A    between atoms: C_8  and  C_10
REMARK    6  A    between atoms: C_13  and  N_14
REMARK    7  A    between atoms: N_14  and  C_15
REMARK    8  A    between atoms: C_15  and  C_16
REMARK                            x       y       z     vdW  Elec       q    Type
REMARK                         _______ _______ _______ _____ _____    ______ ____
ROOT
ATOM      1  C   UNL     1       2.164   7.801  20.548  0.00  0.00    +0.000 C 
ATOM      2  C   UNL     1       1.500   6.444  20.850  0.00  0.00    +0.000 C 
ATOM      3  C   UNL     1       1.999   5.307  19.962  0.00  0.00    +0.000 C 
ATOM      4  C   UNL     1       1.821   5.644  18.480  0.00  0.00    +0.000 C 
ATOM      5  C   UNL     1       2.618   6.918  18.168  0.00  0.00    +0.000 C 
ATOM      6  C   UNL     1       2.143   8.089  19.027  0.00  0.00    +0.000 C 
ENDROOT
BRANCH   4   7
ATOM      7  N   UNL     1       2.294   4.567  17.607  0.00  0.00    +0.000 NA
ATOM      8  H   UNL     1       1.489   3.987  17.350  0.00  0.00    +0.000 HD
BRANCH   7   9
ATOM      9  C   UNL     1       3.261   3.665  18.259  0.00  0.00    +0.000 C 
BRANCH   9  10
ATOM     10  C   UNL     1       4.641   3.938  17.693  0.00  0.00    +0.000 A 
ATOM     11  C   UNL     1       5.395   5.021  18.153  0.00  0.00    +0.000 A 
ATOM     12  C   UNL     1       6.454   5.484  17.374  0.00  0.00    +0.000 A 
ATOM     13  C   UNL     1       6.691   4.869  16.154  0.00  0.00    +0.000 A 
ATOM     14  C   UNL     1       5.961   3.729  15.830  0.00  0.00    +0.000 A 
ATOM     15  N   UNL     1       4.957   3.244  16.573  0.00  0.00    +0.000 NA
ATOM     16  N   UNL     1       6.221   3.087  14.602  0.00  0.00    +0.000 N 
ATOM     17  C   UNL     1       6.378   3.991  13.570  0.00  0.00    +0.000 C 
ATOM     18  O   UNL     1       5.886   3.824  12.460  0.00  0.00    +0.000 OA
ATOM     19  C   UNL     1       7.252   5.201  13.928  0.00  0.00    +0.000 C 
ATOM     20  O   UNL     1       7.612   5.411  15.298  0.00  0.00    +0.000 OA
ATOM     21  H   UNL     1       7.130   2.649  14.733  0.00  0.00    +0.000 HD
ENDBRANCH   9  10
ENDBRANCH   7   9
ENDBRANCH   4   7
BRANCH   1  22
ATOM     22  C   UNL     1       1.465   8.967  21.312  0.00  0.00    +0.000 C 
BRANCH  22  23
ATOM     23  N   UNL     1       2.011   9.069  22.679  0.00  0.00    +0.000 NA
ATOM     24  H   UNL     1       2.976   8.735  22.688  0.00  0.00    +0.000 HD
ATOM     25  H   UNL     1       1.497   8.426  23.283  0.00  0.00    +0.000 HD
ENDBRANCH  22  23
BRANCH  22  26
ATOM     26  C   UNL     1      -0.097   8.897  21.336  0.00  0.00    +0.000 C 
BRANCH  26  32
ATOM     27  C   UNL     1      -1.436  14.474  20.725  0.00  0.00    +0.000 C 
ATOM     28  C   UNL     1      -1.344  12.987  20.911  0.00  0.00    +0.000 A 
ATOM     29  C   UNL     1      -1.111  12.454  22.120  0.00  0.00    +0.000 A 
ATOM     30  C   UNL     1      -0.860  11.012  22.332  0.00  0.00    +0.000 A 
ATOM     31  O   UNL     1      -0.720  10.605  23.482  0.00  0.00    +0.000 OA
ATOM     32  N   UNL     1      -0.718  10.227  21.198  0.00  0.00    +0.000 N 
ATOM     33  C   UNL     1      -1.152  10.709  19.920  0.00  0.00    +0.000 A 
ATOM     34  C   UNL     1      -1.261   9.851  18.813  0.00  0.00    +0.000 A 
ATOM     35  C   UNL     1      -1.699  10.342  17.583  0.00  0.00    +0.000 A 
ATOM     36  F   UNL     1      -1.811   9.504  16.547  0.00  0.00    +0.000 F 
ATOM     37  C   UNL     1      -2.027  11.678  17.420  0.00  0.00    +0.000 A 
ATOM     38  C   UNL     1      -1.916  12.543  18.508  0.00  0.00    +0.000 A 
ATOM     39  C   UNL     1      -1.476  12.071  19.763  0.00  0.00    +0.000 A 
ENDBRANCH  26  32
ENDBRANCH  22  26
ENDBRANCH   1  22
TORSDOF 7
ENDMDL
MODEL 9
REMARK VINA RESULT:      -8.7      1.291      1.433
REMARK  Name = 
REMARK  8 active torsions:
REMARK  status: ('A' for Active; 'I' for Inactive)
REMARK    1  A    between atoms: C_1  and  C_2
REMARK    2  A    between atoms: N_6  and  C_7
REMARK    3  A    between atoms: C_7  and  C_8
REMARK    4  A    between atoms: C_8  and  N_9
REMARK    5  A    between atoms: C_8  and  C_10
REMARK    6  A    between atoms: C_13  and  N_14
REMARK    7  A    between atoms: N_14  and  C_15
REMARK    8  A    between atoms: C_15  and  C_16
REMARK                            x       y       z     vdW  Elec       q    Type
REMARK                         _______ _______ _______ _____ _____    ______ ____
ROOT
ATOM      1  C   UNL     1       6.631   6.253  17.949  0.00  0.00    +0.000 C 
ATOM      2  C   UNL     1       7.946   5.976  18.703  0.00  0.00    +0.000 C 
ATOM      3  C   UNL     1       8.519   7.205  19.404  0.00  0.00    +0.000 C 
ATOM      4  C   UNL     1       8.729   8.357  18.419  0.00  0.00    +0.000 C 
ATOM      5  C   UNL     1       7.376   8.717  17.791  0.00  0.00    +0.000 C 
ATOM      6  C   UNL     1       6.768   7.518  17.066  0.00  0.00    +0.000 C 
ENDROOT
BRANCH   4   7
ATOM      7  N   UNL     1       9.278   9.548  19.070  0.00  0.00    +0.000 NA
ATOM      8  H   UNL     1       9.129   9.459  20.080  0.00  0.00    +0.000 HD
BRANCH   7   9
ATOM      9  C   UNL     1       8.613  10.800  18.663  0.00  0.00    +0.000 C 
BRANCH   9  10
ATOM     10  C   UNL     1       9.643  11.719  18.037  0.00  0.00    +0.000 A 
ATOM     11  C   UNL     1      11.006  11.428  18.134  0.00  0.00    +0.000 A 
ATOM     12  C   UNL     1      11.931  12.447  17.913  0.00  0.00    +0.000 A 
ATOM     13  C   UNL     1      11.453  13.720  17.641  0.00  0.00    +0.000 A 
ATOM     14  C   UNL     1      10.085  13.893  17.455  0.00  0.00    +0.000 A 
ATOM     15  N   UNL     1       9.176  12.925  17.632  0.00  0.00    +0.000 NA
ATOM     16  N   UNL     1       9.602  15.182  17.151  0.00  0.00    +0.000 N 
ATOM     17  C   UNL     1      10.213  16.156  17.915  0.00  0.00    +0.000 C 
ATOM     18  O   UNL     1       9.597  17.086  18.423  0.00  0.00    +0.000 OA
ATOM     19  C   UNL     1      11.734  15.988  18.040  0.00  0.00    +0.000 C 
ATOM     20  O   UNL     1      12.333  14.769  17.589  0.00  0.00    +0.000 OA
ATOM     21  H   UNL     1       9.903  15.345  16.194  0.00  0.00    +0.000 HD
ENDBRANCH   9  10
ENDBRANCH   7   9
ENDBRANCH   4   7
BRANCH   1  22
ATOM     22  C   UNL     1       6.208   5.040  17.064  0.00  0.00    +0.000 C 
BRANCH  22  23
ATOM     23  N   UNL     1       7.089   4.950  15.883  0.00  0.00    +0.000 NA
ATOM     24  H   UNL     1       7.820   5.660  15.946  0.00  0.00    +0.000 HD
ATOM     25  H   UNL     1       6.546   5.194  15.054  0.00  0.00    +0.000 HD
ENDBRANCH  22  23
BRANCH  22  26
ATOM     26  C   UNL     1       4.703   5.023  16.644  0.00  0.00    +0.000 C 
BRANCH  26  32
ATOM     27  C   UNL     1       2.205   3.536  21.625  0.00  0.00    +0.000 C 
ATOM     28  C   UNL     1       2.617   3.894  20.226  0.00  0.00    +0.000 A 
ATOM     29  C   UNL     1       3.118   2.970  19.394  0.00  0.00    +0.000 A 
ATOM     30  C   UNL     1       3.680   3.297  18.066  0.00  0.00    +0.000 A 
ATOM     31  O   UNL     1       4.058   2.377  17.346  0.00  0.00    +0.000 OA
ATOM     32  N   UNL     1       3.816   4.643  17.757  0.00  0.00    +0.000 N 
ATOM     33  C   UNL     1       3.119   5.638  18.518  0.00  0.00    +0.000 A 
ATOM     34  C   UNL     1       3.031   6.968  18.076  0.00  0.00    +0.000 A 
ATOM     35  C   UNL     1       2.336   7.915  18.828  0.00  0.00    +0.000 A 
ATOM     36  F   UNL     1       2.250   9.172  18.379  0.00  0.00    +0.000 F 
ATOM     37  C   UNL     1       1.728   7.574  20.025  0.00  0.00    +0.000 A 
ATOM     38  C   UNL     1       1.816   6.259  20.481  0.00  0.00    +0.000 A 
ATOM     39  C   UNL     1       2.512   5.282  19.739  0.00  0.00    +0.000 A 
ENDBRANCH  26  32
ENDBRANCH  22  26
ENDBRANCH   1  22
TORSDOF 7
ENDMDL
