MODEL 1
REMARK VINA RESULT:      -6.3      0.000      0.000
REMARK  Name = 
REMARK  6 active torsions:
REMARK  status: ('A' for Active; 'I' for Inactive)
REMARK    1  A    between atoms: C_1  and  N_2
REMARK    2  A    between atoms: N_2  and  C_3
REMARK    3  A    between atoms: N_2  and  N_4
REMARK    4  A    between atoms: N_2  and  C_5
REMARK    5  A    between atoms: C_5  and  C_6
REMARK    6  A    between atoms: C_8  and  C_9
REMARK                            x       y       z     vdW  Elec       q    Type
REMARK                         _______ _______ _______ _____ _____    ______ ____
ROOT
ATOM      1  C   UNL     1       3.381   4.555  17.665  0.00  0.00    +0.000 A 
ATOM      2  N   UNL     1       2.445   5.290  18.218  0.00  0.00    +0.000 NA
ATOM      3  C   UNL     1       2.983   6.560  18.158  0.00  0.00    +0.000 A 
ATOM      4  N   UNL     1       4.189   6.599  17.567  0.00  0.00    +0.000 NA
ATOM      5  O   UNL     1       4.455   5.273  17.244  0.00  0.00    +0.000 OA
ENDROOT
BRANCH   3   6
ATOM      6  C   UNL     1       2.269   7.726  18.660  0.00  0.00    +0.000 A 
ATOM      7  C   UNL     1       1.867   7.787  20.002  0.00  0.00    +0.000 A 
ATOM      8  C   UNL     1       1.156   8.890  20.484  0.00  0.00    +0.000 A 
ATOM      9  C   UNL     1       0.845   9.939  19.625  0.00  0.00    +0.000 A 
ATOM     10 CL   UNL     1      -0.046  11.289  20.215  0.00  0.00    +0.000 Cl
ATOM     11  C   UNL     1       1.247   9.902  18.292  0.00  0.00    +0.000 A 
ATOM     12  C   UNL     1       1.960   8.800  17.810  0.00  0.00    +0.000 A 
ENDBRANCH   3   6
BRANCH   1  13
ATOM     13  C   UNL     1       3.404   3.089  17.409  0.00  0.00    +0.000 C 
BRANCH  13  15
ATOM     14  C   UNL     1       2.026   1.970  19.225  0.00  0.00    +0.000 C 
ATOM     15  N   UNL     1       3.440   2.178  18.684  0.00  0.00    +0.000 N 
ATOM     16  C   UNL     1       4.366   2.722  19.768  0.00  0.00    +0.000 C 
BRANCH  15  17
ATOM     17  N   UNL     1       3.942   0.864  18.262  0.00  0.00    +0.000 NA
ATOM     18  H   UNL     1       4.646   0.468  18.901  0.00  0.00    +0.000 HD
ATOM     19  H   UNL     1       4.396   0.869  17.337  0.00  0.00    +0.000 HD
ENDBRANCH  15  17
ENDBRANCH  13  15
ENDBRANCH   1  13
TORSDOF 4
ENDMDL
MODEL 2
REMARK VINA RESULT:      -6.3      4.552      6.131
REMARK  Name = 
REMARK  6 active torsions:
REMARK  status: ('A' for Active; 'I' for Inactive)
REMARK    1  A    between atoms: C_1  and  N_2
REMARK    2  A    between atoms: N_2  and  C_3
REMARK    3  A    between atoms: N_2  and  N_4
REMARK    4  A    between atoms: N_2  and  C_5
REMARK    5  A    between atoms: C_5  and  C_6
REMARK    6  A    between atoms: C_8  and  C_9
REMARK                            x       y       z     vdW  Elec       q    Type
REMARK                         _______ _______ _______ _____ _____    ______ ____
ROOT
ATOM      1  C   UNL     1       4.231   4.625  19.152  0.00  0.00    +0.000 A 
ATOM      2  N   UNL     1       4.183   4.668  17.842  0.00  0.00    +0.000 NA
ATOM      3  C   UNL     1       5.513   4.541  17.488  0.00  0.00    +0.000 A 
ATOM      4  N   UNL     1       6.333   4.401  18.542  0.00  0.00    +0.000 NA
ATOM      5  O   UNL     1       5.487   4.460  19.644  0.00  0.00    +0.000 OA
ENDROOT
BRANCH   3   6
ATOM      6  C   UNL     1       5.943   4.525  16.096  0.00  0.00    +0.000 A 
ATOM      7  C   UNL     1       5.151   3.906  15.118  0.00  0.00    +0.000 A 
ATOM      8  C   UNL     1       5.571   3.862  13.784  0.00  0.00    +0.000 A 
ATOM      9  C   UNL     1       6.784   4.439  13.423  0.00  0.00    +0.000 A 
ATOM     10 CL   UNL     1       7.309   4.369  11.785  0.00  0.00    +0.000 Cl
ATOM     11  C   UNL     1       7.577   5.071  14.380  0.00  0.00    +0.000 A 
ATOM     12  C   UNL     1       7.156   5.117  15.712  0.00  0.00    +0.000 A 
ENDBRANCH   3   6
BRANCH   1  13
ATOM     13  C   UNL     1       3.120   4.692  20.141  0.00  0.00    +0.000 C 
BRANCH  13  15
ATOM     14  C   UNL     1       0.985   3.431  19.593  0.00  0.00    +0.000 C 
ATOM     15  N   UNL     1       2.314   3.363  20.345  0.00  0.00    +0.000 N 
ATOM     16  C   UNL     1       2.093   3.030  21.817  0.00  0.00    +0.000 C 
BRANCH  15  17
ATOM     17  N   UNL     1       3.102   2.282  19.738  0.00  0.00    +0.000 NA
ATOM     18  H   UNL     1       2.553   1.672  19.116  0.00  0.00    +0.000 HD
ATOM     19  H   UNL     1       3.532   1.644  20.423  0.00  0.00    +0.000 HD
ENDBRANCH  15  17
ENDBRANCH  13  15
ENDBRANCH   1  13
TORSDOF 4
ENDMDL
MODEL 3
REMARK VINA RESULT:      -6.3      0.141      1.180
REMARK  Name = 
REMARK  6 active torsions:
REMARK  status: ('A' for Active; 'I' for Inactive)
REMARK    1  A    between atoms: C_1  and  N_2
REMARK    2  A    between atoms: N_2  and  C_3
REMARK    3  A    between atoms: N_2  and  N_4
REMARK    4  A    between atoms: N_2  and  C_5
REMARK    5  A    between atoms: C_5  and  C_6
REMARK    6  A    between atoms: C_8  and  C_9
REMARK                            x       y       z     vdW  Elec       q    Type
REMARK                         _______ _______ _______ _____ _____    ______ ____
ROOT
ATOM      1  C   UNL     1       3.460   4.536  17.777  0.00  0.00    +0.000 A 
ATOM      2  N   UNL     1       2.466   5.268  18.221  0.00  0.00    +0.000 NA
ATOM      3  C   UNL     1       3.023   6.531  18.274  0.00  0.00    +0.000 A 
ATOM      4  N   UNL     1       4.298   6.569  17.853  0.00  0.00    +0.000 NA
ATOM      5  O   UNL     1       4.589   5.249  17.528  0.00  0.00    +0.000 OA
ENDROOT
BRANCH   3   6
ATOM      6  C   UNL     1       2.260   7.693  18.711  0.00  0.00    +0.000 A 
ATOM      7  C   UNL     1       1.936   8.710  17.801  0.00  0.00    +0.000 A 
ATOM      8  C   UNL     1       1.228   9.842  18.220  0.00  0.00    +0.000 A 
ATOM      9  C   UNL     1       0.841   9.960  19.550  0.00  0.00    +0.000 A 
ATOM     10 CL   UNL     1      -0.014  11.362  20.069  0.00  0.00    +0.000 Cl
ATOM     11  C   UNL     1       1.143   8.954  20.465  0.00  0.00    +0.000 A 
ATOM     12  C   UNL     1       1.848   7.822  20.047  0.00  0.00    +0.000 A 
ENDBRANCH   3   6
BRANCH   1  13
ATOM     13  C   UNL     1       3.501   3.078  17.480  0.00  0.00    +0.000 C 
BRANCH  13  15
ATOM     14  C   UNL     1       2.042   1.923  19.208  0.00  0.00    +0.000 C 
ATOM     15  N   UNL     1       3.478   2.131  18.729  0.00  0.00    +0.000 N 
ATOM     16  C   UNL     1       4.367   2.633  19.863  0.00  0.00    +0.000 C 
BRANCH  15  17
ATOM     17  N   UNL     1       3.983   0.824  18.288  0.00  0.00    +0.000 NA
ATOM     18  H   UNL     1       4.809   0.504  18.812  0.00  0.00    +0.000 HD
ATOM     19  H   UNL     1       4.270   0.799  17.299  0.00  0.00    +0.000 HD
ENDBRANCH  15  17
ENDBRANCH  13  15
ENDBRANCH   1  13
TORSDOF 4
ENDMDL
MODEL 4
REMARK VINA RESULT:      -6.3      4.546      6.124
REMARK  Name = 
REMARK  6 active torsions:
REMARK  status: ('A' for Active; 'I' for Inactive)
REMARK    1  A    between atoms: C_1  and  N_2
REMARK    2  A    between atoms: N_2  and  C_3
REMARK    3  A    between atoms: N_2  and  N_4
REMARK    4  A    between atoms: N_2  and  C_5
REMARK    5  A    between atoms: C_5  and  C_6
REMARK    6  A    between atoms: C_8  and  C_9
REMARK                            x       y       z     vdW  Elec       q    Type
REMARK                         _______ _______ _______ _____ _____    ______ ____
ROOT
ATOM      1  C   UNL     1       4.161   4.527  19.109  0.00  0.00    +0.000 A 
ATOM      2  N   UNL     1       4.149   4.593  17.798  0.00  0.00    +0.000 NA
ATOM      3  C   UNL     1       5.484   4.446  17.476  0.00  0.00    +0.000 A 
ATOM      4  N   UNL     1       6.273   4.272  18.549  0.00  0.00    +0.000 NA
ATOM      5  O   UNL     1       5.400   4.328  19.629  0.00  0.00    +0.000 OA
ENDROOT
BRANCH   3   6
ATOM      6  C   UNL     1       5.950   4.446  16.095  0.00  0.00    +0.000 A 
ATOM      7  C   UNL     1       7.171   5.048  15.761  0.00  0.00    +0.000 A 
ATOM      8  C   UNL     1       7.611   5.077  14.434  0.00  0.00    +0.000 A 
ATOM      9  C   UNL     1       6.832   4.503  13.436  0.00  0.00    +0.000 A 
ATOM     10 CL   UNL     1       7.365   4.554  11.800  0.00  0.00    +0.000 Cl
ATOM     11  C   UNL     1       5.621   3.888  13.752  0.00  0.00    +0.000 A 
ATOM     12  C   UNL     1       5.183   3.857  15.078  0.00  0.00    +0.000 A 
ENDBRANCH   3   6
BRANCH   1  13
ATOM     13  C   UNL     1       3.027   4.597  20.070  0.00  0.00    +0.000 C 
BRANCH  13  15
ATOM     14  C   UNL     1       0.866   3.333  19.641  0.00  0.00    +0.000 C 
ATOM     15  N   UNL     1       2.245   3.257  20.296  0.00  0.00    +0.000 N 
ATOM     16  C   UNL     1       2.131   2.887  21.771  0.00  0.00    +0.000 C 
BRANCH  15  17
ATOM     17  N   UNL     1       2.996   2.199  19.608  0.00  0.00    +0.000 NA
ATOM     18  H   UNL     1       2.732   1.249  19.905  0.00  0.00    +0.000 HD
ATOM     19  H   UNL     1       4.015   2.249  19.752  0.00  0.00    +0.000 HD
ENDBRANCH  15  17
ENDBRANCH  13  15
ENDBRANCH   1  13
TORSDOF 4
ENDMDL
MODEL 5
REMARK VINA RESULT:      -6.3      2.114      3.172
REMARK  Name = 
REMARK  6 active torsions:
REMARK  status: ('A' for Active; 'I' for Inactive)
REMARK    1  A    between atoms: C_1  and  N_2
REMARK    2  A    between atoms: N_2  and  C_3
REMARK    3  A    between atoms: N_2  and  N_4
REMARK    4  A    between atoms: N_2  and  C_5
REMARK    5  A    between atoms: C_5  and  C_6
REMARK    6  A    between atoms: C_8  and  C_9
REMARK                            x       y       z     vdW  Elec       q    Type
REMARK                         _______ _______ _______ _____ _____    ______ ____
ROOT
ATOM      1  C   UNL     1       4.244   5.060  17.667  0.00  0.00    +0.000 A 
ATOM      2  N   UNL     1       3.550   6.162  17.505  0.00  0.00    +0.000 NA
ATOM      3  C   UNL     1       3.081   6.413  18.780  0.00  0.00    +0.000 A 
ATOM      4  N   UNL     1       3.496   5.513  19.686  0.00  0.00    +0.000 NA
ATOM      5  O   UNL     1       4.262   4.616  18.951  0.00  0.00    +0.000 OA
ENDROOT
BRANCH   3   6
ATOM      6  C   UNL     1       2.252   7.573  19.084  0.00  0.00    +0.000 A 
ATOM      7  C   UNL     1       1.972   8.522  18.090  0.00  0.00    +0.000 A 
ATOM      8  C   UNL     1       1.202   9.652  18.381  0.00  0.00    +0.000 A 
ATOM      9  C   UNL     1       0.706   9.837  19.667  0.00  0.00    +0.000 A 
ATOM     10 CL   UNL     1      -0.228  11.237  20.029  0.00  0.00    +0.000 Cl
ATOM     11  C   UNL     1       0.963   8.897  20.664  0.00  0.00    +0.000 A 
ATOM     12  C   UNL     1       1.732   7.767  20.373  0.00  0.00    +0.000 A 
ENDBRANCH   3   6
BRANCH   1  13
ATOM     13  C   UNL     1       5.023   4.279  16.669  0.00  0.00    +0.000 C 
BRANCH  13  15
ATOM     14  C   UNL     1       6.790   4.435  14.851  0.00  0.00    +0.000 C 
ATOM     15  N   UNL     1       6.407   4.891  16.259  0.00  0.00    +0.000 N 
ATOM     16  C   UNL     1       7.512   4.568  17.259  0.00  0.00    +0.000 C 
BRANCH  15  17
ATOM     17  N   UNL     1       6.236   6.349  16.211  0.00  0.00    +0.000 NA
ATOM     18  H   UNL     1       7.033   6.870  16.603  0.00  0.00    +0.000 HD
ATOM     19  H   UNL     1       5.415   6.690  16.732  0.00  0.00    +0.000 HD
ENDBRANCH  15  17
ENDBRANCH  13  15
ENDBRANCH   1  13
TORSDOF 4
ENDMDL
MODEL 6
REMARK VINA RESULT:      -6.2      4.821      6.189
REMARK  Name = 
REMARK  6 active torsions:
REMARK  status: ('A' for Active; 'I' for Inactive)
REMARK    1  A    between atoms: C_1  and  N_2
REMARK    2  A    between atoms: N_2  and  C_3
REMARK    3  A    between atoms: N_2  and  N_4
REMARK    4  A    between atoms: N_2  and  C_5
REMARK    5  A    between atoms: C_5  and  C_6
REMARK    6  A    between atoms: C_8  and  C_9
REMARK                            x       y       z     vdW  Elec       q    Type
REMARK                         _______ _______ _______ _____ _____    ______ ____
ROOT
ATOM      1  C   UNL     1       4.286   3.306  19.262  0.00  0.00    +0.000 A 
ATOM      2  N   UNL     1       4.365   3.265  17.953  0.00  0.00    +0.000 NA
ATOM      3  C   UNL     1       5.466   4.057  17.693  0.00  0.00    +0.000 A 
ATOM      4  N   UNL     1       6.050   4.538  18.802  0.00  0.00    +0.000 NA
ATOM      5  O   UNL     1       5.268   4.045  19.841  0.00  0.00    +0.000 OA
ENDROOT
BRANCH   3   6
ATOM      6  C   UNL     1       5.944   4.292  16.336  0.00  0.00    +0.000 A 
ATOM      7  C   UNL     1       5.179   3.881  15.235  0.00  0.00    +0.000 A 
ATOM      8  C   UNL     1       5.645   4.078  13.931  0.00  0.00    +0.000 A 
ATOM      9  C   UNL     1       6.877   4.689  13.723  0.00  0.00    +0.000 A 
ATOM     10 CL   UNL     1       7.458   4.915  12.118  0.00  0.00    +0.000 Cl
ATOM     11  C   UNL     1       7.645   5.115  14.805  0.00  0.00    +0.000 A 
ATOM     12  C   UNL     1       7.179   4.920  16.108  0.00  0.00    +0.000 A 
ENDBRANCH   3   6
BRANCH   1  13
ATOM     13  C   UNL     1       3.316   2.637  20.172  0.00  0.00    +0.000 C 
BRANCH  13  15
ATOM     14  C   UNL     1       1.331   2.842  21.742  0.00  0.00    +0.000 C 
ATOM     15  N   UNL     1       2.053   3.482  20.557  0.00  0.00    +0.000 N 
ATOM     16  C   UNL     1       1.102   3.684  19.381  0.00  0.00    +0.000 C 
BRANCH  15  17
ATOM     17  N   UNL     1       2.532   4.798  20.998  0.00  0.00    +0.000 NA
ATOM     18  H   UNL     1       3.546   4.928  20.878  0.00  0.00    +0.000 HD
ATOM     19  H   UNL     1       2.356   4.993  21.995  0.00  0.00    +0.000 HD
ENDBRANCH  15  17
ENDBRANCH  13  15
ENDBRANCH   1  13
TORSDOF 4
ENDMDL
MODEL 7
REMARK VINA RESULT:      -6.2      2.241      3.259
REMARK  Name = 
REMARK  6 active torsions:
REMARK  status: ('A' for Active; 'I' for Inactive)
REMARK    1  A    between atoms: C_1  and  N_2
REMARK    2  A    between atoms: N_2  and  C_3
REMARK    3  A    between atoms: N_2  and  N_4
REMARK    4  A    between atoms: N_2  and  C_5
REMARK    5  A    between atoms: C_5  and  C_6
REMARK    6  A    between atoms: C_8  and  C_9
REMARK                            x       y       z     vdW  Elec       q    Type
REMARK                         _______ _______ _______ _____ _____    ______ ____
ROOT
ATOM      1  C   UNL     1       4.613   5.054  17.784  0.00  0.00    +0.000 A 
ATOM      2  N   UNL     1       3.873   6.104  17.518  0.00  0.00    +0.000 NA
ATOM      3  C   UNL     1       3.313   6.398  18.746  0.00  0.00    +0.000 A 
ATOM      4  N   UNL     1       3.718   5.573  19.726  0.00  0.00    +0.000 NA
ATOM      5  O   UNL     1       4.575   4.681  19.090  0.00  0.00    +0.000 OA
ENDROOT
BRANCH   3   6
ATOM      6  C   UNL     1       2.407   7.524  18.933  0.00  0.00    +0.000 A 
ATOM      7  C   UNL     1       2.073   8.350  17.850  0.00  0.00    +0.000 A 
ATOM      8  C   UNL     1       1.227   9.449  18.028  0.00  0.00    +0.000 A 
ATOM      9  C   UNL     1       0.709   9.725  19.288  0.00  0.00    +0.000 A 
ATOM     10 CL   UNL     1      -0.319  11.088  19.510  0.00  0.00    +0.000 Cl
ATOM     11  C   UNL     1       1.019   8.907  20.373  0.00  0.00    +0.000 A 
ATOM     12  C   UNL     1       1.863   7.807  20.196  0.00  0.00    +0.000 A 
ENDBRANCH   3   6
BRANCH   1  13
ATOM     13  C   UNL     1       5.493   4.265  16.880  0.00  0.00    +0.000 C 
BRANCH  13  15
ATOM     14  C   UNL     1       6.925   6.352  17.081  0.00  0.00    +0.000 C 
ATOM     15  N   UNL     1       6.857   4.939  16.503  0.00  0.00    +0.000 N 
ATOM     16  C   UNL     1       7.110   4.950  14.998  0.00  0.00    +0.000 C 
BRANCH  15  17
ATOM     17  N   UNL     1       7.919   4.154  17.147  0.00  0.00    +0.000 NA
ATOM     18  H   UNL     1       7.775   3.137  17.081  0.00  0.00    +0.000 HD
ATOM     19  H   UNL     1       8.024   4.343  18.154  0.00  0.00    +0.000 HD
ENDBRANCH  15  17
ENDBRANCH  13  15
ENDBRANCH   1  13
TORSDOF 4
ENDMDL
MODEL 8
REMARK VINA RESULT:      -6.2      2.241      3.046
REMARK  Name = 
REMARK  6 active torsions:
REMARK  status: ('A' for Active; 'I' for Inactive)
REMARK    1  A    between atoms: C_1  and  N_2
REMARK    2  A    between atoms: N_2  and  C_3
REMARK    3  A    between atoms: N_2  and  N_4
REMARK    4  A    between atoms: N_2  and  C_5
REMARK    5  A    between atoms: C_5  and  C_6
REMARK    6  A    between atoms: C_8  and  C_9
REMARK                            x       y       z     vdW  Elec       q    Type
REMARK                         _______ _______ _______ _____ _____    ______ ____
ROOT
ATOM      1  C   UNL     1       4.601   5.059  17.720  0.00  0.00    +0.000 A 
ATOM      2  N   UNL     1       3.864   6.115  17.468  0.00  0.00    +0.000 NA
ATOM      3  C   UNL     1       3.327   6.410  18.706  0.00  0.00    +0.000 A 
ATOM      4  N   UNL     1       3.742   5.581  19.677  0.00  0.00    +0.000 NA
ATOM      5  O   UNL     1       4.582   4.685  19.026  0.00  0.00    +0.000 OA
ENDROOT
BRANCH   3   6
ATOM      6  C   UNL     1       2.431   7.542  18.910  0.00  0.00    +0.000 A 
ATOM      7  C   UNL     1       1.884   7.792  20.176  0.00  0.00    +0.000 A 
ATOM      8  C   UNL     1       1.001   8.859  20.372  0.00  0.00    +0.000 A 
ATOM      9  C   UNL     1       0.665   9.682  19.303  0.00  0.00    +0.000 A 
ATOM     10 CL   UNL     1      -0.435  10.984  19.541  0.00  0.00    +0.000 Cl
ATOM     11  C   UNL     1       1.209   9.456  18.040  0.00  0.00    +0.000 A 
ATOM     12  C   UNL     1       2.093   8.391  17.844  0.00  0.00    +0.000 A 
ENDBRANCH   3   6
BRANCH   1  13
ATOM     13  C   UNL     1       5.461   4.266  16.800  0.00  0.00    +0.000 C 
BRANCH  13  15
ATOM     14  C   UNL     1       6.909   6.345  16.969  0.00  0.00    +0.000 C 
ATOM     15  N   UNL     1       6.836   4.918  16.425  0.00  0.00    +0.000 N 
ATOM     16  C   UNL     1       7.110   4.889  14.925  0.00  0.00    +0.000 C 
BRANCH  15  17
ATOM     17  N   UNL     1       7.881   4.141  17.103  0.00  0.00    +0.000 NA
ATOM     18  H   UNL     1       8.299   4.628  17.908  0.00  0.00    +0.000 HD
ATOM     19  H   UNL     1       8.679   3.897  16.497  0.00  0.00    +0.000 HD
ENDBRANCH  15  17
ENDBRANCH  13  15
ENDBRANCH   1  13
TORSDOF 4
ENDMDL
MODEL 9
REMARK VINA RESULT:      -6.2      4.398      6.109
REMARK  Name = 
REMARK  6 active torsions:
REMARK  status: ('A' for Active; 'I' for Inactive)
REMARK    1  A    between atoms: C_1  and  N_2
REMARK    2  A    between atoms: N_2  and  C_3
REMARK    3  A    between atoms: N_2  and  N_4
REMARK    4  A    between atoms: N_2  and  C_5
REMARK    5  A    between atoms: C_5  and  C_6
REMARK    6  A    between atoms: C_8  and  C_9
REMARK                            x       y       z     vdW  Elec       q    Type
REMARK                         _______ _______ _______ _____ _____    ______ ____
ROOT
ATOM      1  C   UNL     1       4.207   3.272  19.280  0.00  0.00    +0.000 A 
ATOM      2  N   UNL     1       4.300   3.272  17.971  0.00  0.00    +0.000 NA
ATOM      3  C   UNL     1       5.464   3.982  17.752  0.00  0.00    +0.000 A 
ATOM      4  N   UNL     1       6.068   4.376  18.885  0.00  0.00    +0.000 NA
ATOM      5  O   UNL     1       5.236   3.910  19.896  0.00  0.00    +0.000 OA
ENDROOT
BRANCH   3   6
ATOM      6  C   UNL     1       5.978   4.228  16.410  0.00  0.00    +0.000 A 
ATOM      7  C   UNL     1       7.153   4.970  16.228  0.00  0.00    +0.000 A 
ATOM      8  C   UNL     1       7.637   5.234  14.942  0.00  0.00    +0.000 A 
ATOM      9  C   UNL     1       6.948   4.754  13.834  0.00  0.00    +0.000 A 
ATOM     10 CL   UNL     1       7.533   5.094  12.251  0.00  0.00    +0.000 Cl
ATOM     11  C   UNL     1       5.785   4.003  13.997  0.00  0.00    +0.000 A 
ATOM     12  C   UNL     1       5.303   3.737  15.282  0.00  0.00    +0.000 A 
ENDBRANCH   3   6
BRANCH   1  13
ATOM     13  C   UNL     1       3.175   2.649  20.154  0.00  0.00    +0.000 C 
BRANCH  13  15
ATOM     14  C   UNL     1       0.996   2.656  18.849  0.00  0.00    +0.000 C 
ATOM     15  N   UNL     1       1.735   3.259  20.044  0.00  0.00    +0.000 N 
ATOM     16  C   UNL     1       1.747   4.782  19.968  0.00  0.00    +0.000 C 
BRANCH  15  17
ATOM     17  N   UNL     1       1.005   2.860  21.254  0.00  0.00    +0.000 NA
ATOM     18  H   UNL     1       1.581   2.337  21.929  0.00  0.00    +0.000 HD
ATOM     19  H   UNL     1       0.194   2.251  21.070  0.00  0.00    +0.000 HD
ENDBRANCH  15  17
ENDBRANCH  13  15
ENDBRANCH   1  13
TORSDOF 4
ENDMDL
