MODEL 1
REMARK VINA RESULT:      -8.2      0.000      0.000
REMARK  Name = 
REMARK  12 active torsions:
REMARK  status: ('A' for Active; 'I' for Inactive)
REMARK    1  A    between atoms: C_1  and  C_2
REMARK    2  A    between atoms: C_2  and  C_3
REMARK    3  A    between atoms: C_2  and  N_4
REMARK    4  A    between atoms: N_7  and  C_8
REMARK    5  A    between atoms: C_11  and  O_12
REMARK    6  A    between atoms: O_12  and  C_13
REMARK    7  A    between atoms: C_16  and  O_17
REMARK    8  A    between atoms: O_17  and  C_18
REMARK    9  A    between atoms: C_21  and  N_22
REMARK   10  A    between atoms: N_25  and  C_26
REMARK   11  A    between atoms: C_26  and  C_27
REMARK   12  A    between atoms: C_26  and  C_28
REMARK                            x       y       z     vdW  Elec       q    Type
REMARK                         _______ _______ _______ _____ _____    ______ ____
ROOT
ATOM      1  C   UNL     1       3.438   5.175  19.745  0.00  0.00    +0.000 A 
ATOM      2  C   UNL     1       2.423   4.769  20.615  0.00  0.00    +0.000 A 
ATOM      3  C   UNL     1       1.447   5.683  21.031  0.00  0.00    +0.000 A 
ATOM      4  C   UNL     1       1.485   7.003  20.571  0.00  0.00    +0.000 A 
ATOM      5  C   UNL     1       2.463   7.388  19.653  0.00  0.00    +0.000 A 
ATOM      6  C   UNL     1       3.473   6.500  19.300  0.00  0.00    +0.000 A 
ENDROOT
BRANCH   1   7
ATOM      7  O   UNL     1       4.373   4.218  19.404  0.00  0.00    +0.000 OA
BRANCH   7  11
ATOM      8  C   UNL     1       6.566   4.828  15.875  0.00  0.00    +0.000 A 
ATOM      9  C   UNL     1       7.145   4.983  17.145  0.00  0.00    +0.000 A 
ATOM     10  C   UNL     1       6.406   4.753  18.313  0.00  0.00    +0.000 A 
ATOM     11  C   UNL     1       5.071   4.369  18.226  0.00  0.00    +0.000 A 
ATOM     12  C   UNL     1       4.503   4.136  16.974  0.00  0.00    +0.000 A 
ATOM     13  C   UNL     1       5.233   4.403  15.815  0.00  0.00    +0.000 A 
BRANCH   8  17
ATOM     14  N   UNL     1       6.159   3.875  13.110  0.00  0.00    +0.000 NA
ATOM     15  C   UNL     1       7.099   4.677  13.447  0.00  0.00    +0.000 C 
ATOM     16  N   UNL     1       8.033   5.212  12.611  0.00  0.00    +0.000 N 
ATOM     17  N   UNL     1       7.325   5.120  14.724  0.00  0.00    +0.000 N 
ATOM     18  H   UNL     1       7.795   5.121  11.631  0.00  0.00    +0.000 HD
ATOM     19  H   UNL     1       8.257   6.176  12.826  0.00  0.00    +0.000 HD
ATOM     20  H   UNL     1       8.286   5.362  14.917  0.00  0.00    +0.000 HD
BRANCH  14  22
ATOM     21  C   UNL     1       6.618   1.996  11.695  0.00  0.00    +0.000 C 
ATOM     22  C   UNL     1       5.968   3.374  11.758  0.00  0.00    +0.000 C 
ATOM     23  C   UNL     1       4.473   3.270  11.470  0.00  0.00    +0.000 C 
ENDBRANCH  14  22
ENDBRANCH   8  17
ENDBRANCH   7  11
ENDBRANCH   1   7
BRANCH   4  24
ATOM     24  O   UNL     1       0.515   7.856  21.038  0.00  0.00    +0.000 OA
BRANCH  24  25
ATOM     25  C   UNL     1       0.473   9.156  20.573  0.00  0.00    +0.000 A 
ATOM     26  C   UNL     1       0.601  10.146  21.541  0.00  0.00    +0.000 A 
ATOM     27  C   UNL     1       0.614  11.491  21.168  0.00  0.00    +0.000 A 
ATOM     28  C   UNL     1       0.510  11.880  19.824  0.00  0.00    +0.000 A 
ATOM     29  C   UNL     1       0.354  10.874  18.864  0.00  0.00    +0.000 A 
ATOM     30  C   UNL     1       0.369   9.524  19.228  0.00  0.00    +0.000 A 
BRANCH  28  31
ATOM     31  N   UNL     1       0.693  13.207  19.397  0.00  0.00    +0.000 N 
ATOM     32  C   UNL     1      -0.185  14.250  19.320  0.00  0.00    +0.000 C 
ATOM     33  N   UNL     1      -1.440  14.002  19.790  0.00  0.00    +0.000 N 
ATOM     34  N   UNL     1       0.250  15.379  18.876  0.00  0.00    +0.000 NA
ATOM     35  H   UNL     1       1.649  13.481  19.217  0.00  0.00    +0.000 HD
ATOM     36  H   UNL     1      -1.457  13.344  20.560  0.00  0.00    +0.000 HD
ATOM     37  H   UNL     1      -1.996  14.816  20.002  0.00  0.00    +0.000 HD
BRANCH  34  38
ATOM     38  C   UNL     1      -0.646  16.538  18.823  0.00  0.00    +0.000 C 
ATOM     39  C   UNL     1      -0.392  17.418  20.045  0.00  0.00    +0.000 C 
ATOM     40  C   UNL     1      -0.366  17.308  17.538  0.00  0.00    +0.000 C 
ENDBRANCH  34  38
ENDBRANCH  28  31
ENDBRANCH  24  25
ENDBRANCH   4  24
TORSDOF 8
ENDMDL
MODEL 2
REMARK VINA RESULT:      -8.1      3.426     11.528
REMARK  Name = 
REMARK  12 active torsions:
REMARK  status: ('A' for Active; 'I' for Inactive)
REMARK    1  A    between atoms: C_1  and  C_2
REMARK    2  A    between atoms: C_2  and  C_3
REMARK    3  A    between atoms: C_2  and  N_4
REMARK    4  A    between atoms: N_7  and  C_8
REMARK    5  A    between atoms: C_11  and  O_12
REMARK    6  A    between atoms: O_12  and  C_13
REMARK    7  A    between atoms: C_16  and  O_17
REMARK    8  A    between atoms: O_17  and  C_18
REMARK    9  A    between atoms: C_21  and  N_22
REMARK   10  A    between atoms: N_25  and  C_26
REMARK   11  A    between atoms: C_26  and  C_27
REMARK   12  A    between atoms: C_26  and  C_28
REMARK                            x       y       z     vdW  Elec       q    Type
REMARK                         _______ _______ _______ _____ _____    ______ ____
ROOT
ATOM      1  C   UNL     1       1.154   9.748  19.627  0.00  0.00    +0.000 A 
ATOM      2  C   UNL     1       1.035   9.100  20.859  0.00  0.00    +0.000 A 
ATOM      3  C   UNL     1       1.511   7.792  21.013  0.00  0.00    +0.000 A 
ATOM      4  C   UNL     1       2.110   7.135  19.934  0.00  0.00    +0.000 A 
ATOM      5  C   UNL     1       2.285   7.808  18.725  0.00  0.00    +0.000 A 
ATOM      6  C   UNL     1       1.746   9.079  18.551  0.00  0.00    +0.000 A 
ENDROOT
BRANCH   1   7
ATOM      7  O   UNL     1       0.639  11.027  19.553  0.00  0.00    +0.000 OA
BRANCH   7  11
ATOM      8  C   UNL     1      -3.262  11.526  18.083  0.00  0.00    +0.000 A 
ATOM      9  C   UNL     1      -2.380  10.577  17.540  0.00  0.00    +0.000 A 
ATOM     10  C   UNL     1      -1.089  10.407  18.058  0.00  0.00    +0.000 A 
ATOM     11  C   UNL     1      -0.660  11.191  19.125  0.00  0.00    +0.000 A 
ATOM     12  C   UNL     1      -1.549  12.082  19.724  0.00  0.00    +0.000 A 
ATOM     13  C   UNL     1      -2.820  12.273  19.181  0.00  0.00    +0.000 A 
BRANCH   8  17
ATOM     14  N   UNL     1      -5.920  11.147  19.312  0.00  0.00    +0.000 NA
ATOM     15  C   UNL     1      -5.753  11.541  18.105  0.00  0.00    +0.000 C 
ATOM     16  N   UNL     1      -6.742  11.847  17.218  0.00  0.00    +0.000 N 
ATOM     17  N   UNL     1      -4.533  11.706  17.501  0.00  0.00    +0.000 N 
ATOM     18  H   UNL     1      -7.647  11.973  17.653  0.00  0.00    +0.000 HD
ATOM     19  H   UNL     1      -6.522  12.644  16.633  0.00  0.00    +0.000 HD
ATOM     20  H   UNL     1      -4.546  11.589  16.499  0.00  0.00    +0.000 HD
BRANCH  14  22
ATOM     21  C   UNL     1      -7.360   9.425  20.153  0.00  0.00    +0.000 C 
ATOM     22  C   UNL     1      -7.224  10.926  19.917  0.00  0.00    +0.000 C 
ATOM     23  C   UNL     1      -7.294  11.680  21.242  0.00  0.00    +0.000 C 
ENDBRANCH  14  22
ENDBRANCH   8  17
ENDBRANCH   7  11
ENDBRANCH   1   7
BRANCH   4  24
ATOM     24  O   UNL     1       2.531   5.845  20.144  0.00  0.00    +0.000 OA
BRANCH  24  25
ATOM     25  C   UNL     1       3.339   5.234  19.205  0.00  0.00    +0.000 A 
ATOM     26  C   UNL     1       2.696   4.364  18.330  0.00  0.00    +0.000 A 
ATOM     27  C   UNL     1       3.417   3.729  17.319  0.00  0.00    +0.000 A 
ATOM     28  C   UNL     1       4.791   3.952  17.147  0.00  0.00    +0.000 A 
ATOM     29  C   UNL     1       5.431   4.808  18.051  0.00  0.00    +0.000 A 
ATOM     30  C   UNL     1       4.708   5.469  19.049  0.00  0.00    +0.000 A 
BRANCH  28  31
ATOM     31  N   UNL     1       5.511   3.469  16.041  0.00  0.00    +0.000 N 
ATOM     32  C   UNL     1       5.550   3.897  14.744  0.00  0.00    +0.000 C 
ATOM     33  N   UNL     1       4.825   5.018  14.470  0.00  0.00    +0.000 N 
ATOM     34  N   UNL     1       6.303   3.258  13.916  0.00  0.00    +0.000 NA
ATOM     35  H   UNL     1       6.200   2.758  16.243  0.00  0.00    +0.000 HD
ATOM     36  H   UNL     1       4.780   5.666  15.247  0.00  0.00    +0.000 HD
ATOM     37  H   UNL     1       5.068   5.497  13.617  0.00  0.00    +0.000 HD
BRANCH  34  38
ATOM     38  C   UNL     1       6.412   3.713  12.527  0.00  0.00    +0.000 C 
ATOM     39  C   UNL     1       7.341   2.768  11.767  0.00  0.00    +0.000 C 
ATOM     40  C   UNL     1       5.020   3.713  11.906  0.00  0.00    +0.000 C 
ENDBRANCH  34  38
ENDBRANCH  28  31
ENDBRANCH  24  25
ENDBRANCH   4  24
TORSDOF 8
ENDMDL
MODEL 3
REMARK VINA RESULT:      -8.1      5.395      9.739
REMARK  Name = 
REMARK  12 active torsions:
REMARK  status: ('A' for Active; 'I' for Inactive)
REMARK    1  A    between atoms: C_1  and  C_2
REMARK    2  A    between atoms: C_2  and  C_3
REMARK    3  A    between atoms: C_2  and  N_4
REMARK    4  A    between atoms: N_7  and  C_8
REMARK    5  A    between atoms: C_11  and  O_12
REMARK    6  A    between atoms: O_12  and  C_13
REMARK    7  A    between atoms: C_16  and  O_17
REMARK    8  A    between atoms: O_17  and  C_18
REMARK    9  A    between atoms: C_21  and  N_22
REMARK   10  A    between atoms: N_25  and  C_26
REMARK   11  A    between atoms: C_26  and  C_27
REMARK   12  A    between atoms: C_26  and  C_28
REMARK                            x       y       z     vdW  Elec       q    Type
REMARK                         _______ _______ _______ _____ _____    ______ ____
ROOT
ATOM      1  C   UNL     1       2.535  14.695  19.651  0.00  0.00    +0.000 A 
ATOM      2  C   UNL     1       2.636  13.718  20.644  0.00  0.00    +0.000 A 
ATOM      3  C   UNL     1       1.767  12.620  20.640  0.00  0.00    +0.000 A 
ATOM      4  C   UNL     1       0.800  12.497  19.638  0.00  0.00    +0.000 A 
ATOM      5  C   UNL     1       0.745  13.441  18.611  0.00  0.00    +0.000 A 
ATOM      6  C   UNL     1       1.558  14.568  18.658  0.00  0.00    +0.000 A 
ENDROOT
BRANCH   1   7
ATOM      7  O   UNL     1       3.413  15.757  19.741  0.00  0.00    +0.000 OA
BRANCH   7  11
ATOM      8  C   UNL     1       7.264  15.122  18.193  0.00  0.00    +0.000 A 
ATOM      9  C   UNL     1       6.123  14.558  17.599  0.00  0.00    +0.000 A 
ATOM     10  C   UNL     1       4.842  14.799  18.114  0.00  0.00    +0.000 A 
ATOM     11  C   UNL     1       4.686  15.604  19.239  0.00  0.00    +0.000 A 
ATOM     12  C   UNL     1       5.800  16.233  19.793  0.00  0.00    +0.000 A 
ATOM     13  C   UNL     1       7.076  15.960  19.299  0.00  0.00    +0.000 A 
BRANCH   8  17
ATOM     14  N   UNL     1       8.939  12.750  18.728  0.00  0.00    +0.000 NA
ATOM     15  C   UNL     1       9.286  13.691  17.932  0.00  0.00    +0.000 C 
ATOM     16  N   UNL     1      10.446  13.749  17.218  0.00  0.00    +0.000 N 
ATOM     17  N   UNL     1       8.540  14.813  17.680  0.00  0.00    +0.000 N 
ATOM     18  H   UNL     1      10.933  12.864  17.171  0.00  0.00    +0.000 HD
ATOM     19  H   UNL     1      10.323  14.130  16.287  0.00  0.00    +0.000 HD
ATOM     20  H   UNL     1       9.082  15.622  17.413  0.00  0.00    +0.000 HD
BRANCH  14  22
ATOM     21  C   UNL     1       9.888  11.502  20.541  0.00  0.00    +0.000 C 
ATOM     22  C   UNL     1       9.769  11.593  19.023  0.00  0.00    +0.000 C 
ATOM     23  C   UNL     1       9.097  10.340  18.467  0.00  0.00    +0.000 C 
ENDBRANCH  14  22
ENDBRANCH   8  17
ENDBRANCH   7  11
ENDBRANCH   1   7
BRANCH   4  24
ATOM     24  O   UNL     1      -0.037  11.411  19.707  0.00  0.00    +0.000 OA
BRANCH  24  25
ATOM     25  C   UNL     1       0.499  10.152  19.892  0.00  0.00    +0.000 A 
ATOM     26  C   UNL     1       1.286   9.673  18.849  0.00  0.00    +0.000 A 
ATOM     27  C   UNL     1       1.907   8.428  18.957  0.00  0.00    +0.000 A 
ATOM     28  C   UNL     1       1.768   7.636  20.107  0.00  0.00    +0.000 A 
ATOM     29  C   UNL     1       0.952   8.118  21.136  0.00  0.00    +0.000 A 
ATOM     30  C   UNL     1       0.350   9.377  21.046  0.00  0.00    +0.000 A 
BRANCH  28  31
ATOM     31  N   UNL     1       2.514   6.464  20.321  0.00  0.00    +0.000 N 
ATOM     32  C   UNL     1       2.450   5.240  19.718  0.00  0.00    +0.000 C 
ATOM     33  N   UNL     1       1.563   5.136  18.688  0.00  0.00    +0.000 N 
ATOM     34  N   UNL     1       3.259   4.322  20.119  0.00  0.00    +0.000 NA
ATOM     35  H   UNL     1       3.304   6.556  20.945  0.00  0.00    +0.000 HD
ATOM     36  H   UNL     1       1.451   5.997  18.167  0.00  0.00    +0.000 HD
ATOM     37  H   UNL     1       1.707   4.356  18.066  0.00  0.00    +0.000 HD
BRANCH  34  38
ATOM     38  C   UNL     1       3.257   3.010  19.466  0.00  0.00    +0.000 C 
ATOM     39  C   UNL     1       4.508   2.243  19.891  0.00  0.00    +0.000 C 
ATOM     40  C   UNL     1       1.998   2.260  19.886  0.00  0.00    +0.000 C 
ENDBRANCH  34  38
ENDBRANCH  28  31
ENDBRANCH  24  25
ENDBRANCH   4  24
TORSDOF 8
ENDMDL
MODEL 4
REMARK VINA RESULT:      -8.1      3.079     12.058
REMARK  Name = 
REMARK  12 active torsions:
REMARK  status: ('A' for Active; 'I' for Inactive)
REMARK    1  A    between atoms: C_1  and  C_2
REMARK    2  A    between atoms: C_2  and  C_3
REMARK    3  A    between atoms: C_2  and  N_4
REMARK    4  A    between atoms: N_7  and  C_8
REMARK    5  A    between atoms: C_11  and  O_12
REMARK    6  A    between atoms: O_12  and  C_13
REMARK    7  A    between atoms: C_16  and  O_17
REMARK    8  A    between atoms: O_17  and  C_18
REMARK    9  A    between atoms: C_21  and  N_22
REMARK   10  A    between atoms: N_25  and  C_26
REMARK   11  A    between atoms: C_26  and  C_27
REMARK   12  A    between atoms: C_26  and  C_28
REMARK                            x       y       z     vdW  Elec       q    Type
REMARK                         _______ _______ _______ _____ _____    ______ ____
ROOT
ATOM      1  C   UNL     1       1.032   9.864  19.283  0.00  0.00    +0.000 A 
ATOM      2  C   UNL     1       1.704   9.102  18.325  0.00  0.00    +0.000 A 
ATOM      3  C   UNL     1       2.222   7.846  18.664  0.00  0.00    +0.000 A 
ATOM      4  C   UNL     1       2.062   7.351  19.962  0.00  0.00    +0.000 A 
ATOM      5  C   UNL     1       1.334   8.087  20.898  0.00  0.00    +0.000 A 
ATOM      6  C   UNL     1       0.886   9.365  20.582  0.00  0.00    +0.000 A 
ENDROOT
BRANCH   1   7
ATOM      7  O   UNL     1       0.574  11.101  18.874  0.00  0.00    +0.000 OA
BRANCH   7  11
ATOM      8  C   UNL     1      -3.381  12.247  19.693  0.00  0.00    +0.000 A 
ATOM      9  C   UNL     1      -3.067  11.351  18.657  0.00  0.00    +0.000 A 
ATOM     10  C   UNL     1      -1.744  10.961  18.412  0.00  0.00    +0.000 A 
ATOM     11  C   UNL     1      -0.713  11.468  19.198  0.00  0.00    +0.000 A 
ATOM     12  C   UNL     1      -1.017  12.296  20.278  0.00  0.00    +0.000 A 
ATOM     13  C   UNL     1      -2.332  12.711  20.494  0.00  0.00    +0.000 A 
BRANCH   8  17
ATOM     14  N   UNL     1      -4.811  12.798  22.217  0.00  0.00    +0.000 NA
ATOM     15  C   UNL     1      -5.348  12.926  21.062  0.00  0.00    +0.000 C 
ATOM     16  N   UNL     1      -6.626  13.331  20.813  0.00  0.00    +0.000 N 
ATOM     17  N   UNL     1      -4.717  12.658  19.874  0.00  0.00    +0.000 N 
ATOM     18  H   UNL     1      -7.073  13.764  21.612  0.00  0.00    +0.000 HD
ATOM     19  H   UNL     1      -6.704  13.932  20.001  0.00  0.00    +0.000 HD
ATOM     20  H   UNL     1      -5.337  12.383  19.127  0.00  0.00    +0.000 HD
BRANCH  14  22
ATOM     21  C   UNL     1      -4.729  12.326  24.566  0.00  0.00    +0.000 C 
ATOM     22  C   UNL     1      -5.514  13.035  23.467  0.00  0.00    +0.000 C 
ATOM     23  C   UNL     1      -5.564  14.537  23.735  0.00  0.00    +0.000 C 
ENDBRANCH  14  22
ENDBRANCH   8  17
ENDBRANCH   7  11
ENDBRANCH   1   7
BRANCH   4  24
ATOM     24  O   UNL     1       2.616   6.125  20.236  0.00  0.00    +0.000 OA
BRANCH  24  25
ATOM     25  C   UNL     1       3.399   5.506  19.281  0.00  0.00    +0.000 A 
ATOM     26  C   UNL     1       2.709   4.796  18.304  0.00  0.00    +0.000 A 
ATOM     27  C   UNL     1       3.406   4.169  17.271  0.00  0.00    +0.000 A 
ATOM     28  C   UNL     1       4.804   4.242  17.180  0.00  0.00    +0.000 A 
ATOM     29  C   UNL     1       5.487   4.937  18.185  0.00  0.00    +0.000 A 
ATOM     30  C   UNL     1       4.792   5.591  19.207  0.00  0.00    +0.000 A 
BRANCH  28  31
ATOM     31  N   UNL     1       5.523   3.775  16.067  0.00  0.00    +0.000 N 
ATOM     32  C   UNL     1       5.790   4.363  14.863  0.00  0.00    +0.000 C 
ATOM     33  N   UNL     1       5.348   5.645  14.722  0.00  0.00    +0.000 N 
ATOM     34  N   UNL     1       6.478   3.698  14.001  0.00  0.00    +0.000 NA
ATOM     35  H   UNL     1       6.023   2.907  16.201  0.00  0.00    +0.000 HD
ATOM     36  H   UNL     1       5.356   6.169  15.588  0.00  0.00    +0.000 HD
ATOM     37  H   UNL     1       5.776   6.174  13.978  0.00  0.00    +0.000 HD
BRANCH  34  38
ATOM     38  C   UNL     1       6.829   4.310  12.716  0.00  0.00    +0.000 C 
ATOM     39  C   UNL     1       8.087   5.156  12.898  0.00  0.00    +0.000 C 
ATOM     40  C   UNL     1       7.069   3.201  11.699  0.00  0.00    +0.000 C 
ENDBRANCH  34  38
ENDBRANCH  28  31
ENDBRANCH  24  25
ENDBRANCH   4  24
TORSDOF 8
ENDMDL
MODEL 5
REMARK VINA RESULT:      -8.0      3.389     10.330
REMARK  Name = 
REMARK  12 active torsions:
REMARK  status: ('A' for Active; 'I' for Inactive)
REMARK    1  A    between atoms: C_1  and  C_2
REMARK    2  A    between atoms: C_2  and  C_3
REMARK    3  A    between atoms: C_2  and  N_4
REMARK    4  A    between atoms: N_7  and  C_8
REMARK    5  A    between atoms: C_11  and  O_12
REMARK    6  A    between atoms: O_12  and  C_13
REMARK    7  A    between atoms: C_16  and  O_17
REMARK    8  A    between atoms: O_17  and  C_18
REMARK    9  A    between atoms: C_21  and  N_22
REMARK   10  A    between atoms: N_25  and  C_26
REMARK   11  A    between atoms: C_26  and  C_27
REMARK   12  A    between atoms: C_26  and  C_28
REMARK                            x       y       z     vdW  Elec       q    Type
REMARK                         _______ _______ _______ _____ _____    ______ ____
ROOT
ATOM      1  C   UNL     1       0.918  10.191  19.786  0.00  0.00    +0.000 A 
ATOM      2  C   UNL     1       0.811   9.547  21.020  0.00  0.00    +0.000 A 
ATOM      3  C   UNL     1       1.256   8.227  21.164  0.00  0.00    +0.000 A 
ATOM      4  C   UNL     1       1.813   7.554  20.072  0.00  0.00    +0.000 A 
ATOM      5  C   UNL     1       1.976   8.222  18.859  0.00  0.00    +0.000 A 
ATOM      6  C   UNL     1       1.466   9.506  18.697  0.00  0.00    +0.000 A 
ENDROOT
BRANCH   1   7
ATOM      7  O   UNL     1       0.434  11.483  19.723  0.00  0.00    +0.000 OA
BRANCH   7  11
ATOM      8  C   UNL     1       3.093  14.699  19.260  0.00  0.00    +0.000 A 
ATOM      9  C   UNL     1       2.908  14.061  20.498  0.00  0.00    +0.000 A 
ATOM     10  C   UNL     1       2.035  12.974  20.631  0.00  0.00    +0.000 A 
ATOM     11  C   UNL     1       1.326  12.513  19.524  0.00  0.00    +0.000 A 
ATOM     12  C   UNL     1       1.557  13.085  18.274  0.00  0.00    +0.000 A 
ATOM     13  C   UNL     1       2.400  14.191  18.156  0.00  0.00    +0.000 A 
BRANCH   8  17
ATOM     14  N   UNL     1       5.951  14.803  18.526  0.00  0.00    +0.000 NA
ATOM     15  C   UNL     1       5.261  15.842  18.814  0.00  0.00    +0.000 C 
ATOM     16  N   UNL     1       5.714  17.127  18.822  0.00  0.00    +0.000 N 
ATOM     17  N   UNL     1       3.939  15.823  19.178  0.00  0.00    +0.000 N 
ATOM     18  H   UNL     1       6.599  17.244  18.346  0.00  0.00    +0.000 HD
ATOM     19  H   UNL     1       5.037  17.792  18.468  0.00  0.00    +0.000 HD
ATOM     20  H   UNL     1       3.660  16.591  19.770  0.00  0.00    +0.000 HD
BRANCH  14  22
ATOM     21  C   UNL     1       8.130  15.012  19.503  0.00  0.00    +0.000 C 
ATOM     22  C   UNL     1       7.366  14.838  18.194  0.00  0.00    +0.000 C 
ATOM     23  C   UNL     1       7.756  13.524  17.523  0.00  0.00    +0.000 C 
ENDBRANCH  14  22
ENDBRANCH   8  17
ENDBRANCH   7  11
ENDBRANCH   1   7
BRANCH   4  24
ATOM     24  O   UNL     1       2.204   6.253  20.273  0.00  0.00    +0.000 OA
BRANCH  24  25
ATOM     25  C   UNL     1       3.020   5.640  19.343  0.00  0.00    +0.000 A 
ATOM     26  C   UNL     1       2.367   4.905  18.359  0.00  0.00    +0.000 A 
ATOM     27  C   UNL     1       3.100   4.281  17.349  0.00  0.00    +0.000 A 
ATOM     28  C   UNL     1       4.498   4.382  17.288  0.00  0.00    +0.000 A 
ATOM     29  C   UNL     1       5.144   5.102  18.299  0.00  0.00    +0.000 A 
ATOM     30  C   UNL     1       4.413   5.752  19.299  0.00  0.00    +0.000 A 
BRANCH  28  31
ATOM     31  N   UNL     1       5.250   3.917  16.196  0.00  0.00    +0.000 N 
ATOM     32  C   UNL     1       5.625   4.538  15.039  0.00  0.00    +0.000 C 
ATOM     33  N   UNL     1       5.274   5.851  14.933  0.00  0.00    +0.000 N 
ATOM     34  N   UNL     1       6.319   3.867  14.186  0.00  0.00    +0.000 NA
ATOM     35  H   UNL     1       5.686   3.013  16.318  0.00  0.00    +0.000 HD
ATOM     36  H   UNL     1       5.262   6.336  15.822  0.00  0.00    +0.000 HD
ATOM     37  H   UNL     1       5.777   6.383  14.240  0.00  0.00    +0.000 HD
BRANCH  34  38
ATOM     38  C   UNL     1       6.784   4.511  12.954  0.00  0.00    +0.000 C 
ATOM     39  C   UNL     1       8.144   5.155  13.212  0.00  0.00    +0.000 C 
ATOM     40  C   UNL     1       6.890   3.450  11.864  0.00  0.00    +0.000 C 
ENDBRANCH  34  38
ENDBRANCH  28  31
ENDBRANCH  24  25
ENDBRANCH   4  24
TORSDOF 8
ENDMDL
MODEL 6
REMARK VINA RESULT:      -8.0      5.526      8.106
REMARK  Name = 
REMARK  12 active torsions:
REMARK  status: ('A' for Active; 'I' for Inactive)
REMARK    1  A    between atoms: C_1  and  C_2
REMARK    2  A    between atoms: C_2  and  C_3
REMARK    3  A    between atoms: C_2  and  N_4
REMARK    4  A    between atoms: N_7  and  C_8
REMARK    5  A    between atoms: C_11  and  O_12
REMARK    6  A    between atoms: O_12  and  C_13
REMARK    7  A    between atoms: C_16  and  O_17
REMARK    8  A    between atoms: O_17  and  C_18
REMARK    9  A    between atoms: C_21  and  N_22
REMARK   10  A    between atoms: N_25  and  C_26
REMARK   11  A    between atoms: C_26  and  C_27
REMARK   12  A    between atoms: C_26  and  C_28
REMARK                            x       y       z     vdW  Elec       q    Type
REMARK                         _______ _______ _______ _____ _____    ______ ____
ROOT
ATOM      1  C   UNL     1       0.202  11.750  19.222  0.00  0.00    +0.000 A 
ATOM      2  C   UNL     1       1.407  12.055  19.858  0.00  0.00    +0.000 A 
ATOM      3  C   UNL     1       1.930  13.352  19.786  0.00  0.00    +0.000 A 
ATOM      4  C   UNL     1       1.243  14.345  19.082  0.00  0.00    +0.000 A 
ATOM      5  C   UNL     1       0.008  14.052  18.502  0.00  0.00    +0.000 A 
ATOM      6  C   UNL     1      -0.473  12.747  18.510  0.00  0.00    +0.000 A 
ENDROOT
BRANCH   1   7
ATOM      7  O   UNL     1      -0.232  10.442  19.322  0.00  0.00    +0.000 OA
BRANCH   7  11
ATOM      8  C   UNL     1       2.542   7.303  19.042  0.00  0.00    +0.000 A 
ATOM      9  C   UNL     1       2.190   8.083  17.929  0.00  0.00    +0.000 A 
ATOM     10  C   UNL     1       1.280   9.143  18.044  0.00  0.00    +0.000 A 
ATOM     11  C   UNL     1       0.703   9.432  19.277  0.00  0.00    +0.000 A 
ATOM     12  C   UNL     1       1.101   8.717  20.406  0.00  0.00    +0.000 A 
ATOM     13  C   UNL     1       1.978   7.639  20.278  0.00  0.00    +0.000 A 
BRANCH   8  17
ATOM     14  N   UNL     1       2.015   4.433  19.497  0.00  0.00    +0.000 NA
ATOM     15  C   UNL     1       3.138   4.885  19.078  0.00  0.00    +0.000 C 
ATOM     16  N   UNL     1       4.238   4.139  18.776  0.00  0.00    +0.000 N 
ATOM     17  N   UNL     1       3.418   6.211  18.877  0.00  0.00    +0.000 N 
ATOM     18  H   UNL     1       4.040   3.152  18.676  0.00  0.00    +0.000 HD
ATOM     19  H   UNL     1       4.740   4.478  17.964  0.00  0.00    +0.000 HD
ATOM     20  H   UNL     1       4.394   6.450  18.976  0.00  0.00    +0.000 HD
BRANCH  14  22
ATOM     21  C   UNL     1       1.282   2.915  21.202  0.00  0.00    +0.000 C 
ATOM     22  C   UNL     1       1.755   3.026  19.756  0.00  0.00    +0.000 C 
ATOM     23  C   UNL     1       0.668   2.536  18.803  0.00  0.00    +0.000 C 
ENDBRANCH  14  22
ENDBRANCH   8  17
ENDBRANCH   7  11
ENDBRANCH   1   7
BRANCH   4  24
ATOM     24  O   UNL     1       1.823  15.588  19.027  0.00  0.00    +0.000 OA
BRANCH  24  25
ATOM     25  C   UNL     1       3.199  15.693  18.972  0.00  0.00    +0.000 A 
ATOM     26  C   UNL     1       3.801  15.138  17.847  0.00  0.00    +0.000 A 
ATOM     27  C   UNL     1       5.183  15.228  17.678  0.00  0.00    +0.000 A 
ATOM     28  C   UNL     1       5.996  15.881  18.616  0.00  0.00    +0.000 A 
ATOM     29  C   UNL     1       5.380  16.411  19.756  0.00  0.00    +0.000 A 
ATOM     30  C   UNL     1       3.993  16.348  19.918  0.00  0.00    +0.000 A 
BRANCH  28  31
ATOM     31  N   UNL     1       7.359  16.142  18.395  0.00  0.00    +0.000 N 
ATOM     32  C   UNL     1       8.466  15.375  18.624  0.00  0.00    +0.000 C 
ATOM     33  N   UNL     1       8.225  14.115  19.086  0.00  0.00    +0.000 N 
ATOM     34  N   UNL     1       9.619  15.869  18.332  0.00  0.00    +0.000 NA
ATOM     35  H   UNL     1       7.565  16.989  17.882  0.00  0.00    +0.000 HD
ATOM     36  H   UNL     1       7.360  13.719  18.738  0.00  0.00    +0.000 HD
ATOM     37  H   UNL     1       8.985  13.461  18.987  0.00  0.00    +0.000 HD
BRANCH  34  38
ATOM     38  C   UNL     1      10.828  15.061  18.516  0.00  0.00    +0.000 C 
ATOM     39  C   UNL     1      11.510  14.874  17.163  0.00  0.00    +0.000 C 
ATOM     40  C   UNL     1      11.752  15.786  19.488  0.00  0.00    +0.000 C 
ENDBRANCH  34  38
ENDBRANCH  28  31
ENDBRANCH  24  25
ENDBRANCH   4  24
TORSDOF 8
ENDMDL
MODEL 7
REMARK VINA RESULT:      -7.9      1.133      1.639
REMARK  Name = 
REMARK  12 active torsions:
REMARK  status: ('A' for Active; 'I' for Inactive)
REMARK    1  A    between atoms: C_1  and  C_2
REMARK    2  A    between atoms: C_2  and  C_3
REMARK    3  A    between atoms: C_2  and  N_4
REMARK    4  A    between atoms: N_7  and  C_8
REMARK    5  A    between atoms: C_11  and  O_12
REMARK    6  A    between atoms: O_12  and  C_13
REMARK    7  A    between atoms: C_16  and  O_17
REMARK    8  A    between atoms: O_17  and  C_18
REMARK    9  A    between atoms: C_21  and  N_22
REMARK   10  A    between atoms: N_25  and  C_26
REMARK   11  A    between atoms: C_26  and  C_27
REMARK   12  A    between atoms: C_26  and  C_28
REMARK                            x       y       z     vdW  Elec       q    Type
REMARK                         _______ _______ _______ _____ _____    ______ ____
ROOT
ATOM      1  C   UNL     1       3.418   5.109  19.511  0.00  0.00    +0.000 A 
ATOM      2  C   UNL     1       2.458   4.714  20.444  0.00  0.00    +0.000 A 
ATOM      3  C   UNL     1       1.552   5.649  20.959  0.00  0.00    +0.000 A 
ATOM      4  C   UNL     1       1.605   6.980  20.537  0.00  0.00    +0.000 A 
ATOM      5  C   UNL     1       2.525   7.358  19.557  0.00  0.00    +0.000 A 
ATOM      6  C   UNL     1       3.471   6.446  19.102  0.00  0.00    +0.000 A 
ENDROOT
BRANCH   1   7
ATOM      7  O   UNL     1       4.288   4.131  19.071  0.00  0.00    +0.000 OA
BRANCH   7  11
ATOM      8  C   UNL     1       6.554   4.764  15.594  0.00  0.00    +0.000 A 
ATOM      9  C   UNL     1       5.175   4.505  15.543  0.00  0.00    +0.000 A 
ATOM     10  C   UNL     1       4.428   4.320  16.715  0.00  0.00    +0.000 A 
ATOM     11  C   UNL     1       5.055   4.384  17.956  0.00  0.00    +0.000 A 
ATOM     12  C   UNL     1       6.408   4.717  18.026  0.00  0.00    +0.000 A 
ATOM     13  C   UNL     1       7.153   4.863  16.855  0.00  0.00    +0.000 A 
BRANCH   8  17
ATOM     14  N   UNL     1       5.881   3.724  12.914  0.00  0.00    +0.000 NA
ATOM     15  C   UNL     1       6.933   4.412  13.157  0.00  0.00    +0.000 C 
ATOM     16  N   UNL     1       7.882   4.773  12.248  0.00  0.00    +0.000 N 
ATOM     17  N   UNL     1       7.282   4.891  14.393  0.00  0.00    +0.000 N 
ATOM     18  H   UNL     1       7.582   4.660  11.288  0.00  0.00    +0.000 HD
ATOM     19  H   UNL     1       8.240   5.710  12.393  0.00  0.00    +0.000 HD
ATOM     20  H   UNL     1       8.275   5.014  14.526  0.00  0.00    +0.000 HD
BRANCH  14  22
ATOM     21  C   UNL     1       6.017   1.725  11.597  0.00  0.00    +0.000 C 
ATOM     22  C   UNL     1       5.555   3.179  11.606  0.00  0.00    +0.000 C 
ATOM     23  C   UNL     1       4.046   3.258  11.393  0.00  0.00    +0.000 C 
ENDBRANCH  14  22
ENDBRANCH   8  17
ENDBRANCH   7  11
ENDBRANCH   1   7
BRANCH   4  24
ATOM     24  O   UNL     1       0.707   7.852  21.101  0.00  0.00    +0.000 OA
BRANCH  24  25
ATOM     25  C   UNL     1       0.611   9.139  20.609  0.00  0.00    +0.000 A 
ATOM     26  C   UNL     1       0.615  10.151  21.564  0.00  0.00    +0.000 A 
ATOM     27  C   UNL     1       0.564  11.487  21.167  0.00  0.00    +0.000 A 
ATOM     28  C   UNL     1       0.519  11.849  19.812  0.00  0.00    +0.000 A 
ATOM     29  C   UNL     1       0.488  10.821  18.864  0.00  0.00    +0.000 A 
ATOM     30  C   UNL     1       0.566   9.480  19.254  0.00  0.00    +0.000 A 
BRANCH  28  31
ATOM     31  N   UNL     1       0.642  13.178  19.372  0.00  0.00    +0.000 N 
ATOM     32  C   UNL     1       1.701  14.039  19.413  0.00  0.00    +0.000 C 
ATOM     33  N   UNL     1       2.863  13.523  19.904  0.00  0.00    +0.000 N 
ATOM     34  N   UNL     1       1.538  15.225  18.939  0.00  0.00    +0.000 NA
ATOM     35  H   UNL     1      -0.137  13.535  18.835  0.00  0.00    +0.000 HD
ATOM     36  H   UNL     1       2.981  12.538  19.700  0.00  0.00    +0.000 HD
ATOM     37  H   UNL     1       3.699  14.038  19.679  0.00  0.00    +0.000 HD
BRANCH  34  38
ATOM     38  C   UNL     1       2.663  16.166  18.919  0.00  0.00    +0.000 C 
ATOM     39  C   UNL     1       3.052  16.444  17.469  0.00  0.00    +0.000 C 
ATOM     40  C   UNL     1       2.233  17.451  19.616  0.00  0.00    +0.000 C 
ENDBRANCH  34  38
ENDBRANCH  28  31
ENDBRANCH  24  25
ENDBRANCH   4  24
TORSDOF 8
ENDMDL
MODEL 8
REMARK VINA RESULT:      -7.9      3.321     11.634
REMARK  Name = 
REMARK  12 active torsions:
REMARK  status: ('A' for Active; 'I' for Inactive)
REMARK    1  A    between atoms: C_1  and  C_2
REMARK    2  A    between atoms: C_2  and  C_3
REMARK    3  A    between atoms: C_2  and  N_4
REMARK    4  A    between atoms: N_7  and  C_8
REMARK    5  A    between atoms: C_11  and  O_12
REMARK    6  A    between atoms: O_12  and  C_13
REMARK    7  A    between atoms: C_16  and  O_17
REMARK    8  A    between atoms: O_17  and  C_18
REMARK    9  A    between atoms: C_21  and  N_22
REMARK   10  A    between atoms: N_25  and  C_26
REMARK   11  A    between atoms: C_26  and  C_27
REMARK   12  A    between atoms: C_26  and  C_28
REMARK                            x       y       z     vdW  Elec       q    Type
REMARK                         _______ _______ _______ _____ _____    ______ ____
ROOT
ATOM      1  C   UNL     1       1.030  10.299  20.409  0.00  0.00    +0.000 A 
ATOM      2  C   UNL     1       0.937   9.577  21.600  0.00  0.00    +0.000 A 
ATOM      3  C   UNL     1       1.205   8.202  21.611  0.00  0.00    +0.000 A 
ATOM      4  C   UNL     1       1.572   7.553  20.428  0.00  0.00    +0.000 A 
ATOM      5  C   UNL     1       1.725   8.290  19.253  0.00  0.00    +0.000 A 
ATOM      6  C   UNL     1       1.386   9.639  19.229  0.00  0.00    +0.000 A 
ENDROOT
BRANCH   1   7
ATOM      7  O   UNL     1       0.725  11.645  20.481  0.00  0.00    +0.000 OA
BRANCH   7  11
ATOM      8  C   UNL     1      -3.245  12.644  21.408  0.00  0.00    +0.000 A 
ATOM      9  C   UNL     1      -2.281  12.430  22.407  0.00  0.00    +0.000 A 
ATOM     10  C   UNL     1      -0.955  12.120  22.081  0.00  0.00    +0.000 A 
ATOM     11  C   UNL     1      -0.574  12.014  20.745  0.00  0.00    +0.000 A 
ATOM     12  C   UNL     1      -1.500  12.299  19.743  0.00  0.00    +0.000 A 
ATOM     13  C   UNL     1      -2.829  12.571  20.074  0.00  0.00    +0.000 A 
BRANCH   8  17
ATOM     14  N   UNL     1      -5.724  11.715  20.101  0.00  0.00    +0.000 NA
ATOM     15  C   UNL     1      -5.715  12.437  21.158  0.00  0.00    +0.000 C 
ATOM     16  N   UNL     1      -6.812  12.878  21.837  0.00  0.00    +0.000 N 
ATOM     17  N   UNL     1      -4.582  12.900  21.775  0.00  0.00    +0.000 N 
ATOM     18  H   UNL     1      -7.663  12.392  21.583  0.00  0.00    +0.000 HD
ATOM     19  H   UNL     1      -6.691  12.867  22.843  0.00  0.00    +0.000 HD
ATOM     20  H   UNL     1      -4.710  13.761  22.287  0.00  0.00    +0.000 HD
BRANCH  14  22
ATOM     21  C   UNL     1      -6.829  11.719  17.973  0.00  0.00    +0.000 C 
ATOM     22  C   UNL     1      -6.938  11.278  19.430  0.00  0.00    +0.000 C 
ATOM     23  C   UNL     1      -7.039   9.758  19.518  0.00  0.00    +0.000 C 
ENDBRANCH  14  22
ENDBRANCH   8  17
ENDBRANCH   7  11
ENDBRANCH   1   7
BRANCH   4  24
ATOM     24  O   UNL     1       1.795   6.200  20.501  0.00  0.00    +0.000 OA
BRANCH  24  25
ATOM     25  C   UNL     1       2.652   5.604  19.597  0.00  0.00    +0.000 A 
ATOM     26  C   UNL     1       2.046   4.829  18.613  0.00  0.00    +0.000 A 
ATOM     27  C   UNL     1       2.822   4.218  17.627  0.00  0.00    +0.000 A 
ATOM     28  C   UNL     1       4.216   4.374  17.591  0.00  0.00    +0.000 A 
ATOM     29  C   UNL     1       4.815   5.134  18.601  0.00  0.00    +0.000 A 
ATOM     30  C   UNL     1       4.040   5.771  19.576  0.00  0.00    +0.000 A 
BRANCH  28  31
ATOM     31  N   UNL     1       5.007   3.921  16.520  0.00  0.00    +0.000 N 
ATOM     32  C   UNL     1       5.384   4.540  15.362  0.00  0.00    +0.000 C 
ATOM     33  N   UNL     1       4.988   5.838  15.231  0.00  0.00    +0.000 N 
ATOM     34  N   UNL     1       6.118   3.883  14.533  0.00  0.00    +0.000 NA
ATOM     35  H   UNL     1       5.472   3.035  16.663  0.00  0.00    +0.000 HD
ATOM     36  H   UNL     1       4.942   6.334  16.113  0.00  0.00    +0.000 HD
ATOM     37  H   UNL     1       5.487   6.379  14.542  0.00  0.00    +0.000 HD
BRANCH  34  38
ATOM     38  C   UNL     1       6.585   4.526  13.302  0.00  0.00    +0.000 C 
ATOM     39  C   UNL     1       8.020   5.009  13.507  0.00  0.00    +0.000 C 
ATOM     40  C   UNL     1       6.517   3.510  12.168  0.00  0.00    +0.000 C 
ENDBRANCH  34  38
ENDBRANCH  28  31
ENDBRANCH  24  25
ENDBRANCH   4  24
TORSDOF 8
ENDMDL
MODEL 9
REMARK VINA RESULT:      -7.8      5.271      7.894
REMARK  Name = 
REMARK  12 active torsions:
REMARK  status: ('A' for Active; 'I' for Inactive)
REMARK    1  A    between atoms: C_1  and  C_2
REMARK    2  A    between atoms: C_2  and  C_3
REMARK    3  A    between atoms: C_2  and  N_4
REMARK    4  A    between atoms: N_7  and  C_8
REMARK    5  A    between atoms: C_11  and  O_12
REMARK    6  A    between atoms: O_12  and  C_13
REMARK    7  A    between atoms: C_16  and  O_17
REMARK    8  A    between atoms: O_17  and  C_18
REMARK    9  A    between atoms: C_21  and  N_22
REMARK   10  A    between atoms: N_25  and  C_26
REMARK   11  A    between atoms: C_26  and  C_27
REMARK   12  A    between atoms: C_26  and  C_28
REMARK                            x       y       z     vdW  Elec       q    Type
REMARK                         _______ _______ _______ _____ _____    ______ ____
ROOT
ATOM      1  C   UNL     1       0.292  11.679  19.531  0.00  0.00    +0.000 A 
ATOM      2  C   UNL     1      -0.333  12.640  18.733  0.00  0.00    +0.000 A 
ATOM      3  C   UNL     1       0.045  13.985  18.827  0.00  0.00    +0.000 A 
ATOM      4  C   UNL     1       1.053  14.367  19.717  0.00  0.00    +0.000 A 
ATOM      5  C   UNL     1       1.719  13.396  20.466  0.00  0.00    +0.000 A 
ATOM      6  C   UNL     1       1.292  12.073  20.426  0.00  0.00    +0.000 A 
ENDROOT
BRANCH   1   7
ATOM      7  O   UNL     1      -0.156  10.380  19.394  0.00  0.00    +0.000 OA
BRANCH   7  11
ATOM      8  C   UNL     1       2.603   7.225  19.141  0.00  0.00    +0.000 A 
ATOM      9  C   UNL     1       2.324   8.058  18.044  0.00  0.00    +0.000 A 
ATOM     10  C   UNL     1       1.418   9.121  18.151  0.00  0.00    +0.000 A 
ATOM     11  C   UNL     1       0.771   9.363  19.361  0.00  0.00    +0.000 A 
ATOM     12  C   UNL     1       1.095   8.595  20.478  0.00  0.00    +0.000 A 
ATOM     13  C   UNL     1       1.970   7.515  20.355  0.00  0.00    +0.000 A 
BRANCH   8  17
ATOM     14  N   UNL     1       2.055   4.352  19.544  0.00  0.00    +0.000 NA
ATOM     15  C   UNL     1       3.188   4.805  19.156  0.00  0.00    +0.000 C 
ATOM     16  N   UNL     1       4.292   4.059  18.868  0.00  0.00    +0.000 N 
ATOM     17  N   UNL     1       3.478   6.133  18.979  0.00  0.00    +0.000 N 
ATOM     18  H   UNL     1       4.092   3.074  18.749  0.00  0.00    +0.000 HD
ATOM     19  H   UNL     1       4.813   4.407  18.071  0.00  0.00    +0.000 HD
ATOM     20  H   UNL     1       4.453   6.366  19.104  0.00  0.00    +0.000 HD
BRANCH  14  22
ATOM     21  C   UNL     1       1.313   2.809  21.221  0.00  0.00    +0.000 C 
ATOM     22  C   UNL     1       1.783   2.943  19.776  0.00  0.00    +0.000 C 
ATOM     23  C   UNL     1       0.690   2.480  18.817  0.00  0.00    +0.000 C 
ENDBRANCH  14  22
ENDBRANCH   8  17
ENDBRANCH   7  11
ENDBRANCH   1   7
BRANCH   4  24
ATOM     24  O   UNL     1       1.357  15.705  19.780  0.00  0.00    +0.000 OA
BRANCH  24  25
ATOM     25  C   UNL     1       2.622  16.130  19.424  0.00  0.00    +0.000 A 
ATOM     26  C   UNL     1       3.421  16.584  20.469  0.00  0.00    +0.000 A 
ATOM     27  C   UNL     1       4.731  16.996  20.219  0.00  0.00    +0.000 A 
ATOM     28  C   UNL     1       5.278  16.956  18.929  0.00  0.00    +0.000 A 
ATOM     29  C   UNL     1       4.455  16.523  17.884  0.00  0.00    +0.000 A 
ATOM     30  C   UNL     1       3.151  16.082  18.131  0.00  0.00    +0.000 A 
BRANCH  28  31
ATOM     31  N   UNL     1       6.639  17.197  18.669  0.00  0.00    +0.000 N 
ATOM     32  C   UNL     1       7.692  16.335  18.545  0.00  0.00    +0.000 C 
ATOM     33  N   UNL     1       7.382  15.010  18.620  0.00  0.00    +0.000 N 
ATOM     34  N   UNL     1       8.857  16.830  18.309  0.00  0.00    +0.000 NA
ATOM     35  H   UNL     1       6.877  18.148  18.423  0.00  0.00    +0.000 HD
ATOM     36  H   UNL     1       6.464  14.791  18.251  0.00  0.00    +0.000 HD
ATOM     37  H   UNL     1       8.075  14.378  18.252  0.00  0.00    +0.000 HD
BRANCH  34  38
ATOM     38  C   UNL     1      10.005  15.938  18.121  0.00  0.00    +0.000 C 
ATOM     39  C   UNL     1      10.803  16.407  16.906  0.00  0.00    +0.000 C 
ATOM     40  C   UNL     1      10.866  15.982  19.378  0.00  0.00    +0.000 C 
ENDBRANCH  34  38
ENDBRANCH  28  31
ENDBRANCH  24  25
ENDBRANCH   4  24
TORSDOF 8
ENDMDL
