MODEL 1
REMARK VINA RESULT:      -8.1      0.000      0.000
REMARK  Name = 
REMARK  4 active torsions:
REMARK  status: ('A' for Active; 'I' for Inactive)
REMARK    1  A    between atoms: C_1  and  C_2
REMARK    2  A    between atoms: C_2  and  C_3
REMARK    3  A    between atoms: C_2  and  C_4
REMARK    4  A    between atoms: C_10  and  C_11
REMARK                            x       y       z     vdW  Elec       q    Type
REMARK                         _______ _______ _______ _____ _____    ______ ____
ROOT
ATOM      1  C   UNL     1       6.495   3.849  13.403  0.00  0.00    +0.000 C 
ATOM      2  N   UNL     1       6.144   3.228  14.481  0.00  0.00    +0.000 NA
ATOM      3  N   UNL     1       6.448   4.025  15.552  0.00  0.00    +0.000 N 
ATOM      4  C   UNL     1       5.589   4.014  16.630  0.00  0.00    +0.000 C 
ATOM      5  N   UNL     1       4.643   3.125  16.700  0.00  0.00    +0.000 NA
ATOM      6  C   UNL     1       5.811   5.105  17.616  0.00  0.00    +0.000 C 
ATOM      7  C   UNL     1       4.883   5.583  18.469  0.00  0.00    +0.000 C 
ATOM      8  C   UNL     1       7.083   5.894  17.455  0.00  0.00    +0.000 C 
ATOM      9  O   UNL     1       7.634   6.414  18.420  0.00  0.00    +0.000 OA
ATOM     10  N   UNL     1       7.522   6.071  16.147  0.00  0.00    +0.000 NA
ATOM     11  C   UNL     1       7.194   5.152  15.303  0.00  0.00    +0.000 C 
ATOM     12  S   UNL     1       7.495   5.279  13.580  0.00  0.00    +0.000 S 
ATOM     13  H   UNL     1       4.728   2.574  15.829  0.00  0.00    +0.000 HD
ENDROOT
BRANCH   7  14
ATOM     14  C   UNL     1       3.510   5.198  18.549  0.00  0.00    +0.000 A 
ATOM     15  C   UNL     1       2.520   5.522  17.652  0.00  0.00    +0.000 A 
ATOM     16  N   UNL     1       1.374   4.885  18.051  0.00  0.00    +0.000 N 
ATOM     17  C   UNL     1       1.619   4.112  19.165  0.00  0.00    +0.000 A 
ATOM     18  C   UNL     1       0.784   3.226  19.856  0.00  0.00    +0.000 A 
ATOM     19  C   UNL     1       1.317   2.574  20.974  0.00  0.00    +0.000 A 
ATOM     20  C   UNL     1       2.613   2.838  21.411  0.00  0.00    +0.000 A 
ATOM     21  C   UNL     1       3.432   3.728  20.711  0.00  0.00    +0.000 A 
ATOM     22  C   UNL     1       2.942   4.347  19.542  0.00  0.00    +0.000 A 
ATOM     23  H   UNL     1       0.482   4.947  17.582  0.00  0.00    +0.000 HD
ENDBRANCH   7  14
BRANCH   1  25
ATOM     24  C   UNL     1       6.369   2.062  11.682  0.00  0.00    +0.000 C 
ATOM     25  C   UNL     1       5.889   3.448  12.090  0.00  0.00    +0.000 C 
ATOM     26  C   UNL     1       4.365   3.436  12.311  0.00  0.00    +0.000 C 
ENDBRANCH   1  25
TORSDOF 2
ENDMDL
MODEL 2
REMARK VINA RESULT:      -7.2      5.457      7.912
REMARK  Name = 
REMARK  4 active torsions:
REMARK  status: ('A' for Active; 'I' for Inactive)
REMARK    1  A    between atoms: C_1  and  C_2
REMARK    2  A    between atoms: C_2  and  C_3
REMARK    3  A    between atoms: C_2  and  C_4
REMARK    4  A    between atoms: C_10  and  C_11
REMARK                            x       y       z     vdW  Elec       q    Type
REMARK                         _______ _______ _______ _____ _____    ______ ____
ROOT
ATOM      1  C   UNL     1      -1.463  11.091  18.210  0.00  0.00    +0.000 C 
ATOM      2  N   UNL     1      -0.227  10.792  17.981  0.00  0.00    +0.000 NA
ATOM      3  N   UNL     1       0.325  10.332  19.145  0.00  0.00    +0.000 N 
ATOM      4  C   UNL     1       1.255   9.317  19.063  0.00  0.00    +0.000 C 
ATOM      5  N   UNL     1       1.730   8.961  17.907  0.00  0.00    +0.000 NA
ATOM      6  C   UNL     1       1.588   8.670  20.360  0.00  0.00    +0.000 C 
ATOM      7  C   UNL     1       2.081   7.424  20.503  0.00  0.00    +0.000 C 
ATOM      8  C   UNL     1       1.088   9.369  21.596  0.00  0.00    +0.000 C 
ATOM      9  O   UNL     1       1.688   9.279  22.663  0.00  0.00    +0.000 OA
ATOM     10  N   UNL     1      -0.131  10.026  21.467  0.00  0.00    +0.000 NA
ATOM     11  C   UNL     1      -0.426  10.459  20.289  0.00  0.00    +0.000 C 
ATOM     12  S   UNL     1      -1.986  11.151  19.883  0.00  0.00    +0.000 S 
ATOM     13  H   UNL     1       1.240   9.559  17.220  0.00  0.00    +0.000 HD
ENDROOT
BRANCH   7  14
ATOM     14  C   UNL     1       2.310   6.466  19.469  0.00  0.00    +0.000 A 
ATOM     15  C   UNL     1       3.106   6.640  18.361  0.00  0.00    +0.000 A 
ATOM     16  N   UNL     1       3.121   5.454  17.672  0.00  0.00    +0.000 N 
ATOM     17  C   UNL     1       2.389   4.500  18.344  0.00  0.00    +0.000 A 
ATOM     18  C   UNL     1       2.205   3.139  18.073  0.00  0.00    +0.000 A 
ATOM     19  C   UNL     1       1.390   2.409  18.945  0.00  0.00    +0.000 A 
ATOM     20  C   UNL     1       0.746   3.027  20.015  0.00  0.00    +0.000 A 
ATOM     21  C   UNL     1       0.939   4.388  20.270  0.00  0.00    +0.000 A 
ATOM     22  C   UNL     1       1.809   5.132  19.445  0.00  0.00    +0.000 A 
ATOM     23  H   UNL     1       3.621   5.291  16.810  0.00  0.00    +0.000 HD
ENDBRANCH   7  14
BRANCH   1  25
ATOM     24  C   UNL     1      -2.468   9.863  16.298  0.00  0.00    +0.000 C 
ATOM     25  C   UNL     1      -2.426  11.179  17.062  0.00  0.00    +0.000 C 
ATOM     26  C   UNL     1      -3.803  11.476  17.683  0.00  0.00    +0.000 C 
ENDBRANCH   1  25
TORSDOF 2
ENDMDL
MODEL 3
REMARK VINA RESULT:      -7.0      9.948     11.765
REMARK  Name = 
REMARK  4 active torsions:
REMARK  status: ('A' for Active; 'I' for Inactive)
REMARK    1  A    between atoms: C_1  and  C_2
REMARK    2  A    between atoms: C_2  and  C_3
REMARK    3  A    between atoms: C_2  and  C_4
REMARK    4  A    between atoms: C_10  and  C_11
REMARK                            x       y       z     vdW  Elec       q    Type
REMARK                         _______ _______ _______ _____ _____    ______ ____
ROOT
ATOM      1  C   UNL     1       1.362  16.344  19.491  0.00  0.00    +0.000 C 
ATOM      2  N   UNL     1       1.087  15.408  18.643  0.00  0.00    +0.000 NA
ATOM      3  N   UNL     1       1.040  14.219  19.319  0.00  0.00    +0.000 N 
ATOM      4  C   UNL     1       0.108  13.284  18.919  0.00  0.00    +0.000 C 
ATOM      5  N   UNL     1      -0.553  13.456  17.813  0.00  0.00    +0.000 NA
ATOM      6  C   UNL     1      -0.089  12.155  19.866  0.00  0.00    +0.000 C 
ATOM      7  C   UNL     1      -1.198  11.394  19.949  0.00  0.00    +0.000 C 
ATOM      8  C   UNL     1       0.922  12.037  20.976  0.00  0.00    +0.000 C 
ATOM      9  O   UNL     1       1.199  10.949  21.469  0.00  0.00    +0.000 OA
ATOM     10  N   UNL     1       1.430  13.239  21.460  0.00  0.00    +0.000 NA
ATOM     11  C   UNL     1       1.463  14.223  20.627  0.00  0.00    +0.000 C 
ATOM     12  S   UNL     1       1.898  15.858  21.089  0.00  0.00    +0.000 S 
ATOM     13  H   UNL     1      -0.225  14.365  17.443  0.00  0.00    +0.000 HD
ENDROOT
BRANCH   7  14
ATOM     14  C   UNL     1      -2.410  11.558  19.210  0.00  0.00    +0.000 A 
ATOM     15  C   UNL     1      -3.482  12.341  19.569  0.00  0.00    +0.000 A 
ATOM     16  N   UNL     1      -4.395  12.286  18.547  0.00  0.00    +0.000 N 
ATOM     17  C   UNL     1      -3.908  11.520  17.510  0.00  0.00    +0.000 A 
ATOM     18  C   UNL     1      -4.442  11.264  16.242  0.00  0.00    +0.000 A 
ATOM     19  C   UNL     1      -3.712  10.430  15.388  0.00  0.00    +0.000 A 
ATOM     20  C   UNL     1      -2.523   9.837  15.805  0.00  0.00    +0.000 A 
ATOM     21  C   UNL     1      -2.005  10.100  17.077  0.00  0.00    +0.000 A 
ATOM     22  C   UNL     1      -2.687  10.991  17.932  0.00  0.00    +0.000 A 
ATOM     23  H   UNL     1      -5.286  12.761  18.539  0.00  0.00    +0.000 HD
ENDBRANCH   7  14
BRANCH   1  25
ATOM     24  C   UNL     1       0.624  17.886  17.689  0.00  0.00    +0.000 C 
ATOM     25  C   UNL     1       1.036  17.768  19.150  0.00  0.00    +0.000 C 
ATOM     26  C   UNL     1      -0.137  18.166  20.064  0.00  0.00    +0.000 C 
ENDBRANCH   1  25
TORSDOF 2
ENDMDL
MODEL 4
REMARK VINA RESULT:      -6.7     11.122     13.425
REMARK  Name = 
REMARK  4 active torsions:
REMARK  status: ('A' for Active; 'I' for Inactive)
REMARK    1  A    between atoms: C_1  and  C_2
REMARK    2  A    between atoms: C_2  and  C_3
REMARK    3  A    between atoms: C_2  and  C_4
REMARK    4  A    between atoms: C_10  and  C_11
REMARK                            x       y       z     vdW  Elec       q    Type
REMARK                         _______ _______ _______ _____ _____    ______ ____
ROOT
ATOM      1  C   UNL     1      -1.666  10.821  18.898  0.00  0.00    +0.000 C 
ATOM      2  N   UNL     1      -2.274  11.792  19.498  0.00  0.00    +0.000 NA
ATOM      3  N   UNL     1      -3.424  12.067  18.808  0.00  0.00    +0.000 N 
ATOM      4  C   UNL     1      -4.538  12.438  19.530  0.00  0.00    +0.000 C 
ATOM      5  N   UNL     1      -4.432  12.710  20.797  0.00  0.00    +0.000 NA
ATOM      6  C   UNL     1      -5.810  12.433  18.761  0.00  0.00    +0.000 C 
ATOM      7  C   UNL     1      -7.042  12.309  19.295  0.00  0.00    +0.000 C 
ATOM      8  C   UNL     1      -5.681  12.294  17.267  0.00  0.00    +0.000 C 
ATOM      9  O   UNL     1      -6.514  12.780  16.510  0.00  0.00    +0.000 OA
ATOM     10  N   UNL     1      -4.625  11.504  16.824  0.00  0.00    +0.000 NA
ATOM     11  C   UNL     1      -3.591  11.446  17.594  0.00  0.00    +0.000 C 
ATOM     12  S   UNL     1      -2.237  10.370  17.302  0.00  0.00    +0.000 S 
ATOM     13  H   UNL     1      -3.435  12.549  21.023  0.00  0.00    +0.000 HD
ENDROOT
BRANCH   7  14
ATOM     14  C   UNL     1      -7.364  12.089  20.669  0.00  0.00    +0.000 A 
ATOM     15  C   UNL     1      -7.554  10.869  21.275  0.00  0.00    +0.000 A 
ATOM     16  N   UNL     1      -7.758  11.098  22.611  0.00  0.00    +0.000 N 
ATOM     17  C   UNL     1      -7.653  12.444  22.888  0.00  0.00    +0.000 A 
ATOM     18  C   UNL     1      -7.691  13.125  24.111  0.00  0.00    +0.000 A 
ATOM     19  C   UNL     1      -7.559  14.518  24.080  0.00  0.00    +0.000 A 
ATOM     20  C   UNL     1      -7.444  15.203  22.873  0.00  0.00    +0.000 A 
ATOM     21  C   UNL     1      -7.411  14.508  21.661  0.00  0.00    +0.000 A 
ATOM     22  C   UNL     1      -7.474  13.099  21.669  0.00  0.00    +0.000 A 
ATOM     23  H   UNL     1      -7.933  10.383  23.303  0.00  0.00    +0.000 HD
ENDBRANCH   7  14
BRANCH   1  25
ATOM     24  C   UNL     1       0.647   9.916  18.856  0.00  0.00    +0.000 C 
ATOM     25  C   UNL     1      -0.650  10.011  19.649  0.00  0.00    +0.000 C 
ATOM     26  C   UNL     1      -0.406  10.756  20.974  0.00  0.00    +0.000 C 
ENDBRANCH   1  25
TORSDOF 2
ENDMDL
MODEL 5
REMARK VINA RESULT:      -6.7      9.624     11.315
REMARK  Name = 
REMARK  4 active torsions:
REMARK  status: ('A' for Active; 'I' for Inactive)
REMARK    1  A    between atoms: C_1  and  C_2
REMARK    2  A    between atoms: C_2  and  C_3
REMARK    3  A    between atoms: C_2  and  C_4
REMARK    4  A    between atoms: C_10  and  C_11
REMARK                            x       y       z     vdW  Elec       q    Type
REMARK                         _______ _______ _______ _____ _____    ______ ____
ROOT
ATOM      1  C   UNL     1       1.937  15.667  19.315  0.00  0.00    +0.000 C 
ATOM      2  N   UNL     1       1.553  14.743  18.496  0.00  0.00    +0.000 NA
ATOM      3  N   UNL     1       1.359  13.592  19.210  0.00  0.00    +0.000 N 
ATOM      4  C   UNL     1       0.323  12.763  18.833  0.00  0.00    +0.000 C 
ATOM      5  N   UNL     1      -0.307  12.977  17.716  0.00  0.00    +0.000 NA
ATOM      6  C   UNL     1      -0.014  11.700  19.815  0.00  0.00    +0.000 C 
ATOM      7  C   UNL     1      -1.208  11.082  19.913  0.00  0.00    +0.000 C 
ATOM      8  C   UNL     1       0.969  11.498  20.938  0.00  0.00    +0.000 C 
ATOM      9  O   UNL     1       1.110  10.402  21.469  0.00  0.00    +0.000 OA
ATOM     10  N   UNL     1       1.617  12.645  21.386  0.00  0.00    +0.000 NA
ATOM     11  C   UNL     1       1.774  13.589  20.521  0.00  0.00    +0.000 C 
ATOM     12  S   UNL     1       2.402  15.174  20.933  0.00  0.00    +0.000 S 
ATOM     13  H   UNL     1       0.131  13.826  17.319  0.00  0.00    +0.000 HD
ENDROOT
BRANCH   7  14
ATOM     14  C   UNL     1      -2.387  11.366  19.159  0.00  0.00    +0.000 A 
ATOM     15  C   UNL     1      -3.387  12.242  19.510  0.00  0.00    +0.000 A 
ATOM     16  N   UNL     1      -4.284  12.283  18.475  0.00  0.00    +0.000 N 
ATOM     17  C   UNL     1      -3.855  11.486  17.436  0.00  0.00    +0.000 A 
ATOM     18  C   UNL     1      -4.391  11.294  16.157  0.00  0.00    +0.000 A 
ATOM     19  C   UNL     1      -3.729  10.404  15.305  0.00  0.00    +0.000 A 
ATOM     20  C   UNL     1      -2.607   9.698  15.733  0.00  0.00    +0.000 A 
ATOM     21  C   UNL     1      -2.087   9.899  17.015  0.00  0.00    +0.000 A 
ATOM     22  C   UNL     1      -2.696  10.840  17.870  0.00  0.00    +0.000 A 
ATOM     23  H   UNL     1      -5.127  12.840  18.459  0.00  0.00    +0.000 HD
ENDBRANCH   7  14
BRANCH   1  25
ATOM     24  C   UNL     1       2.373  18.015  19.996  0.00  0.00    +0.000 C 
ATOM     25  C   UNL     1       1.787  17.108  18.924  0.00  0.00    +0.000 C 
ATOM     26  C   UNL     1       2.565  17.274  17.606  0.00  0.00    +0.000 C 
ENDBRANCH   1  25
TORSDOF 2
ENDMDL
MODEL 6
REMARK VINA RESULT:      -6.7      5.729      8.143
REMARK  Name = 
REMARK  4 active torsions:
REMARK  status: ('A' for Active; 'I' for Inactive)
REMARK    1  A    between atoms: C_1  and  C_2
REMARK    2  A    between atoms: C_2  and  C_3
REMARK    3  A    between atoms: C_2  and  C_4
REMARK    4  A    between atoms: C_10  and  C_11
REMARK                            x       y       z     vdW  Elec       q    Type
REMARK                         _______ _______ _______ _____ _____    ______ ____
ROOT
ATOM      1  C   UNL     1      -2.357  10.715  17.617  0.00  0.00    +0.000 C 
ATOM      2  N   UNL     1      -1.107  10.585  17.314  0.00  0.00    +0.000 NA
ATOM      3  N   UNL     1      -0.394  10.477  18.477  0.00  0.00    +0.000 N 
ATOM      4  C   UNL     1       0.698   9.636  18.490  0.00  0.00    +0.000 C 
ATOM      5  N   UNL     1       1.143   9.130  17.378  0.00  0.00    +0.000 NA
ATOM      6  C   UNL     1       1.242   9.340  19.841  0.00  0.00    +0.000 C 
ATOM      7  C   UNL     1       1.966   8.251  20.167  0.00  0.00    +0.000 C 
ATOM      8  C   UNL     1       0.716  10.189  20.968  0.00  0.00    +0.000 C 
ATOM      9  O   UNL     1       1.399  10.425  21.958  0.00  0.00    +0.000 OA
ATOM     10  N   UNL     1      -0.611  10.593  20.851  0.00  0.00    +0.000 NA
ATOM     11  C   UNL     1      -1.068  10.715  19.651  0.00  0.00    +0.000 C 
ATOM     12  S   UNL     1      -2.755  11.037  19.295  0.00  0.00    +0.000 S 
ATOM     13  H   UNL     1       0.501   9.482  16.647  0.00  0.00    +0.000 HD
ENDROOT
BRANCH   7  14
ATOM     14  C   UNL     1       2.291   7.150  19.317  0.00  0.00    +0.000 A 
ATOM     15  C   UNL     1       3.072   7.197  18.186  0.00  0.00    +0.000 A 
ATOM     16  N   UNL     1       3.203   5.914  17.720  0.00  0.00    +0.000 N 
ATOM     17  C   UNL     1       2.563   5.030  18.561  0.00  0.00    +0.000 A 
ATOM     18  C   UNL     1       2.511   3.632  18.538  0.00  0.00    +0.000 A 
ATOM     19  C   UNL     1       1.765   2.996  19.537  0.00  0.00    +0.000 A 
ATOM     20  C   UNL     1       1.060   3.732  20.487  0.00  0.00    +0.000 A 
ATOM     21  C   UNL     1       1.120   5.128  20.493  0.00  0.00    +0.000 A 
ATOM     22  C   UNL     1       1.919   5.791  19.538  0.00  0.00    +0.000 A 
ATOM     23  H   UNL     1       3.720   5.647  16.894  0.00  0.00    +0.000 HD
ENDBRANCH   7  14
BRANCH   1  25
ATOM     24  C   UNL     1      -4.498  11.458  16.599  0.00  0.00    +0.000 C 
ATOM     25  C   UNL     1      -3.403  10.401  16.588  0.00  0.00    +0.000 C 
ATOM     26  C   UNL     1      -2.678  10.405  15.230  0.00  0.00    +0.000 C 
ENDBRANCH   1  25
TORSDOF 2
ENDMDL
MODEL 7
REMARK VINA RESULT:      -6.6      9.521     11.734
REMARK  Name = 
REMARK  4 active torsions:
REMARK  status: ('A' for Active; 'I' for Inactive)
REMARK    1  A    between atoms: C_1  and  C_2
REMARK    2  A    between atoms: C_2  and  C_3
REMARK    3  A    between atoms: C_2  and  C_4
REMARK    4  A    between atoms: C_10  and  C_11
REMARK                            x       y       z     vdW  Elec       q    Type
REMARK                         _______ _______ _______ _____ _____    ______ ____
ROOT
ATOM      1  C   UNL     1       0.723  15.387  20.175  0.00  0.00    +0.000 C 
ATOM      2  N   UNL     1       0.646  14.729  19.064  0.00  0.00    +0.000 NA
ATOM      3  N   UNL     1       0.624  13.393  19.358  0.00  0.00    +0.000 N 
ATOM      4  C   UNL     1      -0.157  12.571  18.574  0.00  0.00    +0.000 C 
ATOM      5  N   UNL     1      -0.684  13.028  17.476  0.00  0.00    +0.000 NA
ATOM      6  C   UNL     1      -0.370  11.205  19.120  0.00  0.00    +0.000 C 
ATOM      7  C   UNL     1      -1.405  10.397  18.814  0.00  0.00    +0.000 C 
ATOM      8  C   UNL     1       0.496  10.817  20.289  0.00  0.00    +0.000 C 
ATOM      9  O   UNL     1       0.808   9.648  20.488  0.00  0.00    +0.000 OA
ATOM     10  N   UNL     1       0.824  11.847  21.165  0.00  0.00    +0.000 NA
ATOM     11  C   UNL     1       0.873  13.034  20.661  0.00  0.00    +0.000 C 
ATOM     12  S   UNL     1       1.091  14.479  21.630  0.00  0.00    +0.000 S 
ATOM     13  H   UNL     1      -0.397  14.021  17.433  0.00  0.00    +0.000 HD
ENDROOT
BRANCH   7  14
ATOM     14  C   UNL     1      -2.521  10.709  17.980  0.00  0.00    +0.000 A 
ATOM     15  C   UNL     1      -2.739  10.243  16.704  0.00  0.00    +0.000 A 
ATOM     16  N   UNL     1      -3.961  10.711  16.296  0.00  0.00    +0.000 N 
ATOM     17  C   UNL     1      -4.561  11.432  17.307  0.00  0.00    +0.000 A 
ATOM     18  C   UNL     1      -5.834  12.009  17.377  0.00  0.00    +0.000 A 
ATOM     19  C   UNL     1      -6.169  12.696  18.550  0.00  0.00    +0.000 A 
ATOM     20  C   UNL     1      -5.250  12.840  19.586  0.00  0.00    +0.000 A 
ATOM     21  C   UNL     1      -3.981  12.259  19.498  0.00  0.00    +0.000 A 
ATOM     22  C   UNL     1      -3.643  11.505  18.355  0.00  0.00    +0.000 A 
ATOM     23  H   UNL     1      -4.380  10.532  15.395  0.00  0.00    +0.000 HD
ENDBRANCH   7  14
BRANCH   1  25
ATOM     24  C   UNL     1       1.529  17.727  20.380  0.00  0.00    +0.000 C 
ATOM     25  C   UNL     1       0.312  16.830  20.208  0.00  0.00    +0.000 C 
ATOM     26  C   UNL     1      -0.366  17.110  18.854  0.00  0.00    +0.000 C 
ENDBRANCH   1  25
TORSDOF 2
ENDMDL
MODEL 8
REMARK VINA RESULT:      -6.6      4.679      7.249
REMARK  Name = 
REMARK  4 active torsions:
REMARK  status: ('A' for Active; 'I' for Inactive)
REMARK    1  A    between atoms: C_1  and  C_2
REMARK    2  A    between atoms: C_2  and  C_3
REMARK    3  A    between atoms: C_2  and  C_4
REMARK    4  A    between atoms: C_10  and  C_11
REMARK                            x       y       z     vdW  Elec       q    Type
REMARK                         _______ _______ _______ _____ _____    ______ ____
ROOT
ATOM      1  C   UNL     1       1.803   4.123  19.878  0.00  0.00    +0.000 C 
ATOM      2  N   UNL     1       2.017   5.242  20.489  0.00  0.00    +0.000 NA
ATOM      3  N   UNL     1       2.534   6.131  19.586  0.00  0.00    +0.000 N 
ATOM      4  C   UNL     1       2.165   7.455  19.697  0.00  0.00    +0.000 C 
ATOM      5  N   UNL     1       1.514   7.863  20.746  0.00  0.00    +0.000 NA
ATOM      6  C   UNL     1       2.519   8.302  18.528  0.00  0.00    +0.000 C 
ATOM      7  C   UNL     1       1.905   9.452  18.187  0.00  0.00    +0.000 C 
ATOM      8  C   UNL     1       3.451   7.683  17.520  0.00  0.00    +0.000 C 
ATOM      9  O   UNL     1       4.208   8.375  16.847  0.00  0.00    +0.000 OA
ATOM     10  N   UNL     1       3.320   6.310  17.340  0.00  0.00    +0.000 NA
ATOM     11  C   UNL     1       2.890   5.638  18.353  0.00  0.00    +0.000 C 
ATOM     12  S   UNL     1       2.488   3.933  18.274  0.00  0.00    +0.000 S 
ATOM     13  H   UNL     1       1.374   7.015  21.322  0.00  0.00    +0.000 HD
ENDROOT
BRANCH   7  14
ATOM     14  C   UNL     1       0.771  10.042  18.822  0.00  0.00    +0.000 A 
ATOM     15  C   UNL     1       0.765  10.704  20.028  0.00  0.00    +0.000 A 
ATOM     16  N   UNL     1      -0.501  11.187  20.229  0.00  0.00    +0.000 N 
ATOM     17  C   UNL     1      -1.305  10.893  19.149  0.00  0.00    +0.000 A 
ATOM     18  C   UNL     1      -2.626  11.262  18.873  0.00  0.00    +0.000 A 
ATOM     19  C   UNL     1      -3.190  10.802  17.678  0.00  0.00    +0.000 A 
ATOM     20  C   UNL     1      -2.478   9.966  16.820  0.00  0.00    +0.000 A 
ATOM     21  C   UNL     1      -1.160   9.605  17.113  0.00  0.00    +0.000 A 
ATOM     22  C   UNL     1      -0.545  10.109  18.278  0.00  0.00    +0.000 A 
ATOM     23  H   UNL     1      -0.801  11.711  21.040  0.00  0.00    +0.000 HD
ENDBRANCH   7  14
BRANCH   1  25
ATOM     24  C   UNL     1       0.560   2.011  19.476  0.00  0.00    +0.000 C 
ATOM     25  C   UNL     1       0.841   3.133  20.465  0.00  0.00    +0.000 C 
ATOM     26  C   UNL     1       1.526   2.569  21.724  0.00  0.00    +0.000 C 
ENDBRANCH   1  25
TORSDOF 2
ENDMDL
MODEL 9
REMARK VINA RESULT:      -6.6     10.948     13.215
REMARK  Name = 
REMARK  4 active torsions:
REMARK  status: ('A' for Active; 'I' for Inactive)
REMARK    1  A    between atoms: C_1  and  C_2
REMARK    2  A    between atoms: C_2  and  C_3
REMARK    3  A    between atoms: C_2  and  C_4
REMARK    4  A    between atoms: C_10  and  C_11
REMARK                            x       y       z     vdW  Elec       q    Type
REMARK                         _______ _______ _______ _____ _____    ______ ____
ROOT
ATOM      1  C   UNL     1      -0.055  11.336  21.977  0.00  0.00    +0.000 C 
ATOM      2  N   UNL     1      -0.893  11.417  22.958  0.00  0.00    +0.000 NA
ATOM      3  N   UNL     1      -1.405  12.686  22.980  0.00  0.00    +0.000 N 
ATOM      4  C   UNL     1      -2.728  12.843  23.337  0.00  0.00    +0.000 C 
ATOM      5  N   UNL     1      -3.392  11.840  23.829  0.00  0.00    +0.000 NA
ATOM      6  C   UNL     1      -3.294  14.189  23.056  0.00  0.00    +0.000 C 
ATOM      7  C   UNL     1      -4.602  14.462  22.883  0.00  0.00    +0.000 C 
ATOM      8  C   UNL     1      -2.303  15.260  22.683  0.00  0.00    +0.000 C 
ATOM      9  O   UNL     1      -2.519  16.440  22.934  0.00  0.00    +0.000 OA
ATOM     10  N   UNL     1      -1.197  14.831  21.955  0.00  0.00    +0.000 NA
ATOM     11  C   UNL     1      -0.823  13.612  22.147  0.00  0.00    +0.000 C 
ATOM     12  S   UNL     1       0.430  12.832  21.200  0.00  0.00    +0.000 S 
ATOM     13  H   UNL     1      -2.727  11.049  23.824  0.00  0.00    +0.000 HD
ENDROOT
BRANCH   7  14
ATOM     14  C   UNL     1      -5.680  13.525  22.863  0.00  0.00    +0.000 A 
ATOM     15  C   UNL     1      -6.603  13.323  23.862  0.00  0.00    +0.000 A 
ATOM     16  N   UNL     1      -7.511  12.403  23.408  0.00  0.00    +0.000 N 
ATOM     17  C   UNL     1      -7.221  12.042  22.110  0.00  0.00    +0.000 A 
ATOM     18  C   UNL     1      -7.917  11.216  21.220  0.00  0.00    +0.000 A 
ATOM     19  C   UNL     1      -7.367  11.029  19.947  0.00  0.00    +0.000 A 
ATOM     20  C   UNL     1      -6.146  11.603  19.598  0.00  0.00    +0.000 A 
ATOM     21  C   UNL     1      -5.463  12.423  20.501  0.00  0.00    +0.000 A 
ATOM     22  C   UNL     1      -6.029  12.683  21.766  0.00  0.00    +0.000 A 
ATOM     23  H   UNL     1      -8.300  12.057  23.935  0.00  0.00    +0.000 HD
ENDBRANCH   7  14
BRANCH   1  25
ATOM     24  C   UNL     1      -0.436   8.889  22.172  0.00  0.00    +0.000 C 
ATOM     25  C   UNL     1       0.310   9.988  21.428  0.00  0.00    +0.000 C 
ATOM     26  C   UNL     1      -0.111  10.004  19.947  0.00  0.00    +0.000 C 
ENDBRANCH   1  25
TORSDOF 2
ENDMDL
