MODEL 1
REMARK VINA RESULT:      -7.8      0.000      0.000
REMARK  Name = 
REMARK  4 active torsions:
REMARK  status: ('A' for Active; 'I' for Inactive)
REMARK    1  A    between atoms: C_1  and  C_2
REMARK    2  A    between atoms: C_7  and  C_8
REMARK    3  A    between atoms: C_15  and  N_16
REMARK    4  A    between atoms: N_25  and  C_26
REMARK                            x       y       z     vdW  Elec       q    Type
REMARK                         _______ _______ _______ _____ _____    ______ ____
ROOT
ATOM      1  C   UNL     1       2.684   6.586  19.231  0.00  0.00    +0.000 A 
ATOM      2  N   UNL     1       2.278   6.336  20.457  0.00  0.00    +0.000 NA
ATOM      3  N   UNL     1       1.531   7.392  20.889  0.00  0.00    +0.000 NA
ATOM      4  C   UNL     1       1.441   8.280  19.922  0.00  0.00    +0.000 A 
ATOM      5  N   UNL     1       0.765   9.457  20.005  0.00  0.00    +0.000 N 
ATOM      6  C   UNL     1       0.850  10.160  21.287  0.00  0.00    +0.000 C 
ATOM      7  C   UNL     1      -0.492  10.783  21.633  0.00  0.00    +0.000 C 
ATOM      8  C   UNL     1      -0.995  11.701  20.516  0.00  0.00    +0.000 C 
ATOM      9  C   UNL     1      -1.147  10.825  19.264  0.00  0.00    +0.000 C 
ATOM     10  C   UNL     1       0.173  10.160  18.881  0.00  0.00    +0.000 C 
ATOM     11  N   UNL     1       2.198   7.832  18.860  0.00  0.00    +0.000 N 
ATOM     12  C   UNL     1       2.555   8.529  17.653  0.00  0.00    +0.000 C 
ENDROOT
BRANCH   1  19
ATOM     13  C   UNL     1       1.410   4.303  17.786  0.00  0.00    +0.000 C 
ATOM     14  C   UNL     1       2.891   4.590  17.714  0.00  0.00    +0.000 A 
ATOM     15  C   UNL     1       3.696   3.733  16.943  0.00  0.00    +0.000 A 
ATOM     16  C   UNL     1       5.068   3.945  16.830  0.00  0.00    +0.000 A 
ATOM     17  C   UNL     1       5.665   4.988  17.521  0.00  0.00    +0.000 A 
ATOM     18  C   UNL     1       4.886   5.814  18.330  0.00  0.00    +0.000 A 
ATOM     19  C   UNL     1       3.492   5.662  18.413  0.00  0.00    +0.000 A 
ENDBRANCH   1  19
BRANCH   8  20
ATOM     20  N   UNL     1      -0.106  12.875  20.206  0.00  0.00    +0.000 NA
ATOM     21  C   UNL     1      -0.500  13.669  19.010  0.00  0.00    +0.000 C 
ATOM     22  C   UNL     1       0.294  14.971  19.073  0.00  0.00    +0.000 C 
ATOM     23  C   UNL     1       0.261  15.415  20.517  0.00  0.00    +0.000 C 
ATOM     24  S   UNL     1       0.458  13.914  21.450  0.00  0.00    +0.000 S 
ATOM     25  O   UNL     1      -0.495  13.940  22.537  0.00  0.00    +0.000 OA
ATOM     26  O   UNL     1       1.868  13.664  21.637  0.00  0.00    +0.000 OA
ENDBRANCH   8  20
TORSDOF 2
ENDMDL
MODEL 2
REMARK VINA RESULT:      -7.3      0.982      1.635
REMARK  Name = 
REMARK  4 active torsions:
REMARK  status: ('A' for Active; 'I' for Inactive)
REMARK    1  A    between atoms: C_1  and  C_2
REMARK    2  A    between atoms: C_7  and  C_8
REMARK    3  A    between atoms: C_15  and  N_16
REMARK    4  A    between atoms: N_25  and  C_26
REMARK                            x       y       z     vdW  Elec       q    Type
REMARK                         _______ _______ _______ _____ _____    ______ ____
ROOT
ATOM      1  C   UNL     1       2.187   6.223  19.430  0.00  0.00    +0.000 A 
ATOM      2  N   UNL     1       1.722   6.142  20.658  0.00  0.00    +0.000 NA
ATOM      3  N   UNL     1       1.247   7.366  21.023  0.00  0.00    +0.000 NA
ATOM      4  C   UNL     1       1.383   8.199  20.014  0.00  0.00    +0.000 A 
ATOM      5  N   UNL     1       1.009   9.507  20.027  0.00  0.00    +0.000 N 
ATOM      6  C   UNL     1       1.250  10.233  21.276  0.00  0.00    +0.000 C 
ATOM      7  C   UNL     1       0.093  11.177  21.563  0.00  0.00    +0.000 C 
ATOM      8  C   UNL     1      -0.163  12.132  20.394  0.00  0.00    +0.000 C 
ATOM      9  C   UNL     1      -0.510  11.255  19.182  0.00  0.00    +0.000 C 
ATOM     10  C   UNL     1       0.615  10.274  18.858  0.00  0.00    +0.000 C 
ATOM     11  N   UNL     1       2.019   7.530  18.990  0.00  0.00    +0.000 N 
ATOM     12  C   UNL     1       2.545   8.058  17.760  0.00  0.00    +0.000 C 
ENDROOT
BRANCH   1  19
ATOM     13  C   UNL     1       5.135   5.750  19.363  0.00  0.00    +0.000 C 
ATOM     14  C   UNL     1       4.149   4.854  18.652  0.00  0.00    +0.000 A 
ATOM     15  C   UNL     1       4.651   3.764  17.920  0.00  0.00    +0.000 A 
ATOM     16  C   UNL     1       3.794   2.896  17.246  0.00  0.00    +0.000 A 
ATOM     17  C   UNL     1       2.428   3.130  17.255  0.00  0.00    +0.000 A 
ATOM     18  C   UNL     1       1.922   4.237  17.934  0.00  0.00    +0.000 A 
ATOM     19  C   UNL     1       2.756   5.092  18.674  0.00  0.00    +0.000 A 
ENDBRANCH   1  19
BRANCH   8  20
ATOM     20  N   UNL     1       0.986  13.040  20.048  0.00  0.00    +0.000 NA
ATOM     21  C   UNL     1       0.818  13.823  18.792  0.00  0.00    +0.000 C 
ATOM     22  C   UNL     1       1.896  14.902  18.807  0.00  0.00    +0.000 C 
ATOM     23  C   UNL     1       1.937  15.438  20.220  0.00  0.00    +0.000 C 
ATOM     24  S   UNL     1       1.752  13.999  21.248  0.00  0.00    +0.000 S 
ATOM     25  O   UNL     1       0.808  14.321  22.294  0.00  0.00    +0.000 OA
ATOM     26  O   UNL     1       3.057  13.438  21.503  0.00  0.00    +0.000 OA
ENDBRANCH   8  20
TORSDOF 2
ENDMDL
MODEL 3
REMARK VINA RESULT:      -6.9      1.932      2.929
REMARK  Name = 
REMARK  4 active torsions:
REMARK  status: ('A' for Active; 'I' for Inactive)
REMARK    1  A    between atoms: C_1  and  C_2
REMARK    2  A    between atoms: C_7  and  C_8
REMARK    3  A    between atoms: C_15  and  N_16
REMARK    4  A    between atoms: N_25  and  C_26
REMARK                            x       y       z     vdW  Elec       q    Type
REMARK                         _______ _______ _______ _____ _____    ______ ____
ROOT
ATOM      1  C   UNL     1       2.636   7.345  18.392  0.00  0.00    +0.000 A 
ATOM      2  N   UNL     1       2.556   8.030  17.272  0.00  0.00    +0.000 NA
ATOM      3  N   UNL     1       1.907   9.202  17.526  0.00  0.00    +0.000 NA
ATOM      4  C   UNL     1       1.615   9.263  18.807  0.00  0.00    +0.000 A 
ATOM      5  N   UNL     1       0.969  10.297  19.411  0.00  0.00    +0.000 N 
ATOM      6  C   UNL     1      -0.120  10.910  18.647  0.00  0.00    +0.000 C 
ATOM      7  C   UNL     1      -0.112  12.418  18.842  0.00  0.00    +0.000 C 
ATOM      8  C   UNL     1      -0.175  12.798  20.323  0.00  0.00    +0.000 C 
ATOM      9  C   UNL     1       1.071  12.192  20.985  0.00  0.00    +0.000 C 
ATOM     10  C   UNL     1       1.121  10.676  20.804  0.00  0.00    +0.000 C 
ATOM     11  N   UNL     1       2.019   8.083  19.394  0.00  0.00    +0.000 N 
ATOM     12  C   UNL     1       1.759   7.606  20.726  0.00  0.00    +0.000 C 
ENDROOT
BRANCH   1  19
ATOM     13  C   UNL     1       1.224   4.824  17.637  0.00  0.00    +0.000 C 
ATOM     14  C   UNL     1       2.642   4.841  18.156  0.00  0.00    +0.000 A 
ATOM     15  C   UNL     1       3.312   3.613  18.298  0.00  0.00    +0.000 A 
ATOM     16  C   UNL     1       4.623   3.559  18.766  0.00  0.00    +0.000 A 
ATOM     17  C   UNL     1       5.270   4.726  19.142  0.00  0.00    +0.000 A 
ATOM     18  C   UNL     1       4.600   5.945  19.054  0.00  0.00    +0.000 A 
ATOM     19  C   UNL     1       3.300   6.036  18.527  0.00  0.00    +0.000 A 
ENDBRANCH   1  19
BRANCH   8  20
ATOM     20  N   UNL     1      -1.409  12.333  21.050  0.00  0.00    +0.000 NA
ATOM     21  C   UNL     1      -1.205  11.986  22.483  0.00  0.00    +0.000 C 
ATOM     22  C   UNL     1      -2.595  11.880  23.104  0.00  0.00    +0.000 C 
ATOM     23  C   UNL     1      -3.395  13.036  22.548  0.00  0.00    +0.000 C 
ATOM     24  S   UNL     1      -2.915  13.127  20.838  0.00  0.00    +0.000 S 
ATOM     25  O   UNL     1      -2.695  14.519  20.514  0.00  0.00    +0.000 OA
ATOM     26  O   UNL     1      -3.773  12.260  20.066  0.00  0.00    +0.000 OA
ENDBRANCH   8  20
TORSDOF 2
ENDMDL
MODEL 4
REMARK VINA RESULT:      -6.7      1.936      3.205
REMARK  Name = 
REMARK  4 active torsions:
REMARK  status: ('A' for Active; 'I' for Inactive)
REMARK    1  A    between atoms: C_1  and  C_2
REMARK    2  A    between atoms: C_7  and  C_8
REMARK    3  A    between atoms: C_15  and  N_16
REMARK    4  A    between atoms: N_25  and  C_26
REMARK                            x       y       z     vdW  Elec       q    Type
REMARK                         _______ _______ _______ _____ _____    ______ ____
ROOT
ATOM      1  C   UNL     1       2.440   7.488  18.177  0.00  0.00    +0.000 A 
ATOM      2  N   UNL     1       2.444   8.291  17.135  0.00  0.00    +0.000 NA
ATOM      3  N   UNL     1       1.873   9.474  17.498  0.00  0.00    +0.000 NA
ATOM      4  C   UNL     1       1.547   9.422  18.772  0.00  0.00    +0.000 A 
ATOM      5  N   UNL     1       0.959  10.432  19.468  0.00  0.00    +0.000 N 
ATOM      6  C   UNL     1      -0.060  11.201  18.750  0.00  0.00    +0.000 C 
ATOM      7  C   UNL     1       0.051  12.675  19.105  0.00  0.00    +0.000 C 
ATOM      8  C   UNL     1      -0.030  12.901  20.617  0.00  0.00    +0.000 C 
ATOM      9  C   UNL     1       1.149  12.137  21.238  0.00  0.00    +0.000 C 
ATOM     10  C   UNL     1       1.096  10.650  20.898  0.00  0.00    +0.000 C 
ATOM     11  N   UNL     1       1.847   8.160  19.238  0.00  0.00    +0.000 N 
ATOM     12  C   UNL     1       1.513   7.566  20.505  0.00  0.00    +0.000 C 
ENDROOT
BRANCH   1  19
ATOM     13  C   UNL     1       5.312   7.013  17.512  0.00  0.00    +0.000 C 
ATOM     14  C   UNL     1       4.367   5.897  17.888  0.00  0.00    +0.000 A 
ATOM     15  C   UNL     1       4.866   4.583  17.909  0.00  0.00    +0.000 A 
ATOM     16  C   UNL     1       4.048   3.509  18.253  0.00  0.00    +0.000 A 
ATOM     17  C   UNL     1       2.708   3.725  18.536  0.00  0.00    +0.000 A 
ATOM     18  C   UNL     1       2.189   5.016  18.469  0.00  0.00    +0.000 A 
ATOM     19  C   UNL     1       3.004   6.125  18.186  0.00  0.00    +0.000 A 
ENDBRANCH   1  19
BRANCH   8  20
ATOM     20  N   UNL     1      -1.315  12.455  21.262  0.00  0.00    +0.000 NA
ATOM     21  C   UNL     1      -1.217  12.131  22.711  0.00  0.00    +0.000 C 
ATOM     22  C   UNL     1      -2.648  12.044  23.233  0.00  0.00    +0.000 C 
ATOM     23  C   UNL     1      -3.398  13.195  22.603  0.00  0.00    +0.000 C 
ATOM     24  S   UNL     1      -2.797  13.255  20.930  0.00  0.00    +0.000 S 
ATOM     25  O   UNL     1      -2.545  14.640  20.601  0.00  0.00    +0.000 OA
ATOM     26  O   UNL     1      -3.605  12.380  20.114  0.00  0.00    +0.000 OA
ENDBRANCH   8  20
TORSDOF 2
ENDMDL
MODEL 5
REMARK VINA RESULT:      -6.7      1.726      1.847
REMARK  Name = 
REMARK  4 active torsions:
REMARK  status: ('A' for Active; 'I' for Inactive)
REMARK    1  A    between atoms: C_1  and  C_2
REMARK    2  A    between atoms: C_7  and  C_8
REMARK    3  A    between atoms: C_15  and  N_16
REMARK    4  A    between atoms: N_25  and  C_26
REMARK                            x       y       z     vdW  Elec       q    Type
REMARK                         _______ _______ _______ _____ _____    ______ ____
ROOT
ATOM      1  C   UNL     1       2.227   5.612  19.850  0.00  0.00    +0.000 A 
ATOM      2  N   UNL     1       1.521   5.701  20.955  0.00  0.00    +0.000 NA
ATOM      3  N   UNL     1       1.133   6.998  21.118  0.00  0.00    +0.000 NA
ATOM      4  C   UNL     1       1.566   7.708  20.098  0.00  0.00    +0.000 A 
ATOM      5  N   UNL     1       1.357   9.041  19.932  0.00  0.00    +0.000 N 
ATOM      6  C   UNL     1       1.429   9.861  21.144  0.00  0.00    +0.000 C 
ATOM      7  C   UNL     1       0.361  10.942  21.109  0.00  0.00    +0.000 C 
ATOM      8  C   UNL     1       0.458  11.795  19.842  0.00  0.00    +0.000 C 
ATOM      9  C   UNL     1       0.257  10.841  18.655  0.00  0.00    +0.000 C 
ATOM     10  C   UNL     1       1.297   9.723  18.651  0.00  0.00    +0.000 C 
ATOM     11  N   UNL     1       2.308   6.878  19.285  0.00  0.00    +0.000 N 
ATOM     12  C   UNL     1       3.127   7.224  18.154  0.00  0.00    +0.000 C 
ENDROOT
BRANCH   1  19
ATOM     13  C   UNL     1       1.076   4.316  17.417  0.00  0.00    +0.000 C 
ATOM     14  C   UNL     1       2.264   3.750  18.158  0.00  0.00    +0.000 A 
ATOM     15  C   UNL     1       2.835   2.557  17.683  0.00  0.00    +0.000 A 
ATOM     16  C   UNL     1       3.937   1.985  18.317  0.00  0.00    +0.000 A 
ATOM     17  C   UNL     1       4.455   2.572  19.461  0.00  0.00    +0.000 A 
ATOM     18  C   UNL     1       3.866   3.727  19.972  0.00  0.00    +0.000 A 
ATOM     19  C   UNL     1       2.795   4.359  19.318  0.00  0.00    +0.000 A 
ENDBRANCH   1  19
BRANCH   8  20
ATOM     20  N   UNL     1       1.754  12.543  19.674  0.00  0.00    +0.000 NA
ATOM     21  C   UNL     1       2.092  12.916  18.273  0.00  0.00    +0.000 C 
ATOM     22  C   UNL     1       3.223  13.936  18.358  0.00  0.00    +0.000 C 
ATOM     23  C   UNL     1       2.865  14.870  19.491  0.00  0.00    +0.000 C 
ATOM     24  S   UNL     1       2.194  13.807  20.749  0.00  0.00    +0.000 S 
ATOM     25  O   UNL     1       1.005  14.440  21.275  0.00  0.00    +0.000 OA
ATOM     26  O   UNL     1       3.273  13.330  21.581  0.00  0.00    +0.000 OA
ENDBRANCH   8  20
TORSDOF 2
ENDMDL
MODEL 6
REMARK VINA RESULT:      -6.7      1.384      2.131
REMARK  Name = 
REMARK  4 active torsions:
REMARK  status: ('A' for Active; 'I' for Inactive)
REMARK    1  A    between atoms: C_1  and  C_2
REMARK    2  A    between atoms: C_7  and  C_8
REMARK    3  A    between atoms: C_15  and  N_16
REMARK    4  A    between atoms: N_25  and  C_26
REMARK                            x       y       z     vdW  Elec       q    Type
REMARK                         _______ _______ _______ _____ _____    ______ ____
ROOT
ATOM      1  C   UNL     1       3.957   6.042  18.291  0.00  0.00    +0.000 A 
ATOM      2  N   UNL     1       3.412   5.571  19.392  0.00  0.00    +0.000 NA
ATOM      3  N   UNL     1       2.482   6.465  19.833  0.00  0.00    +0.000 NA
ATOM      4  C   UNL     1       2.421   7.473  18.989  0.00  0.00    +0.000 A 
ATOM      5  N   UNL     1       1.596   8.547  19.116  0.00  0.00    +0.000 N 
ATOM      6  C   UNL     1       1.405   9.055  20.476  0.00  0.00    +0.000 C 
ATOM      7  C   UNL     1      -0.042   9.475  20.679  0.00  0.00    +0.000 C 
ATOM      8  C   UNL     1      -0.490  10.492  19.627  0.00  0.00    +0.000 C 
ATOM      9  C   UNL     1      -0.346   9.802  18.262  0.00  0.00    +0.000 C 
ATOM     10  C   UNL     1       1.089   9.344  18.013  0.00  0.00    +0.000 C 
ATOM     11  N   UNL     1       3.374   7.272  18.013  0.00  0.00    +0.000 N 
ATOM     12  C   UNL     1       3.812   8.175  16.983  0.00  0.00    +0.000 C 
ENDROOT
BRANCH   1  19
ATOM     13  C   UNL     1       6.745   5.742  19.320  0.00  0.00    +0.000 C 
ATOM     14  C   UNL     1       6.301   5.182  17.989  0.00  0.00    +0.000 A 
ATOM     15  C   UNL     1       7.252   4.506  17.204  0.00  0.00    +0.000 A 
ATOM     16  C   UNL     1       6.906   3.960  15.969  0.00  0.00    +0.000 A 
ATOM     17  C   UNL     1       5.619   4.122  15.479  0.00  0.00    +0.000 A 
ATOM     18  C   UNL     1       4.682   4.834  16.224  0.00  0.00    +0.000 A 
ATOM     19  C   UNL     1       4.985   5.341  17.499  0.00  0.00    +0.000 A 
ENDBRANCH   1  19
BRANCH   8  20
ATOM     20  N   UNL     1       0.279  11.786  19.621  0.00  0.00    +0.000 NA
ATOM     21  C   UNL     1      -0.158  12.777  18.600  0.00  0.00    +0.000 C 
ATOM     22  C   UNL     1       0.489  14.105  18.981  0.00  0.00    +0.000 C 
ATOM     23  C   UNL     1       0.361  14.222  20.483  0.00  0.00    +0.000 C 
ATOM     24  S   UNL     1       0.687  12.582  21.087  0.00  0.00    +0.000 S 
ATOM     25  O   UNL     1      -0.299  12.279  22.100  0.00  0.00    +0.000 OA
ATOM     26  O   UNL     1       2.108  12.435  21.294  0.00  0.00    +0.000 OA
ENDBRANCH   8  20
TORSDOF 2
ENDMDL
MODEL 7
REMARK VINA RESULT:      -6.5      7.299     10.734
REMARK  Name = 
REMARK  4 active torsions:
REMARK  status: ('A' for Active; 'I' for Inactive)
REMARK    1  A    between atoms: C_1  and  C_2
REMARK    2  A    between atoms: C_7  and  C_8
REMARK    3  A    between atoms: C_15  and  N_16
REMARK    4  A    between atoms: N_25  and  C_26
REMARK                            x       y       z     vdW  Elec       q    Type
REMARK                         _______ _______ _______ _____ _____    ______ ____
ROOT
ATOM      1  C   UNL     1       3.181  17.129  18.900  0.00  0.00    +0.000 A 
ATOM      2  N   UNL     1       3.751  17.828  19.858  0.00  0.00    +0.000 NA
ATOM      3  N   UNL     1       5.023  17.367  20.032  0.00  0.00    +0.000 NA
ATOM      4  C   UNL     1       5.256  16.410  19.160  0.00  0.00    +0.000 A 
ATOM      5  N   UNL     1       6.427  15.727  19.046  0.00  0.00    +0.000 N 
ATOM      6  C   UNL     1       7.106  15.400  20.303  0.00  0.00    +0.000 C 
ATOM      7  C   UNL     1       8.609  15.559  20.141  0.00  0.00    +0.000 C 
ATOM      8  C   UNL     1       9.145  14.725  18.974  0.00  0.00    +0.000 C 
ATOM      9  C   UNL     1       8.440  15.238  17.710  0.00  0.00    +0.000 C 
ATOM     10  C   UNL     1       6.922  15.116  17.825  0.00  0.00    +0.000 C 
ATOM     11  N   UNL     1       4.097  16.190  18.446  0.00  0.00    +0.000 N 
ATOM     12  C   UNL     1       3.801  15.135  17.515  0.00  0.00    +0.000 C 
ENDROOT
BRANCH   1  19
ATOM     13  C   UNL     1       0.839  15.801  20.194  0.00  0.00    +0.000 C 
ATOM     14  C   UNL     1       0.698  16.741  19.021  0.00  0.00    +0.000 A 
ATOM     15  C   UNL     1      -0.592  16.984  18.517  0.00  0.00    +0.000 A 
ATOM     16  C   UNL     1      -0.791  17.846  17.440  0.00  0.00    +0.000 A 
ATOM     17  C   UNL     1       0.297  18.442  16.823  0.00  0.00    +0.000 A 
ATOM     18  C   UNL     1       1.584  18.170  17.280  0.00  0.00    +0.000 A 
ATOM     19  C   UNL     1       1.811  17.355  18.402  0.00  0.00    +0.000 A 
ENDBRANCH   1  19
BRANCH   8  20
ATOM     20  N   UNL     1       8.936  13.240  19.101  0.00  0.00    +0.000 NA
ATOM     21  C   UNL     1       9.045  12.475  17.829  0.00  0.00    +0.000 C 
ATOM     22  C   UNL     1       9.147  11.002  18.218  0.00  0.00    +0.000 C 
ATOM     23  C   UNL     1      10.083  10.943  19.403  0.00  0.00    +0.000 C 
ATOM     24  S   UNL     1       9.639  12.353  20.392  0.00  0.00    +0.000 S 
ATOM     25  O   UNL     1      10.862  12.995  20.820  0.00  0.00    +0.000 OA
ATOM     26  O   UNL     1       8.584  11.972  21.300  0.00  0.00    +0.000 OA
ENDBRANCH   8  20
TORSDOF 2
ENDMDL
MODEL 8
REMARK VINA RESULT:      -6.3      4.249      8.448
REMARK  Name = 
REMARK  4 active torsions:
REMARK  status: ('A' for Active; 'I' for Inactive)
REMARK    1  A    between atoms: C_1  and  C_2
REMARK    2  A    between atoms: C_7  and  C_8
REMARK    3  A    between atoms: C_15  and  N_16
REMARK    4  A    between atoms: N_25  and  C_26
REMARK                            x       y       z     vdW  Elec       q    Type
REMARK                         _______ _______ _______ _____ _____    ______ ____
ROOT
ATOM      1  C   UNL     1       0.835  10.452  20.095  0.00  0.00    +0.000 A 
ATOM      2  N   UNL     1       0.615  10.040  21.325  0.00  0.00    +0.000 NA
ATOM      3  N   UNL     1       1.049   8.753  21.435  0.00  0.00    +0.000 NA
ATOM      4  C   UNL     1       1.572   8.375  20.288  0.00  0.00    +0.000 A 
ATOM      5  N   UNL     1       2.107   7.150  20.041  0.00  0.00    +0.000 N 
ATOM      6  C   UNL     1       1.412   6.010  20.643  0.00  0.00    +0.000 C 
ATOM      7  C   UNL     1       2.419   4.987  21.143  0.00  0.00    +0.000 C 
ATOM      8  C   UNL     1       3.375   4.544  20.032  0.00  0.00    +0.000 C 
ATOM      9  C   UNL     1       4.118   5.805  19.565  0.00  0.00    +0.000 C 
ATOM     10  C   UNL     1       3.149   6.875  19.068  0.00  0.00    +0.000 C 
ATOM     11  N   UNL     1       1.417   9.408  19.388  0.00  0.00    +0.000 N 
ATOM     12  C   UNL     1       1.663   9.410  17.971  0.00  0.00    +0.000 C 
ENDROOT
BRANCH   1  19
ATOM     13  C   UNL     1      -1.700  11.006  18.615  0.00  0.00    +0.000 C 
ATOM     14  C   UNL     1      -0.678  12.077  18.911  0.00  0.00    +0.000 A 
ATOM     15  C   UNL     1      -0.933  13.382  18.455  0.00  0.00    +0.000 A 
ATOM     16  C   UNL     1      -0.033  14.417  18.700  0.00  0.00    +0.000 A 
ATOM     17  C   UNL     1       1.156  14.156  19.364  0.00  0.00    +0.000 A 
ATOM     18  C   UNL     1       1.444  12.856  19.776  0.00  0.00    +0.000 A 
ATOM     19  C   UNL     1       0.528  11.806  19.598  0.00  0.00    +0.000 A 
ENDBRANCH   1  19
BRANCH   8  20
ATOM     20  N   UNL     1       2.719   3.879  18.852  0.00  0.00    +0.000 NA
ATOM     21  C   UNL     1       3.560   3.792  17.626  0.00  0.00    +0.000 C 
ATOM     22  C   UNL     1       2.864   2.807  16.692  0.00  0.00    +0.000 C 
ATOM     23  C   UNL     1       2.392   1.663  17.561  0.00  0.00    +0.000 C 
ATOM     24  S   UNL     1       1.795   2.446  19.042  0.00  0.00    +0.000 S 
ATOM     25  O   UNL     1       2.288   1.690  20.171  0.00  0.00    +0.000 OA
ATOM     26  O   UNL     1       0.403   2.784  18.861  0.00  0.00    +0.000 OA
ENDBRANCH   8  20
TORSDOF 2
ENDMDL
MODEL 9
REMARK VINA RESULT:      -6.2      1.898      3.144
REMARK  Name = 
REMARK  4 active torsions:
REMARK  status: ('A' for Active; 'I' for Inactive)
REMARK    1  A    between atoms: C_1  and  C_2
REMARK    2  A    between atoms: C_7  and  C_8
REMARK    3  A    between atoms: C_15  and  N_16
REMARK    4  A    between atoms: N_25  and  C_26
REMARK                            x       y       z     vdW  Elec       q    Type
REMARK                         _______ _______ _______ _____ _____    ______ ____
ROOT
ATOM      1  C   UNL     1       2.463   6.496  18.431  0.00  0.00    +0.000 A 
ATOM      2  N   UNL     1       2.706   7.293  17.413  0.00  0.00    +0.000 NA
ATOM      3  N   UNL     1       2.274   8.546  17.731  0.00  0.00    +0.000 NA
ATOM      4  C   UNL     1       1.797   8.538  18.958  0.00  0.00    +0.000 A 
ATOM      5  N   UNL     1       1.284   9.621  19.601  0.00  0.00    +0.000 N 
ATOM      6  C   UNL     1       0.479  10.534  18.785  0.00  0.00    +0.000 C 
ATOM      7  C   UNL     1       0.760  11.974  19.181  0.00  0.00    +0.000 C 
ATOM      8  C   UNL     1       0.535  12.205  20.677  0.00  0.00    +0.000 C 
ATOM      9  C   UNL     1       1.509  11.275  21.415  0.00  0.00    +0.000 C 
ATOM     10  C   UNL     1       1.281   9.812  21.040  0.00  0.00    +0.000 C 
ATOM     11  N   UNL     1       1.853   7.244  19.429  0.00  0.00    +0.000 N 
ATOM     12  C   UNL     1       1.290   6.701  20.636  0.00  0.00    +0.000 C 
ENDROOT
BRANCH   1  19
ATOM     13  C   UNL     1       5.175   5.617  19.321  0.00  0.00    +0.000 C 
ATOM     14  C   UNL     1       4.096   4.644  18.913  0.00  0.00    +0.000 A 
ATOM     15  C   UNL     1       4.394   3.270  18.945  0.00  0.00    +0.000 A 
ATOM     16  C   UNL     1       3.441   2.319  18.586  0.00  0.00    +0.000 A 
ATOM     17  C   UNL     1       2.191   2.727  18.148  0.00  0.00    +0.000 A 
ATOM     18  C   UNL     1       1.899   4.087  18.064  0.00  0.00    +0.000 A 
ATOM     19  C   UNL     1       2.819   5.065  18.477  0.00  0.00    +0.000 A 
ENDBRANCH   1  19
BRANCH   8  20
ATOM     20  N   UNL     1      -0.868  11.950  21.159  0.00  0.00    +0.000 NA
ATOM     21  C   UNL     1      -1.009  11.773  22.630  0.00  0.00    +0.000 C 
ATOM     22  C   UNL     1      -2.501  11.874  22.937  0.00  0.00    +0.000 C 
ATOM     23  C   UNL     1      -3.027  13.017  22.099  0.00  0.00    +0.000 C 
ATOM     24  S   UNL     1      -2.195  12.844  20.537  0.00  0.00    +0.000 S 
ATOM     25  O   UNL     1      -1.752  14.157  20.124  0.00  0.00    +0.000 OA
ATOM     26  O   UNL     1      -2.969  11.966  19.692  0.00  0.00    +0.000 OA
ENDBRANCH   8  20
TORSDOF 2
ENDMDL
