MODEL 1
REMARK VINA RESULT:      -7.4      0.000      0.000
REMARK  Name = 
REMARK  9 active torsions:
REMARK  status: ('A' for Active; 'I' for Inactive)
REMARK    1  A    between atoms: C_1  and  C_2
REMARK    2  A    between atoms: C_2  and  O_3
REMARK    3  A    between atoms: O_3  and  C_4
REMARK    4  A    between atoms: C_4  and  C_6
REMARK    5  A    between atoms: C_8  and  C_9
REMARK    6  A    between atoms: C_9  and  C_11
REMARK    7  A    between atoms: C_12  and  C_13
REMARK    8  A    between atoms: C_23  and  O_24
REMARK    9  A    between atoms: O_24  and  C_25
REMARK                            x       y       z     vdW  Elec       q    Type
REMARK                         _______ _______ _______ _____ _____    ______ ____
ROOT
ATOM      1  C   UNL     1       4.332   5.284  17.765  0.00  0.00    +0.000 A 
ATOM      2  C   UNL     1       5.294   5.650  18.738  0.00  0.00    +0.000 A 
ATOM      3  C   UNL     1       6.579   5.522  18.221  0.00  0.00    +0.000 A 
ATOM      4  N   UNL     1       6.421   5.093  16.900  0.00  0.00    +0.000 N 
ATOM      5  C   UNL     1       7.371   4.827  15.899  0.00  0.00    +0.000 A 
ATOM      6  C   UNL     1       6.978   4.433  14.672  0.00  0.00    +0.000 A 
ATOM      7  C   UNL     1       5.559   4.286  14.377  0.00  0.00    +0.000 A 
ATOM      8  C   UNL     1       4.645   4.534  15.337  0.00  0.00    +0.000 A 
ATOM      9  C   UNL     1       5.053   4.947  16.640  0.00  0.00    +0.000 A 
ENDROOT
BRANCH   1  10
ATOM     10  C   UNL     1       2.884   5.326  17.898  0.00  0.00    +0.000 C 
ATOM     11  O   UNL     1       2.234   6.348  18.076  0.00  0.00    +0.000 OA
BRANCH  10  12
ATOM     12  O   UNL     1       2.362   4.066  17.916  0.00  0.00    +0.000 OA
BRANCH  12  14
ATOM     13  C   UNL     1       0.888   2.437  18.838  0.00  0.00    +0.000 C 
ATOM     14  C   UNL     1       1.655   3.719  19.109  0.00  0.00    +0.000 C 
ENDBRANCH  12  14
ENDBRANCH  10  12
ENDBRANCH   1  10
BRANCH   3  15
ATOM     15  C   UNL     1       7.842   5.795  18.915  0.00  0.00    +0.000 C 
ATOM     16  O   UNL     1       8.574   4.922  19.371  0.00  0.00    +0.000 OA
BRANCH  15  17
ATOM     17  C   UNL     1       8.237   7.245  19.062  0.00  0.00    +0.000 C 
ATOM     18  C   UNL     1       8.095   8.162  18.094  0.00  0.00    +0.000 C 
BRANCH  18  19
ATOM     19  C   UNL     1       8.548   9.544  18.308  0.00  0.00    +0.000 A 
ATOM     20  C   UNL     1       9.408   9.845  19.373  0.00  0.00    +0.000 A 
ATOM     21  C   UNL     1       9.831  11.161  19.596  0.00  0.00    +0.000 A 
ATOM     22  C   UNL     1       9.390  12.180  18.756  0.00  0.00    +0.000 A 
ATOM     23 BR   UNL     1       9.971  13.956  19.049  0.00  0.00    +0.000 Br
ATOM     24  C   UNL     1       8.525  11.898  17.700  0.00  0.00    +0.000 A 
ATOM     25  C   UNL     1       8.102  10.582  17.479  0.00  0.00    +0.000 A 
ENDBRANCH  18  19
ENDBRANCH  15  17
ENDBRANCH   3  15
BRANCH   7  26
ATOM     26  O   UNL     1       5.293   3.896  13.081  0.00  0.00    +0.000 OA
ATOM     27  C   UNL     1       6.414   3.478  12.300  0.00  0.00    +0.000 C 
ENDBRANCH   7  26
TORSDOF 7
ENDMDL
MODEL 2
REMARK VINA RESULT:      -7.2      2.102      3.565
REMARK  Name = 
REMARK  9 active torsions:
REMARK  status: ('A' for Active; 'I' for Inactive)
REMARK    1  A    between atoms: C_1  and  C_2
REMARK    2  A    between atoms: C_2  and  O_3
REMARK    3  A    between atoms: O_3  and  C_4
REMARK    4  A    between atoms: C_4  and  C_6
REMARK    5  A    between atoms: C_8  and  C_9
REMARK    6  A    between atoms: C_9  and  C_11
REMARK    7  A    between atoms: C_12  and  C_13
REMARK    8  A    between atoms: C_23  and  O_24
REMARK    9  A    between atoms: O_24  and  C_25
REMARK                            x       y       z     vdW  Elec       q    Type
REMARK                         _______ _______ _______ _____ _____    ______ ____
ROOT
ATOM      1  C   UNL     1       3.307   7.125  18.215  0.00  0.00    +0.000 A 
ATOM      2  C   UNL     1       4.556   7.712  17.895  0.00  0.00    +0.000 A 
ATOM      3  C   UNL     1       5.433   6.748  17.408  0.00  0.00    +0.000 A 
ATOM      4  N   UNL     1       4.719   5.546  17.402  0.00  0.00    +0.000 N 
ATOM      5  C   UNL     1       5.092   4.256  16.989  0.00  0.00    +0.000 A 
ATOM      6  C   UNL     1       4.215   3.235  17.060  0.00  0.00    +0.000 A 
ATOM      7  C   UNL     1       2.868   3.470  17.564  0.00  0.00    +0.000 A 
ATOM      8  C   UNL     1       2.509   4.705  17.967  0.00  0.00    +0.000 A 
ATOM      9  C   UNL     1       3.433   5.789  17.899  0.00  0.00    +0.000 A 
ENDROOT
BRANCH   1  10
ATOM     10  C   UNL     1       2.116   7.803  18.702  0.00  0.00    +0.000 C 
ATOM     11  O   UNL     1       1.665   7.685  19.835  0.00  0.00    +0.000 OA
BRANCH  10  12
ATOM     12  O   UNL     1       1.505   8.493  17.697  0.00  0.00    +0.000 OA
BRANCH  12  14
ATOM     13  C   UNL     1       1.923  10.794  18.155  0.00  0.00    +0.000 C 
ATOM     14  C   UNL     1       0.864   9.707  18.098  0.00  0.00    +0.000 C 
ENDBRANCH  12  14
ENDBRANCH  10  12
ENDBRANCH   1  10
BRANCH   3  15
ATOM     15  C   UNL     1       6.820   6.952  16.978  0.00  0.00    +0.000 C 
ATOM     16  O   UNL     1       7.479   6.113  16.371  0.00  0.00    +0.000 OA
BRANCH  15  17
ATOM     17  C   UNL     1       7.448   8.282  17.317  0.00  0.00    +0.000 C 
ATOM     18  C   UNL     1       8.320   8.465  18.321  0.00  0.00    +0.000 C 
BRANCH  18  19
ATOM     19  C   UNL     1       8.849   9.805  18.610  0.00  0.00    +0.000 A 
ATOM     20  C   UNL     1       9.414  10.082  19.862  0.00  0.00    +0.000 A 
ATOM     21  C   UNL     1       9.905  11.360  20.156  0.00  0.00    +0.000 A 
ATOM     22  C   UNL     1       9.828  12.366  19.197  0.00  0.00    +0.000 A 
ATOM     23 BR   UNL     1      10.503  14.089  19.586  0.00  0.00    +0.000 Br
ATOM     24  C   UNL     1       9.259  12.110  17.951  0.00  0.00    +0.000 A 
ATOM     25  C   UNL     1       8.767  10.831  17.659  0.00  0.00    +0.000 A 
ENDBRANCH  18  19
ENDBRANCH  15  17
ENDBRANCH   3  15
BRANCH   7  26
ATOM     26  O   UNL     1       2.068   2.347  17.566  0.00  0.00    +0.000 OA
ATOM     27  C   UNL     1       1.155   2.218  18.657  0.00  0.00    +0.000 C 
ENDBRANCH   7  26
TORSDOF 7
ENDMDL
MODEL 3
REMARK VINA RESULT:      -7.2      5.070      7.044
REMARK  Name = 
REMARK  9 active torsions:
REMARK  status: ('A' for Active; 'I' for Inactive)
REMARK    1  A    between atoms: C_1  and  C_2
REMARK    2  A    between atoms: C_2  and  O_3
REMARK    3  A    between atoms: O_3  and  C_4
REMARK    4  A    between atoms: C_4  and  C_6
REMARK    5  A    between atoms: C_8  and  C_9
REMARK    6  A    between atoms: C_9  and  C_11
REMARK    7  A    between atoms: C_12  and  C_13
REMARK    8  A    between atoms: C_23  and  O_24
REMARK    9  A    between atoms: O_24  and  C_25
REMARK                            x       y       z     vdW  Elec       q    Type
REMARK                         _______ _______ _______ _____ _____    ______ ____
ROOT
ATOM      1  C   UNL     1       2.377   4.565  18.224  0.00  0.00    +0.000 A 
ATOM      2  C   UNL     1       1.848   5.844  18.525  0.00  0.00    +0.000 A 
ATOM      3  C   UNL     1       2.623   6.838  17.937  0.00  0.00    +0.000 A 
ATOM      4  N   UNL     1       3.638   6.174  17.241  0.00  0.00    +0.000 N 
ATOM      5  C   UNL     1       4.684   6.670  16.446  0.00  0.00    +0.000 A 
ATOM      6  C   UNL     1       5.548   5.825  15.848  0.00  0.00    +0.000 A 
ATOM      7  C   UNL     1       5.393   4.387  16.022  0.00  0.00    +0.000 A 
ATOM      8  C   UNL     1       4.393   3.908  16.790  0.00  0.00    +0.000 A 
ATOM      9  C   UNL     1       3.478   4.796  17.429  0.00  0.00    +0.000 A 
ENDROOT
BRANCH   1  10
ATOM     10  C   UNL     1       1.829   3.273  18.610  0.00  0.00    +0.000 C 
ATOM     11  O   UNL     1       2.053   2.222  18.023  0.00  0.00    +0.000 OA
BRANCH  10  12
ATOM     12  O   UNL     1       0.945   3.409  19.639  0.00  0.00    +0.000 OA
BRANCH  12  14
ATOM     13  C   UNL     1       2.194   3.584  21.661  0.00  0.00    +0.000 C 
ATOM     14  C   UNL     1       1.286   2.694  20.830  0.00  0.00    +0.000 C 
ENDBRANCH  12  14
ENDBRANCH  10  12
ENDBRANCH   1  10
BRANCH   3  15
ATOM     15  C   UNL     1       2.413   8.287  18.021  0.00  0.00    +0.000 C 
ATOM     16  O   UNL     1       3.315   9.101  18.192  0.00  0.00    +0.000 OA
BRANCH  15  17
ATOM     17  C   UNL     1       0.991   8.776  17.885  0.00  0.00    +0.000 C 
ATOM     18  C   UNL     1       0.576   9.990  18.276  0.00  0.00    +0.000 C 
BRANCH  18  19
ATOM     19  C   UNL     1      -0.838  10.370  18.148  0.00  0.00    +0.000 A 
ATOM     20  C   UNL     1      -1.645   9.755  17.180  0.00  0.00    +0.000 A 
ATOM     21  C   UNL     1      -2.989  10.122  17.036  0.00  0.00    +0.000 A 
ATOM     22  C   UNL     1      -3.528  11.109  17.858  0.00  0.00    +0.000 A 
ATOM     23 BR   UNL     1      -5.345  11.596  17.675  0.00  0.00    +0.000 Br
ATOM     24  C   UNL     1      -2.734  11.737  18.817  0.00  0.00    +0.000 A 
ATOM     25  C   UNL     1      -1.390  11.370  18.958  0.00  0.00    +0.000 A 
ENDBRANCH  18  19
ENDBRANCH  15  17
ENDBRANCH   3  15
BRANCH   7  26
ATOM     26  O   UNL     1       6.329   3.637  15.343  0.00  0.00    +0.000 OA
ATOM     27  C   UNL     1       6.675   4.085  14.031  0.00  0.00    +0.000 C 
ENDBRANCH   7  26
TORSDOF 7
ENDMDL
MODEL 4
REMARK VINA RESULT:      -7.2      1.237      4.029
REMARK  Name = 
REMARK  9 active torsions:
REMARK  status: ('A' for Active; 'I' for Inactive)
REMARK    1  A    between atoms: C_1  and  C_2
REMARK    2  A    between atoms: C_2  and  O_3
REMARK    3  A    between atoms: O_3  and  C_4
REMARK    4  A    between atoms: C_4  and  C_6
REMARK    5  A    between atoms: C_8  and  C_9
REMARK    6  A    between atoms: C_9  and  C_11
REMARK    7  A    between atoms: C_12  and  C_13
REMARK    8  A    between atoms: C_23  and  O_24
REMARK    9  A    between atoms: O_24  and  C_25
REMARK                            x       y       z     vdW  Elec       q    Type
REMARK                         _______ _______ _______ _____ _____    ______ ____
ROOT
ATOM      1  C   UNL     1       6.653   5.132  15.274  0.00  0.00    +0.000 A 
ATOM      2  C   UNL     1       7.586   5.885  16.029  0.00  0.00    +0.000 A 
ATOM      3  C   UNL     1       7.133   6.049  17.334  0.00  0.00    +0.000 A 
ATOM      4  N   UNL     1       5.911   5.372  17.405  0.00  0.00    +0.000 N 
ATOM      5  C   UNL     1       5.026   5.182  18.479  0.00  0.00    +0.000 A 
ATOM      6  C   UNL     1       3.896   4.465  18.315  0.00  0.00    +0.000 A 
ATOM      7  C   UNL     1       3.592   3.879  17.016  0.00  0.00    +0.000 A 
ATOM      8  C   UNL     1       4.436   4.065  15.982  0.00  0.00    +0.000 A 
ATOM      9  C   UNL     1       5.631   4.826  16.147  0.00  0.00    +0.000 A 
ENDROOT
BRANCH   1  10
ATOM     10  C   UNL     1       6.782   4.705  13.889  0.00  0.00    +0.000 C 
ATOM     11  O   UNL     1       7.518   5.234  13.066  0.00  0.00    +0.000 OA
BRANCH  10  12
ATOM     12  O   UNL     1       5.889   3.715  13.603  0.00  0.00    +0.000 OA
BRANCH  12  14
ATOM     13  C   UNL     1       4.515   3.274  11.706  0.00  0.00    +0.000 C 
ATOM     14  C   UNL     1       5.930   3.233  12.257  0.00  0.00    +0.000 C 
ENDBRANCH  12  14
ENDBRANCH  10  12
ENDBRANCH   1  10
BRANCH   3  15
ATOM     15  C   UNL     1       7.804   6.774  18.418  0.00  0.00    +0.000 C 
ATOM     16  O   UNL     1       8.038   6.291  19.521  0.00  0.00    +0.000 OA
BRANCH  15  17
ATOM     17  C   UNL     1       8.218   8.197  18.129  0.00  0.00    +0.000 C 
ATOM     18  C   UNL     1       8.836   8.991  19.016  0.00  0.00    +0.000 C 
BRANCH  18  19
ATOM     19  C   UNL     1       9.164  10.380  18.666  0.00  0.00    +0.000 A 
ATOM     20  C   UNL     1       8.266  11.146  17.910  0.00  0.00    +0.000 A 
ATOM     21  C   UNL     1       8.577  12.465  17.555  0.00  0.00    +0.000 A 
ATOM     22  C   UNL     1       9.791  13.019  17.953  0.00  0.00    +0.000 A 
ATOM     23 BR   UNL     1      10.207  14.804  17.486  0.00  0.00    +0.000 Br
ATOM     24  C   UNL     1      10.700  12.266  18.694  0.00  0.00    +0.000 A 
ATOM     25  C   UNL     1      10.388  10.947  19.047  0.00  0.00    +0.000 A 
ENDBRANCH  18  19
ENDBRANCH  15  17
ENDBRANCH   3  15
BRANCH   7  26
ATOM     26  O   UNL     1       2.418   3.157  16.990  0.00  0.00    +0.000 OA
ATOM     27  C   UNL     1       2.116   2.387  18.154  0.00  0.00    +0.000 C 
ENDBRANCH   7  26
TORSDOF 7
ENDMDL
MODEL 5
REMARK VINA RESULT:      -7.2      7.020      9.646
REMARK  Name = 
REMARK  9 active torsions:
REMARK  status: ('A' for Active; 'I' for Inactive)
REMARK    1  A    between atoms: C_1  and  C_2
REMARK    2  A    between atoms: C_2  and  O_3
REMARK    3  A    between atoms: O_3  and  C_4
REMARK    4  A    between atoms: C_4  and  C_6
REMARK    5  A    between atoms: C_8  and  C_9
REMARK    6  A    between atoms: C_9  and  C_11
REMARK    7  A    between atoms: C_12  and  C_13
REMARK    8  A    between atoms: C_23  and  O_24
REMARK    9  A    between atoms: O_24  and  C_25
REMARK                            x       y       z     vdW  Elec       q    Type
REMARK                         _______ _______ _______ _____ _____    ______ ____
ROOT
ATOM      1  C   UNL     1      -0.321  11.855  20.658  0.00  0.00    +0.000 A 
ATOM      2  C   UNL     1       0.922  11.355  20.199  0.00  0.00    +0.000 A 
ATOM      3  C   UNL     1       0.767  10.733  18.965  0.00  0.00    +0.000 A 
ATOM      4  N   UNL     1      -0.585  10.863  18.635  0.00  0.00    +0.000 N 
ATOM      5  C   UNL     1      -1.298  10.448  17.499  0.00  0.00    +0.000 A 
ATOM      6  C   UNL     1      -2.617  10.702  17.389  0.00  0.00    +0.000 A 
ATOM      7  C   UNL     1      -3.308  11.417  18.454  0.00  0.00    +0.000 A 
ATOM      8  C   UNL     1      -2.628  11.810  19.549  0.00  0.00    +0.000 A 
ATOM      9  C   UNL     1      -1.233  11.541  19.675  0.00  0.00    +0.000 A 
ENDROOT
BRANCH   1  10
ATOM     10  C   UNL     1      -0.571  12.610  21.877  0.00  0.00    +0.000 C 
ATOM     11  O   UNL     1      -0.883  13.794  21.908  0.00  0.00    +0.000 OA
BRANCH  10  12
ATOM     12  O   UNL     1      -0.298  11.855  22.979  0.00  0.00    +0.000 OA
BRANCH  12  14
ATOM     13  C   UNL     1      -0.184   9.496  23.298  0.00  0.00    +0.000 C 
ATOM     14  C   UNL     1      -1.110  10.688  23.131  0.00  0.00    +0.000 C 
ENDBRANCH  12  14
ENDBRANCH  10  12
ENDBRANCH   1  10
BRANCH   3  15
ATOM     15  C   UNL     1       1.812  10.082  18.167  0.00  0.00    +0.000 C 
ATOM     16  O   UNL     1       2.537  10.676  17.375  0.00  0.00    +0.000 OA
BRANCH  15  17
ATOM     17  C   UNL     1       1.980   8.593  18.351  0.00  0.00    +0.000 C 
ATOM     18  C   UNL     1       2.996   7.885  17.838  0.00  0.00    +0.000 C 
BRANCH  18  19
ATOM     19  C   UNL     1       3.059   6.429  18.028  0.00  0.00    +0.000 A 
ATOM     20  C   UNL     1       4.292   5.802  18.255  0.00  0.00    +0.000 A 
ATOM     21  C   UNL     1       4.366   4.414  18.419  0.00  0.00    +0.000 A 
ATOM     22  C   UNL     1       3.205   3.648  18.353  0.00  0.00    +0.000 A 
ATOM     23 BR   UNL     1       3.301   1.774  18.588  0.00  0.00    +0.000 Br
ATOM     24  C   UNL     1       1.973   4.255  18.116  0.00  0.00    +0.000 A 
ATOM     25  C   UNL     1       1.901   5.644  17.951  0.00  0.00    +0.000 A 
ENDBRANCH  18  19
ENDBRANCH  15  17
ENDBRANCH   3  15
BRANCH   7  26
ATOM     26  O   UNL     1      -4.649  11.627  18.208  0.00  0.00    +0.000 OA
ATOM     27  C   UNL     1      -5.029  11.783  16.840  0.00  0.00    +0.000 C 
ENDBRANCH   7  26
TORSDOF 7
ENDMDL
MODEL 6
REMARK VINA RESULT:      -7.1      6.885      9.796
REMARK  Name = 
REMARK  9 active torsions:
REMARK  status: ('A' for Active; 'I' for Inactive)
REMARK    1  A    between atoms: C_1  and  C_2
REMARK    2  A    between atoms: C_2  and  O_3
REMARK    3  A    between atoms: O_3  and  C_4
REMARK    4  A    between atoms: C_4  and  C_6
REMARK    5  A    between atoms: C_8  and  C_9
REMARK    6  A    between atoms: C_9  and  C_11
REMARK    7  A    between atoms: C_12  and  C_13
REMARK    8  A    between atoms: C_23  and  O_24
REMARK    9  A    between atoms: O_24  and  C_25
REMARK                            x       y       z     vdW  Elec       q    Type
REMARK                         _______ _______ _______ _____ _____    ______ ____
ROOT
ATOM      1  C   UNL     1      -1.288  11.362  18.934  0.00  0.00    +0.000 A 
ATOM      2  C   UNL     1      -0.983  10.271  19.786  0.00  0.00    +0.000 A 
ATOM      3  C   UNL     1       0.186  10.524  20.495  0.00  0.00    +0.000 A 
ATOM      4  N   UNL     1       0.609  11.797  20.102  0.00  0.00    +0.000 N 
ATOM      5  C   UNL     1       1.709  12.568  20.511  0.00  0.00    +0.000 A 
ATOM      6  C   UNL     1       1.910  13.798  19.998  0.00  0.00    +0.000 A 
ATOM      7  C   UNL     1       0.978  14.335  19.015  0.00  0.00    +0.000 A 
ATOM      8  C   UNL     1      -0.075  13.594  18.615  0.00  0.00    +0.000 A 
ATOM      9  C   UNL     1      -0.292  12.290  19.150  0.00  0.00    +0.000 A 
ENDROOT
BRANCH   1  10
ATOM     10  C   UNL     1      -2.448  11.506  18.069  0.00  0.00    +0.000 C 
ATOM     11  O   UNL     1      -3.585  11.732  18.465  0.00  0.00    +0.000 OA
BRANCH  10  12
ATOM     12  O   UNL     1      -2.121  11.243  16.771  0.00  0.00    +0.000 OA
BRANCH  12  14
ATOM     13  C   UNL     1      -2.998  10.166  14.835  0.00  0.00    +0.000 C 
ATOM     14  C   UNL     1      -2.568   9.977  16.279  0.00  0.00    +0.000 C 
ENDBRANCH  12  14
ENDBRANCH  10  12
ENDBRANCH   1  10
BRANCH   3  15
ATOM     15  C   UNL     1       0.837   9.639  21.468  0.00  0.00    +0.000 C 
ATOM     16  O   UNL     1       1.140   9.980  22.607  0.00  0.00    +0.000 OA
BRANCH  15  17
ATOM     17  C   UNL     1       1.142   8.233  21.010  0.00  0.00    +0.000 C 
ATOM     18  C   UNL     1       1.949   7.939  19.981  0.00  0.00    +0.000 C 
BRANCH  18  19
ATOM     19  C   UNL     1       2.156   6.542  19.574  0.00  0.00    +0.000 A 
ATOM     20  C   UNL     1       2.563   6.244  18.266  0.00  0.00    +0.000 A 
ATOM     21  C   UNL     1       2.745   4.915  17.863  0.00  0.00    +0.000 A 
ATOM     22  C   UNL     1       2.516   3.881  18.766  0.00  0.00    +0.000 A 
ATOM     23 BR   UNL     1       2.774   2.087  18.227  0.00  0.00    +0.000 Br
ATOM     24  C   UNL     1       2.099   4.161  20.066  0.00  0.00    +0.000 A 
ATOM     25  C   UNL     1       1.916   5.490  20.468  0.00  0.00    +0.000 A 
ENDBRANCH  18  19
ENDBRANCH  15  17
ENDBRANCH   3  15
BRANCH   7  26
ATOM     26  O   UNL     1       1.289  15.608  18.586  0.00  0.00    +0.000 OA
ATOM     27  C   UNL     1       2.654  15.849  18.244  0.00  0.00    +0.000 C 
ENDBRANCH   7  26
TORSDOF 7
ENDMDL
MODEL 7
REMARK VINA RESULT:      -7.1      4.997      6.892
REMARK  Name = 
REMARK  9 active torsions:
REMARK  status: ('A' for Active; 'I' for Inactive)
REMARK    1  A    between atoms: C_1  and  C_2
REMARK    2  A    between atoms: C_2  and  O_3
REMARK    3  A    between atoms: O_3  and  C_4
REMARK    4  A    between atoms: C_4  and  C_6
REMARK    5  A    between atoms: C_8  and  C_9
REMARK    6  A    between atoms: C_9  and  C_11
REMARK    7  A    between atoms: C_12  and  C_13
REMARK    8  A    between atoms: C_23  and  O_24
REMARK    9  A    between atoms: O_24  and  C_25
REMARK                            x       y       z     vdW  Elec       q    Type
REMARK                         _______ _______ _______ _____ _____    ______ ____
ROOT
ATOM      1  C   UNL     1       2.559   4.528  18.120  0.00  0.00    +0.000 A 
ATOM      2  C   UNL     1       2.035   5.796  18.473  0.00  0.00    +0.000 A 
ATOM      3  C   UNL     1       2.792   6.809  17.893  0.00  0.00    +0.000 A 
ATOM      4  N   UNL     1       3.788   6.170  17.150  0.00  0.00    +0.000 N 
ATOM      5  C   UNL     1       4.812   6.692  16.342  0.00  0.00    +0.000 A 
ATOM      6  C   UNL     1       5.660   5.868  15.696  0.00  0.00    +0.000 A 
ATOM      7  C   UNL     1       5.513   4.425  15.832  0.00  0.00    +0.000 A 
ATOM      8  C   UNL     1       4.537   3.920  16.612  0.00  0.00    +0.000 A 
ATOM      9  C   UNL     1       3.637   4.786  17.302  0.00  0.00    +0.000 A 
ENDROOT
BRANCH   1  10
ATOM     10  C   UNL     1       2.025   3.223  18.482  0.00  0.00    +0.000 C 
ATOM     11  O   UNL     1       1.127   2.650  17.880  0.00  0.00    +0.000 OA
BRANCH  10  12
ATOM     12  O   UNL     1       2.579   2.780  19.647  0.00  0.00    +0.000 OA
BRANCH  12  14
ATOM     13  C   UNL     1       2.151   3.335  21.925  0.00  0.00    +0.000 C 
ATOM     14  C   UNL     1       1.652   2.564  20.715  0.00  0.00    +0.000 C 
ENDBRANCH  12  14
ENDBRANCH  10  12
ENDBRANCH   1  10
BRANCH   3  15
ATOM     15  C   UNL     1       2.580   8.255  18.025  0.00  0.00    +0.000 C 
ATOM     16  O   UNL     1       3.480   9.061  18.237  0.00  0.00    +0.000 OA
BRANCH  15  17
ATOM     17  C   UNL     1       1.160   8.749  17.888  0.00  0.00    +0.000 C 
ATOM     18  C   UNL     1       0.743   9.953  18.307  0.00  0.00    +0.000 C 
BRANCH  18  19
ATOM     19  C   UNL     1      -0.670  10.337  18.174  0.00  0.00    +0.000 A 
ATOM     20  C   UNL     1      -1.190  11.380  18.952  0.00  0.00    +0.000 A 
ATOM     21  C   UNL     1      -2.539  11.743  18.847  0.00  0.00    +0.000 A 
ATOM     22  C   UNL     1      -3.372  11.058  17.965  0.00  0.00    +0.000 A 
ATOM     23 BR   UNL     1      -5.190  11.555  17.812  0.00  0.00    +0.000 Br
ATOM     24  C   UNL     1      -2.871  10.011  17.194  0.00  0.00    +0.000 A 
ATOM     25  C   UNL     1      -1.523   9.649  17.301  0.00  0.00    +0.000 A 
ENDBRANCH  18  19
ENDBRANCH  15  17
ENDBRANCH   3  15
BRANCH   7  26
ATOM     26  O   UNL     1       6.433   3.698  15.106  0.00  0.00    +0.000 OA
ATOM     27  C   UNL     1       6.363   3.821  13.684  0.00  0.00    +0.000 C 
ENDBRANCH   7  26
TORSDOF 7
ENDMDL
MODEL 8
REMARK VINA RESULT:      -7.1      2.109      3.367
REMARK  Name = 
REMARK  9 active torsions:
REMARK  status: ('A' for Active; 'I' for Inactive)
REMARK    1  A    between atoms: C_1  and  C_2
REMARK    2  A    between atoms: C_2  and  O_3
REMARK    3  A    between atoms: O_3  and  C_4
REMARK    4  A    between atoms: C_4  and  C_6
REMARK    5  A    between atoms: C_8  and  C_9
REMARK    6  A    between atoms: C_9  and  C_11
REMARK    7  A    between atoms: C_12  and  C_13
REMARK    8  A    between atoms: C_23  and  O_24
REMARK    9  A    between atoms: O_24  and  C_25
REMARK                            x       y       z     vdW  Elec       q    Type
REMARK                         _______ _______ _______ _____ _____    ______ ____
ROOT
ATOM      1  C   UNL     1       3.239   7.231  18.028  0.00  0.00    +0.000 A 
ATOM      2  C   UNL     1       4.505   7.808  17.757  0.00  0.00    +0.000 A 
ATOM      3  C   UNL     1       5.412   6.826  17.374  0.00  0.00    +0.000 A 
ATOM      4  N   UNL     1       4.703   5.622  17.382  0.00  0.00    +0.000 N 
ATOM      5  C   UNL     1       5.104   4.316  17.057  0.00  0.00    +0.000 A 
ATOM      6  C   UNL     1       4.227   3.294  17.123  0.00  0.00    +0.000 A 
ATOM      7  C   UNL     1       2.851   3.546  17.531  0.00  0.00    +0.000 A 
ATOM      8  C   UNL     1       2.464   4.797  17.850  0.00  0.00    +0.000 A 
ATOM      9  C   UNL     1       3.388   5.882  17.787  0.00  0.00    +0.000 A 
ENDROOT
BRANCH   1  10
ATOM     10  C   UNL     1       2.018   7.925  18.408  0.00  0.00    +0.000 C 
ATOM     11  O   UNL     1       1.462   8.774  17.723  0.00  0.00    +0.000 OA
BRANCH  10  12
ATOM     12  O   UNL     1       1.643   7.587  19.675  0.00  0.00    +0.000 OA
BRANCH  12  14
ATOM     13  C   UNL     1       0.187   8.805  21.115  0.00  0.00    +0.000 C 
ATOM     14  C   UNL     1       1.612   8.670  20.607  0.00  0.00    +0.000 C 
ENDBRANCH  12  14
ENDBRANCH  10  12
ENDBRANCH   1  10
BRANCH   3  15
ATOM     15  C   UNL     1       6.823   7.017  17.021  0.00  0.00    +0.000 C 
ATOM     16  O   UNL     1       7.505   6.173  16.447  0.00  0.00    +0.000 OA
BRANCH  15  17
ATOM     17  C   UNL     1       7.445   8.339  17.399  0.00  0.00    +0.000 C 
ATOM     18  C   UNL     1       8.377   8.483  18.353  0.00  0.00    +0.000 C 
BRANCH  18  19
ATOM     19  C   UNL     1       8.898   9.816  18.688  0.00  0.00    +0.000 A 
ATOM     20  C   UNL     1       9.300  10.103  19.999  0.00  0.00    +0.000 A 
ATOM     21  C   UNL     1       9.781  11.375  20.334  0.00  0.00    +0.000 A 
ATOM     22  C   UNL     1       9.857  12.365  19.358  0.00  0.00    +0.000 A 
ATOM     23 BR   UNL     1      10.518  14.079  19.805  0.00  0.00    +0.000 Br
ATOM     24  C   UNL     1       9.449  12.097  18.052  0.00  0.00    +0.000 A 
ATOM     25  C   UNL     1       8.967  10.825  17.719  0.00  0.00    +0.000 A 
ENDBRANCH  18  19
ENDBRANCH  15  17
ENDBRANCH   3  15
BRANCH   7  26
ATOM     26  O   UNL     1       2.055   2.421  17.539  0.00  0.00    +0.000 OA
ATOM     27  C   UNL     1       1.354   2.144  18.753  0.00  0.00    +0.000 C 
ENDBRANCH   7  26
TORSDOF 7
ENDMDL
MODEL 9
REMARK VINA RESULT:      -7.1      2.426      3.955
REMARK  Name = 
REMARK  9 active torsions:
REMARK  status: ('A' for Active; 'I' for Inactive)
REMARK    1  A    between atoms: C_1  and  C_2
REMARK    2  A    between atoms: C_2  and  O_3
REMARK    3  A    between atoms: O_3  and  C_4
REMARK    4  A    between atoms: C_4  and  C_6
REMARK    5  A    between atoms: C_8  and  C_9
REMARK    6  A    between atoms: C_9  and  C_11
REMARK    7  A    between atoms: C_12  and  C_13
REMARK    8  A    between atoms: C_23  and  O_24
REMARK    9  A    between atoms: O_24  and  C_25
REMARK                            x       y       z     vdW  Elec       q    Type
REMARK                         _______ _______ _______ _____ _____    ______ ____
ROOT
ATOM      1  C   UNL     1       3.390   7.172  18.295  0.00  0.00    +0.000 A 
ATOM      2  C   UNL     1       4.588   7.663  17.718  0.00  0.00    +0.000 A 
ATOM      3  C   UNL     1       5.568   6.676  17.725  0.00  0.00    +0.000 A 
ATOM      4  N   UNL     1       4.973   5.546  18.293  0.00  0.00    +0.000 N 
ATOM      5  C   UNL     1       5.481   4.257  18.525  0.00  0.00    +0.000 A 
ATOM      6  C   UNL     1       4.704   3.306  19.079  0.00  0.00    +0.000 A 
ATOM      7  C   UNL     1       3.325   3.613  19.436  0.00  0.00    +0.000 A 
ATOM      8  C   UNL     1       2.836   4.850  19.221  0.00  0.00    +0.000 A 
ATOM      9  C   UNL     1       3.654   5.864  18.639  0.00  0.00    +0.000 A 
ENDROOT
BRANCH   1  10
ATOM     10  C   UNL     1       2.124   7.876  18.428  0.00  0.00    +0.000 C 
ATOM     11  O   UNL     1       1.481   8.331  17.491  0.00  0.00    +0.000 OA
BRANCH  10  12
ATOM     12  O   UNL     1       1.809   8.062  19.742  0.00  0.00    +0.000 OA
BRANCH  12  14
ATOM     13  C   UNL     1       0.137   8.939  21.196  0.00  0.00    +0.000 C 
ATOM     14  C   UNL     1       1.053   9.243  20.023  0.00  0.00    +0.000 C 
ENDBRANCH  12  14
ENDBRANCH  10  12
ENDBRANCH   1  10
BRANCH   3  15
ATOM     15  C   UNL     1       6.943   6.794  17.227  0.00  0.00    +0.000 C 
ATOM     16  O   UNL     1       7.426   6.058  16.372  0.00  0.00    +0.000 OA
BRANCH  15  17
ATOM     17  C   UNL     1       7.789   7.893  17.822  0.00  0.00    +0.000 C 
ATOM     18  C   UNL     1       7.617   9.197  17.559  0.00  0.00    +0.000 C 
BRANCH  18  19
ATOM     19  C   UNL     1       8.516  10.199  18.148  0.00  0.00    +0.000 A 
ATOM     20  C   UNL     1       8.584  11.489  17.603  0.00  0.00    +0.000 A 
ATOM     21  C   UNL     1       9.450  12.446  18.144  0.00  0.00    +0.000 A 
ATOM     22  C   UNL     1      10.256  12.114  19.230  0.00  0.00    +0.000 A 
ATOM     23 BR   UNL     1      11.417  13.409  19.971  0.00  0.00    +0.000 Br
ATOM     24  C   UNL     1      10.209  10.832  19.775  0.00  0.00    +0.000 A 
ATOM     25  C   UNL     1       9.342   9.875  19.232  0.00  0.00    +0.000 A 
ENDBRANCH  18  19
ENDBRANCH  15  17
ENDBRANCH   3  15
BRANCH   7  26
ATOM     26  O   UNL     1       2.636   2.547  19.976  0.00  0.00    +0.000 OA
ATOM     27  C   UNL     1       1.427   2.856  20.670  0.00  0.00    +0.000 C 
ENDBRANCH   7  26
TORSDOF 7
ENDMDL
