MODEL 1
REMARK VINA RESULT:      -8.7      0.000      0.000
REMARK  Name = 
REMARK  14 active torsions:
REMARK  status: ('A' for Active; 'I' for Inactive)
REMARK    1  A    between atoms: C_1  and  C_2
REMARK    2  A    between atoms: C_5  and  C_6
REMARK    3  A    between atoms: C_6  and  N_7
REMARK    4  A    between atoms: C_8  and  C_9
REMARK    5  A    between atoms: C_9  and  O_11
REMARK    6  A    between atoms: C_12  and  C_13
REMARK    7  A    between atoms: C_13  and  N_14
REMARK    8  A    between atoms: N_14  and  C_15
REMARK    9  A    between atoms: C_15  and  C_16
REMARK   10  A    between atoms: C_19  and  O_20
REMARK   11  A    between atoms: O_20  and  C_21
REMARK   12  A    between atoms: C_21  and  C_22
REMARK   13  A    between atoms: C_21  and  C_23
REMARK   14  A    between atoms: C_29  and  C_30
REMARK                            x       y       z     vdW  Elec       q    Type
REMARK                         _______ _______ _______ _____ _____    ______ ____
ROOT
ATOM      1  N   UNL     1       5.168   4.550  16.487  0.00  0.00    +0.000 N 
ATOM      2  C   UNL     1       5.454   5.344  15.358  0.00  0.00    +0.000 A 
ATOM      3  C   UNL     1       5.221   6.610  15.967  0.00  0.00    +0.000 A 
ATOM      4  C   UNL     1       6.303   6.407  16.876  0.00  0.00    +0.000 A 
ATOM      5  C   UNL     1       7.391   7.169  17.304  0.00  0.00    +0.000 A 
ATOM      6  C   UNL     1       8.061   6.745  18.437  0.00  0.00    +0.000 A 
ATOM      7  C   UNL     1       7.569   5.678  19.206  0.00  0.00    +0.000 A 
ATOM      8  C   UNL     1       8.219   5.517  20.554  0.00  0.00    +0.000 C 
ATOM      9  C   UNL     1       6.501   4.850  18.743  0.00  0.00    +0.000 A 
ATOM     10  C   UNL     1       5.969   5.158  17.479  0.00  0.00    +0.000 A 
ENDROOT
BRANCH   2  11
ATOM     11  C   UNL     1       6.530   4.831  14.479  0.00  0.00    +0.000 C 
ATOM     12  O   UNL     1       7.387   5.509  13.956  0.00  0.00    +0.000 OA
BRANCH  11  13
ATOM     13  O   UNL     1       6.379   3.509  14.222  0.00  0.00    +0.000 OA
ATOM     14  H   UNL     1       7.212   3.099  13.927  0.00  0.00    +0.000 HD
ENDBRANCH  11  13
ENDBRANCH   2  11
BRANCH   1  15
ATOM     15  C   UNL     1       4.030   3.622  16.433  0.00  0.00    +0.000 C 
BRANCH  15  20
ATOM     16  C   UNL     1       1.275   2.833  21.527  0.00  0.00    +0.000 C 
ATOM     17  C   UNL     1       1.895   2.840  20.156  0.00  0.00    +0.000 A 
ATOM     18  C   UNL     1       1.289   3.518  19.094  0.00  0.00    +0.000 A 
ATOM     19  C   UNL     1       1.982   3.665  17.882  0.00  0.00    +0.000 A 
ATOM     20  C   UNL     1       3.289   3.154  17.679  0.00  0.00    +0.000 A 
ATOM     21  C   UNL     1       3.834   2.387  18.704  0.00  0.00    +0.000 A 
ATOM     22  C   UNL     1       3.144   2.237  19.931  0.00  0.00    +0.000 A 
ENDBRANCH  15  20
ENDBRANCH   1  15
BRANCH   3  23
ATOM     23  C   UNL     1       3.878   7.135  16.607  0.00  0.00    +0.000 C 
BRANCH  23  24
ATOM     24  N   UNL     1       3.947   7.408  18.048  0.00  0.00    +0.000 NA
ATOM     25  H   UNL     1       3.996   8.415  18.195  0.00  0.00    +0.000 HD
BRANCH  24  26
ATOM     26  C   UNL     1       2.708   6.914  18.714  0.00  0.00    +0.000 C 
BRANCH  26  27
ATOM     27  C   UNL     1       1.919   8.031  19.376  0.00  0.00    +0.000 A 
ATOM     28  C   UNL     1       1.570   7.987  20.733  0.00  0.00    +0.000 A 
ATOM     29  C   UNL     1       0.690   8.937  21.273  0.00  0.00    +0.000 A 
ATOM     30  C   UNL     1       0.173   9.968  20.483  0.00  0.00    +0.000 A 
ATOM     31  C   UNL     1       0.642  10.102  19.179  0.00  0.00    +0.000 A 
ATOM     32  C   UNL     1       1.497   9.137  18.628  0.00  0.00    +0.000 A 
BRANCH  30  33
ATOM     33  O   UNL     1      -0.819  10.707  21.065  0.00  0.00    +0.000 OA
BRANCH  33  34
ATOM     34  C   UNL     1      -0.503  11.592  22.148  0.00  0.00    +0.000 C 
ATOM     35  C   UNL     1      -0.135  13.002  21.682  0.00  0.00    +0.000 C 
ATOM     36  C   UNL     1      -1.772  11.693  23.000  0.00  0.00    +0.000 C 
ENDBRANCH  33  34
ENDBRANCH  30  33
ENDBRANCH  26  27
ENDBRANCH  24  26
ENDBRANCH  23  24
ENDBRANCH   3  23
TORSDOF 10
ENDMDL
MODEL 2
REMARK VINA RESULT:      -8.6      0.957      1.429
REMARK  Name = 
REMARK  14 active torsions:
REMARK  status: ('A' for Active; 'I' for Inactive)
REMARK    1  A    between atoms: C_1  and  C_2
REMARK    2  A    between atoms: C_5  and  C_6
REMARK    3  A    between atoms: C_6  and  N_7
REMARK    4  A    between atoms: C_8  and  C_9
REMARK    5  A    between atoms: C_9  and  O_11
REMARK    6  A    between atoms: C_12  and  C_13
REMARK    7  A    between atoms: C_13  and  N_14
REMARK    8  A    between atoms: N_14  and  C_15
REMARK    9  A    between atoms: C_15  and  C_16
REMARK   10  A    between atoms: C_19  and  O_20
REMARK   11  A    between atoms: O_20  and  C_21
REMARK   12  A    between atoms: C_21  and  C_22
REMARK   13  A    between atoms: C_21  and  C_23
REMARK   14  A    between atoms: C_29  and  C_30
REMARK                            x       y       z     vdW  Elec       q    Type
REMARK                         _______ _______ _______ _____ _____    ______ ____
ROOT
ATOM      1  N   UNL     1       5.325   4.477  16.482  0.00  0.00    +0.000 N 
ATOM      2  C   UNL     1       5.602   5.279  15.357  0.00  0.00    +0.000 A 
ATOM      3  C   UNL     1       5.315   6.537  15.961  0.00  0.00    +0.000 A 
ATOM      4  C   UNL     1       6.388   6.372  16.887  0.00  0.00    +0.000 A 
ATOM      5  C   UNL     1       7.443   7.171  17.332  0.00  0.00    +0.000 A 
ATOM      6  C   UNL     1       8.108   6.770  18.476  0.00  0.00    +0.000 A 
ATOM      7  C   UNL     1       7.641   5.687  19.238  0.00  0.00    +0.000 A 
ATOM      8  C   UNL     1       8.274   5.549  20.596  0.00  0.00    +0.000 C 
ATOM      9  C   UNL     1       6.610   4.822  18.759  0.00  0.00    +0.000 A 
ATOM     10  C   UNL     1       6.088   5.111  17.486  0.00  0.00    +0.000 A 
ENDROOT
BRANCH   2  11
ATOM     11  C   UNL     1       6.708   4.803  14.496  0.00  0.00    +0.000 C 
ATOM     12  O   UNL     1       7.683   5.454  14.187  0.00  0.00    +0.000 OA
BRANCH  11  13
ATOM     13  O   UNL     1       6.451   3.575  13.983  0.00  0.00    +0.000 OA
ATOM     14  H   UNL     1       6.833   3.467  13.093  0.00  0.00    +0.000 HD
ENDBRANCH  11  13
ENDBRANCH   2  11
BRANCH   1  15
ATOM     15  C   UNL     1       4.220   3.510  16.410  0.00  0.00    +0.000 C 
BRANCH  15  20
ATOM     16  C   UNL     1       1.188   2.913  21.370  0.00  0.00    +0.000 C 
ATOM     17  C   UNL     1       1.884   2.867  20.038  0.00  0.00    +0.000 A 
ATOM     18  C   UNL     1       1.333   3.489  18.914  0.00  0.00    +0.000 A 
ATOM     19  C   UNL     1       2.093   3.591  17.738  0.00  0.00    +0.000 A 
ATOM     20  C   UNL     1       3.414   3.088  17.632  0.00  0.00    +0.000 A 
ATOM     21  C   UNL     1       3.907   2.373  18.720  0.00  0.00    +0.000 A 
ATOM     22  C   UNL     1       3.150   2.270  19.911  0.00  0.00    +0.000 A 
ENDBRANCH  15  20
ENDBRANCH   1  15
BRANCH   3  23
ATOM     23  C   UNL     1       3.944   7.015  16.579  0.00  0.00    +0.000 C 
BRANCH  23  24
ATOM     24  N   UNL     1       4.012   7.422  17.987  0.00  0.00    +0.000 NA
ATOM     25  H   UNL     1       4.077   8.437  18.040  0.00  0.00    +0.000 HD
BRANCH  24  26
ATOM     26  C   UNL     1       2.761   7.014  18.690  0.00  0.00    +0.000 C 
BRANCH  26  27
ATOM     27  C   UNL     1       1.881   8.199  19.046  0.00  0.00    +0.000 A 
ATOM     28  C   UNL     1       1.488   9.144  18.087  0.00  0.00    +0.000 A 
ATOM     29  C   UNL     1       0.831  10.322  18.477  0.00  0.00    +0.000 A 
ATOM     30  C   UNL     1       0.519  10.561  19.818  0.00  0.00    +0.000 A 
ATOM     31  C   UNL     1       0.769   9.553  20.745  0.00  0.00    +0.000 A 
ATOM     32  C   UNL     1       1.452   8.389  20.365  0.00  0.00    +0.000 A 
BRANCH  30  33
ATOM     33  O   UNL     1       0.061  11.819  20.095  0.00  0.00    +0.000 OA
BRANCH  33  34
ATOM     34  C   UNL     1      -0.922  12.421  19.242  0.00  0.00    +0.000 C 
ATOM     35  C   UNL     1      -2.288  12.570  19.914  0.00  0.00    +0.000 C 
ATOM     36  C   UNL     1      -0.400  13.823  18.915  0.00  0.00    +0.000 C 
ENDBRANCH  33  34
ENDBRANCH  30  33
ENDBRANCH  26  27
ENDBRANCH  24  26
ENDBRANCH  23  24
ENDBRANCH   3  23
TORSDOF 10
ENDMDL
MODEL 3
REMARK VINA RESULT:      -8.1      2.784      9.695
REMARK  Name = 
REMARK  14 active torsions:
REMARK  status: ('A' for Active; 'I' for Inactive)
REMARK    1  A    between atoms: C_1  and  C_2
REMARK    2  A    between atoms: C_5  and  C_6
REMARK    3  A    between atoms: C_6  and  N_7
REMARK    4  A    between atoms: C_8  and  C_9
REMARK    5  A    between atoms: C_9  and  O_11
REMARK    6  A    between atoms: C_12  and  C_13
REMARK    7  A    between atoms: C_13  and  N_14
REMARK    8  A    between atoms: N_14  and  C_15
REMARK    9  A    between atoms: C_15  and  C_16
REMARK   10  A    between atoms: C_19  and  O_20
REMARK   11  A    between atoms: O_20  and  C_21
REMARK   12  A    between atoms: C_21  and  C_22
REMARK   13  A    between atoms: C_21  and  C_23
REMARK   14  A    between atoms: C_29  and  C_30
REMARK                            x       y       z     vdW  Elec       q    Type
REMARK                         _______ _______ _______ _____ _____    ______ ____
ROOT
ATOM      1  N   UNL     1      -0.044  12.016  20.117  0.00  0.00    +0.000 N 
ATOM      2  C   UNL     1       1.119  11.524  19.492  0.00  0.00    +0.000 A 
ATOM      3  C   UNL     1       0.753  10.148  19.494  0.00  0.00    +0.000 A 
ATOM      4  C   UNL     1      -0.354  10.409  18.631  0.00  0.00    +0.000 A 
ATOM      5  C   UNL     1      -0.854   9.835  17.461  0.00  0.00    +0.000 A 
ATOM      6  C   UNL     1      -2.138  10.179  17.080  0.00  0.00    +0.000 A 
ATOM      7  C   UNL     1      -2.954  10.955  17.919  0.00  0.00    +0.000 A 
ATOM      8  C   UNL     1      -4.405  11.002  17.523  0.00  0.00    +0.000 C 
ATOM      9  C   UNL     1      -2.433  11.603  19.081  0.00  0.00    +0.000 A 
ATOM     10  C   UNL     1      -1.063  11.425  19.339  0.00  0.00    +0.000 A 
ENDROOT
BRANCH   2  11
ATOM     11  C   UNL     1       1.708  12.409  18.461  0.00  0.00    +0.000 C 
ATOM     12  O   UNL     1       1.449  13.584  18.320  0.00  0.00    +0.000 OA
BRANCH  11  13
ATOM     13  O   UNL     1       2.496  11.720  17.600  0.00  0.00    +0.000 OA
ATOM     14  H   UNL     1       2.503  12.123  16.713  0.00  0.00    +0.000 HD
ENDBRANCH  11  13
ENDBRANCH   2  11
BRANCH   1  15
ATOM     15  C   UNL     1       0.077  12.670  21.428  0.00  0.00    +0.000 C 
BRANCH  15  20
ATOM     16  C   UNL     1      -5.096  13.365  24.058  0.00  0.00    +0.000 C 
ATOM     17  C   UNL     1      -3.676  13.250  23.576  0.00  0.00    +0.000 A 
ATOM     18  C   UNL     1      -3.003  12.025  23.595  0.00  0.00    +0.000 A 
ATOM     19  C   UNL     1      -1.753  11.911  22.967  0.00  0.00    +0.000 A 
ATOM     20  C   UNL     1      -1.129  12.995  22.300  0.00  0.00    +0.000 A 
ATOM     21  C   UNL     1      -1.755  14.235  22.386  0.00  0.00    +0.000 A 
ATOM     22  C   UNL     1      -3.018  14.358  23.012  0.00  0.00    +0.000 A 
ENDBRANCH  15  20
ENDBRANCH   1  15
BRANCH   3  23
ATOM     23  C   UNL     1       0.447   9.237  20.745  0.00  0.00    +0.000 C 
BRANCH  23  24
ATOM     24  N   UNL     1       1.573   8.410  21.196  0.00  0.00    +0.000 NA
ATOM     25  H   UNL     1       1.590   8.394  22.214  0.00  0.00    +0.000 HD
BRANCH  24  26
ATOM     26  C   UNL     1       1.387   7.007  20.726  0.00  0.00    +0.000 C 
BRANCH  26  27
ATOM     27  C   UNL     1       2.447   6.584  19.724  0.00  0.00    +0.000 A 
ATOM     28  C   UNL     1       3.307   5.503  19.967  0.00  0.00    +0.000 A 
ATOM     29  C   UNL     1       4.390   5.250  19.111  0.00  0.00    +0.000 A 
ATOM     30  C   UNL     1       4.613   6.041  17.981  0.00  0.00    +0.000 A 
ATOM     31  C   UNL     1       3.671   7.013  17.656  0.00  0.00    +0.000 A 
ATOM     32  C   UNL     1       2.605   7.288  18.524  0.00  0.00    +0.000 A 
BRANCH  30  33
ATOM     33  O   UNL     1       5.802   5.821  17.341  0.00  0.00    +0.000 OA
BRANCH  33  34
ATOM     34  C   UNL     1       6.060   4.546  16.739  0.00  0.00    +0.000 C 
ATOM     35  C   UNL     1       4.865   4.002  15.952  0.00  0.00    +0.000 C 
ATOM     36  C   UNL     1       7.213   4.765  15.755  0.00  0.00    +0.000 C 
ENDBRANCH  33  34
ENDBRANCH  30  33
ENDBRANCH  26  27
ENDBRANCH  24  26
ENDBRANCH  23  24
ENDBRANCH   3  23
TORSDOF 10
ENDMDL
MODEL 4
REMARK VINA RESULT:      -7.9      0.720      1.038
REMARK  Name = 
REMARK  14 active torsions:
REMARK  status: ('A' for Active; 'I' for Inactive)
REMARK    1  A    between atoms: C_1  and  C_2
REMARK    2  A    between atoms: C_5  and  C_6
REMARK    3  A    between atoms: C_6  and  N_7
REMARK    4  A    between atoms: C_8  and  C_9
REMARK    5  A    between atoms: C_9  and  O_11
REMARK    6  A    between atoms: C_12  and  C_13
REMARK    7  A    between atoms: C_13  and  N_14
REMARK    8  A    between atoms: N_14  and  C_15
REMARK    9  A    between atoms: C_15  and  C_16
REMARK   10  A    between atoms: C_19  and  O_20
REMARK   11  A    between atoms: O_20  and  C_21
REMARK   12  A    between atoms: C_21  and  C_22
REMARK   13  A    between atoms: C_21  and  C_23
REMARK   14  A    between atoms: C_29  and  C_30
REMARK                            x       y       z     vdW  Elec       q    Type
REMARK                         _______ _______ _______ _____ _____    ______ ____
ROOT
ATOM      1  N   UNL     1       5.229   4.479  16.489  0.00  0.00    +0.000 N 
ATOM      2  C   UNL     1       5.482   5.301  15.372  0.00  0.00    +0.000 A 
ATOM      3  C   UNL     1       5.225   6.549  16.008  0.00  0.00    +0.000 A 
ATOM      4  C   UNL     1       6.322   6.356  16.900  0.00  0.00    +0.000 A 
ATOM      5  C   UNL     1       7.397   7.136  17.330  0.00  0.00    +0.000 A 
ATOM      6  C   UNL     1       8.090   6.707  18.447  0.00  0.00    +0.000 A 
ATOM      7  C   UNL     1       7.633   5.614  19.201  0.00  0.00    +0.000 A 
ATOM      8  C   UNL     1       8.303   5.445  20.538  0.00  0.00    +0.000 C 
ATOM      9  C   UNL     1       6.580   4.769  18.735  0.00  0.00    +0.000 A 
ATOM     10  C   UNL     1       6.027   5.087  17.483  0.00  0.00    +0.000 A 
ENDROOT
BRANCH   2  11
ATOM     11  C   UNL     1       6.559   4.831  14.471  0.00  0.00    +0.000 C 
ATOM     12  O   UNL     1       6.523   3.815  13.811  0.00  0.00    +0.000 OA
BRANCH  11  13
ATOM     13  O   UNL     1       7.661   5.615  14.556  0.00  0.00    +0.000 OA
ATOM     14  H   UNL     1       8.096   5.724  13.691  0.00  0.00    +0.000 HD
ENDBRANCH  11  13
ENDBRANCH   2  11
BRANCH   1  15
ATOM     15  C   UNL     1       4.113   3.524  16.431  0.00  0.00    +0.000 C 
BRANCH  15  20
ATOM     16  C   UNL     1       1.196   2.906  21.457  0.00  0.00    +0.000 C 
ATOM     17  C   UNL     1       1.855   2.869  20.106  0.00  0.00    +0.000 A 
ATOM     18  C   UNL     1       1.294   3.532  19.010  0.00  0.00    +0.000 A 
ATOM     19  C   UNL     1       2.024   3.638  17.817  0.00  0.00    +0.000 A 
ATOM     20  C   UNL     1       3.326   3.099  17.665  0.00  0.00    +0.000 A 
ATOM     21  C   UNL     1       3.827   2.346  18.723  0.00  0.00    +0.000 A 
ATOM     22  C   UNL     1       3.099   2.239  19.932  0.00  0.00    +0.000 A 
ENDBRANCH  15  20
ENDBRANCH   1  15
BRANCH   3  23
ATOM     23  C   UNL     1       3.877   7.028  16.673  0.00  0.00    +0.000 C 
BRANCH  23  24
ATOM     24  N   UNL     1       3.965   7.306  18.112  0.00  0.00    +0.000 NA
ATOM     25  H   UNL     1       4.116   8.303  18.252  0.00  0.00    +0.000 HD
BRANCH  24  26
ATOM     26  C   UNL     1       2.676   6.949  18.772  0.00  0.00    +0.000 C 
BRANCH  26  27
ATOM     27  C   UNL     1       1.870   8.172  19.175  0.00  0.00    +0.000 A 
ATOM     28  C   UNL     1       1.397   8.349  20.483  0.00  0.00    +0.000 A 
ATOM     29  C   UNL     1       0.505   9.391  20.781  0.00  0.00    +0.000 A 
ATOM     30  C   UNL     1       0.101  10.296  19.795  0.00  0.00    +0.000 A 
ATOM     31  C   UNL     1       0.693  10.213  18.538  0.00  0.00    +0.000 A 
ATOM     32  C   UNL     1       1.560   9.156  18.228  0.00  0.00    +0.000 A 
BRANCH  30  33
ATOM     33  O   UNL     1      -0.913  11.139  20.158  0.00  0.00    +0.000 OA
BRANCH  33  34
ATOM     34  C   UNL     1      -0.625  12.512  20.449  0.00  0.00    +0.000 C 
ATOM     35  C   UNL     1       0.816  12.737  20.913  0.00  0.00    +0.000 C 
ATOM     36  C   UNL     1      -0.823  13.278  19.137  0.00  0.00    +0.000 C 
ENDBRANCH  33  34
ENDBRANCH  30  33
ENDBRANCH  26  27
ENDBRANCH  24  26
ENDBRANCH  23  24
ENDBRANCH   3  23
TORSDOF 10
ENDMDL
MODEL 5
REMARK VINA RESULT:      -7.8      2.739      9.620
REMARK  Name = 
REMARK  14 active torsions:
REMARK  status: ('A' for Active; 'I' for Inactive)
REMARK    1  A    between atoms: C_1  and  C_2
REMARK    2  A    between atoms: C_5  and  C_6
REMARK    3  A    between atoms: C_6  and  N_7
REMARK    4  A    between atoms: C_8  and  C_9
REMARK    5  A    between atoms: C_9  and  O_11
REMARK    6  A    between atoms: C_12  and  C_13
REMARK    7  A    between atoms: C_13  and  N_14
REMARK    8  A    between atoms: N_14  and  C_15
REMARK    9  A    between atoms: C_15  and  C_16
REMARK   10  A    between atoms: C_19  and  O_20
REMARK   11  A    between atoms: O_20  and  C_21
REMARK   12  A    between atoms: C_21  and  C_22
REMARK   13  A    between atoms: C_21  and  C_23
REMARK   14  A    between atoms: C_29  and  C_30
REMARK                            x       y       z     vdW  Elec       q    Type
REMARK                         _______ _______ _______ _____ _____    ______ ____
ROOT
ATOM      1  N   UNL     1       0.119  12.238  20.111  0.00  0.00    +0.000 N 
ATOM      2  C   UNL     1       1.308  11.736  19.545  0.00  0.00    +0.000 A 
ATOM      3  C   UNL     1       0.994  10.353  19.668  0.00  0.00    +0.000 A 
ATOM      4  C   UNL     1      -0.111  10.492  18.775  0.00  0.00    +0.000 A 
ATOM      5  C   UNL     1      -0.573   9.795  17.657  0.00  0.00    +0.000 A 
ATOM      6  C   UNL     1      -1.863  10.053  17.234  0.00  0.00    +0.000 A 
ATOM      7  C   UNL     1      -2.719  10.870  17.990  0.00  0.00    +0.000 A 
ATOM      8  C   UNL     1      -4.166  10.824  17.577  0.00  0.00    +0.000 C 
ATOM      9  C   UNL     1      -2.240  11.640  19.093  0.00  0.00    +0.000 A 
ATOM     10  C   UNL     1      -0.867  11.540  19.380  0.00  0.00    +0.000 A 
ENDROOT
BRANCH   2  11
ATOM     11  C   UNL     1       1.876  12.547  18.444  0.00  0.00    +0.000 C 
ATOM     12  O   UNL     1       1.628  13.715  18.236  0.00  0.00    +0.000 OA
BRANCH  11  13
ATOM     13  O   UNL     1       2.630  11.795  17.606  0.00  0.00    +0.000 OA
ATOM     14  H   UNL     1       3.210  12.344  17.047  0.00  0.00    +0.000 HD
ENDBRANCH  11  13
ENDBRANCH   2  11
BRANCH   1  15
ATOM     15  C   UNL     1       0.197  13.012  21.358  0.00  0.00    +0.000 C 
BRANCH  15  20
ATOM     16  C   UNL     1      -4.721  12.733  24.504  0.00  0.00    +0.000 C 
ATOM     17  C   UNL     1      -3.351  12.823  23.891  0.00  0.00    +0.000 A 
ATOM     18  C   UNL     1      -2.639  11.672  23.541  0.00  0.00    +0.000 A 
ATOM     19  C   UNL     1      -1.451  11.790  22.802  0.00  0.00    +0.000 A 
ATOM     20  C   UNL     1      -0.930  13.040  22.383  0.00  0.00    +0.000 A 
ATOM     21  C   UNL     1      -1.587  14.182  22.833  0.00  0.00    +0.000 A 
ATOM     22  C   UNL     1      -2.788  14.072  23.574  0.00  0.00    +0.000 A 
ENDBRANCH  15  20
ENDBRANCH   1  15
BRANCH   3  23
ATOM     23  C   UNL     1       0.706   9.548  20.994  0.00  0.00    +0.000 C 
BRANCH  23  24
ATOM     24  N   UNL     1       1.626   8.434  21.251  0.00  0.00    +0.000 NA
ATOM     25  H   UNL     1       1.476   8.086  22.196  0.00  0.00    +0.000 HD
BRANCH  24  26
ATOM     26  C   UNL     1       1.337   7.315  20.309  0.00  0.00    +0.000 C 
BRANCH  26  27
ATOM     27  C   UNL     1       2.568   6.873  19.536  0.00  0.00    +0.000 A 
ATOM     28  C   UNL     1       2.949   7.491  18.336  0.00  0.00    +0.000 A 
ATOM     29  C   UNL     1       3.979   6.947  17.552  0.00  0.00    +0.000 A 
ATOM     30  C   UNL     1       4.671   5.805  17.966  0.00  0.00    +0.000 A 
ATOM     31  C   UNL     1       4.397   5.286  19.229  0.00  0.00    +0.000 A 
ATOM     32  C   UNL     1       3.349   5.808  20.000  0.00  0.00    +0.000 A 
BRANCH  30  33
ATOM     33  O   UNL     1       5.509   5.261  17.033  0.00  0.00    +0.000 OA
BRANCH  33  34
ATOM     34  C   UNL     1       4.965   4.511  15.940  0.00  0.00    +0.000 C 
ATOM     35  C   UNL     1       6.029   4.045  14.943  0.00  0.00    +0.000 C 
ATOM     36  C   UNL     1       4.318   3.266  16.556  0.00  0.00    +0.000 C 
ENDBRANCH  33  34
ENDBRANCH  30  33
ENDBRANCH  26  27
ENDBRANCH  24  26
ENDBRANCH  23  24
ENDBRANCH   3  23
TORSDOF 10
ENDMDL
MODEL 6
REMARK VINA RESULT:      -7.8      1.380      1.839
REMARK  Name = 
REMARK  14 active torsions:
REMARK  status: ('A' for Active; 'I' for Inactive)
REMARK    1  A    between atoms: C_1  and  C_2
REMARK    2  A    between atoms: C_5  and  C_6
REMARK    3  A    between atoms: C_6  and  N_7
REMARK    4  A    between atoms: C_8  and  C_9
REMARK    5  A    between atoms: C_9  and  O_11
REMARK    6  A    between atoms: C_12  and  C_13
REMARK    7  A    between atoms: C_13  and  N_14
REMARK    8  A    between atoms: N_14  and  C_15
REMARK    9  A    between atoms: C_15  and  C_16
REMARK   10  A    between atoms: C_19  and  O_20
REMARK   11  A    between atoms: O_20  and  C_21
REMARK   12  A    between atoms: C_21  and  C_22
REMARK   13  A    between atoms: C_21  and  C_23
REMARK   14  A    between atoms: C_29  and  C_30
REMARK                            x       y       z     vdW  Elec       q    Type
REMARK                         _______ _______ _______ _____ _____    ______ ____
ROOT
ATOM      1  N   UNL     1       5.041   4.431  16.812  0.00  0.00    +0.000 N 
ATOM      2  C   UNL     1       5.072   5.334  15.730  0.00  0.00    +0.000 A 
ATOM      3  C   UNL     1       4.822   6.518  16.480  0.00  0.00    +0.000 A 
ATOM      4  C   UNL     1       6.048   6.362  17.195  0.00  0.00    +0.000 A 
ATOM      5  C   UNL     1       7.116   7.198  17.523  0.00  0.00    +0.000 A 
ATOM      6  C   UNL     1       7.991   6.762  18.499  0.00  0.00    +0.000 A 
ATOM      7  C   UNL     1       7.727   5.594  19.233  0.00  0.00    +0.000 A 
ATOM      8  C   UNL     1       8.593   5.401  20.449  0.00  0.00    +0.000 C 
ATOM      9  C   UNL     1       6.679   4.696  18.862  0.00  0.00    +0.000 A 
ATOM     10  C   UNL     1       5.929   5.042  17.724  0.00  0.00    +0.000 A 
ENDROOT
BRANCH   2  11
ATOM     11  C   UNL     1       6.037   5.004  14.657  0.00  0.00    +0.000 C 
ATOM     12  O   UNL     1       7.022   5.653  14.380  0.00  0.00    +0.000 OA
BRANCH  11  13
ATOM     13  O   UNL     1       5.628   3.939  13.925  0.00  0.00    +0.000 OA
ATOM     14  H   UNL     1       6.176   3.151  14.095  0.00  0.00    +0.000 HD
ENDBRANCH  11  13
ENDBRANCH   2  11
BRANCH   1  15
ATOM     15  C   UNL     1       3.998   3.396  16.845  0.00  0.00    +0.000 C 
BRANCH  15  20
ATOM     16  C   UNL     1       1.214   2.802  21.949  0.00  0.00    +0.000 C 
ATOM     17  C   UNL     1       1.879   2.740  20.602  0.00  0.00    +0.000 A 
ATOM     18  C   UNL     1       1.209   3.150  19.445  0.00  0.00    +0.000 A 
ATOM     19  C   UNL     1       1.916   3.258  18.237  0.00  0.00    +0.000 A 
ATOM     20  C   UNL     1       3.299   2.970  18.130  0.00  0.00    +0.000 A 
ATOM     21  C   UNL     1       3.928   2.456  19.261  0.00  0.00    +0.000 A 
ATOM     22  C   UNL     1       3.224   2.349  20.484  0.00  0.00    +0.000 A 
ENDBRANCH  15  20
ENDBRANCH   1  15
BRANCH   3  23
ATOM     23  C   UNL     1       3.554   6.850  17.358  0.00  0.00    +0.000 C 
BRANCH  23  24
ATOM     24  N   UNL     1       3.133   8.256  17.327  0.00  0.00    +0.000 NA
ATOM     25  H   UNL     1       3.008   8.546  16.359  0.00  0.00    +0.000 HD
BRANCH  24  26
ATOM     26  C   UNL     1       1.819   8.403  18.016  0.00  0.00    +0.000 C 
BRANCH  26  27
ATOM     27  C   UNL     1       1.406   9.855  18.178  0.00  0.00    +0.000 A 
ATOM     28  C   UNL     1       2.332  10.904  18.076  0.00  0.00    +0.000 A 
ATOM     29  C   UNL     1       1.962  12.216  18.410  0.00  0.00    +0.000 A 
ATOM     30  C   UNL     1       0.657  12.513  18.813  0.00  0.00    +0.000 A 
ATOM     31  C   UNL     1      -0.299  11.501  18.763  0.00  0.00    +0.000 A 
ATOM     32  C   UNL     1       0.075  10.185  18.460  0.00  0.00    +0.000 A 
BRANCH  30  33
ATOM     33  O   UNL     1       0.470  13.778  19.297  0.00  0.00    +0.000 OA
BRANCH  33  34
ATOM     34  C   UNL     1      -0.468  14.002  20.358  0.00  0.00    +0.000 C 
ATOM     35  C   UNL     1       0.121  13.738  21.745  0.00  0.00    +0.000 C 
ATOM     36  C   UNL     1      -0.852  15.483  20.282  0.00  0.00    +0.000 C 
ENDBRANCH  33  34
ENDBRANCH  30  33
ENDBRANCH  26  27
ENDBRANCH  24  26
ENDBRANCH  23  24
ENDBRANCH   3  23
TORSDOF 10
ENDMDL
MODEL 7
REMARK VINA RESULT:      -7.7      3.614      9.835
REMARK  Name = 
REMARK  14 active torsions:
REMARK  status: ('A' for Active; 'I' for Inactive)
REMARK    1  A    between atoms: C_1  and  C_2
REMARK    2  A    between atoms: C_5  and  C_6
REMARK    3  A    between atoms: C_6  and  N_7
REMARK    4  A    between atoms: C_8  and  C_9
REMARK    5  A    between atoms: C_9  and  O_11
REMARK    6  A    between atoms: C_12  and  C_13
REMARK    7  A    between atoms: C_13  and  N_14
REMARK    8  A    between atoms: N_14  and  C_15
REMARK    9  A    between atoms: C_15  and  C_16
REMARK   10  A    between atoms: C_19  and  O_20
REMARK   11  A    between atoms: O_20  and  C_21
REMARK   12  A    between atoms: C_21  and  C_22
REMARK   13  A    between atoms: C_21  and  C_23
REMARK   14  A    between atoms: C_29  and  C_30
REMARK                            x       y       z     vdW  Elec       q    Type
REMARK                         _______ _______ _______ _____ _____    ______ ____
ROOT
ATOM      1  N   UNL     1      -1.948  12.894  20.350  0.00  0.00    +0.000 N 
ATOM      2  C   UNL     1      -2.000  13.686  21.515  0.00  0.00    +0.000 A 
ATOM      3  C   UNL     1      -0.948  13.036  22.220  0.00  0.00    +0.000 A 
ATOM      4  C   UNL     1       0.003  13.439  21.235  0.00  0.00    +0.000 A 
ATOM      5  C   UNL     1       1.269  14.027  21.265  0.00  0.00    +0.000 A 
ATOM      6  C   UNL     1       2.018  13.986  20.103  0.00  0.00    +0.000 A 
ATOM      7  C   UNL     1       1.580  13.250  18.990  0.00  0.00    +0.000 A 
ATOM      8  C   UNL     1       2.617  13.048  17.918  0.00  0.00    +0.000 C 
ATOM      9  C   UNL     1       0.262  12.705  18.923  0.00  0.00    +0.000 A 
ATOM     10  C   UNL     1      -0.574  12.944  20.028  0.00  0.00    +0.000 A 
ENDROOT
BRANCH   2  11
ATOM     11  C   UNL     1      -2.338  15.112  21.297  0.00  0.00    +0.000 C 
ATOM     12  O   UNL     1      -2.061  16.018  22.052  0.00  0.00    +0.000 OA
BRANCH  11  13
ATOM     13  O   UNL     1      -3.110  15.281  20.196  0.00  0.00    +0.000 OA
ATOM     14  H   UNL     1      -2.956  16.145  19.774  0.00  0.00    +0.000 HD
ENDBRANCH  11  13
ENDBRANCH   2  11
BRANCH   1  15
ATOM     15  C   UNL     1      -3.114  12.072  19.997  0.00  0.00    +0.000 C 
BRANCH  15  20
ATOM     16  C   UNL     1      -2.849  10.079  14.509  0.00  0.00    +0.000 C 
ATOM     17  C   UNL     1      -3.064  10.427  15.956  0.00  0.00    +0.000 A 
ATOM     18  C   UNL     1      -2.198   9.958  16.948  0.00  0.00    +0.000 A 
ATOM     19  C   UNL     1      -2.313  10.451  18.257  0.00  0.00    +0.000 A 
ATOM     20  C   UNL     1      -3.278  11.420  18.630  0.00  0.00    +0.000 A 
ATOM     21  C   UNL     1      -4.205  11.795  17.661  0.00  0.00    +0.000 A 
ATOM     22  C   UNL     1      -4.093  11.306  16.337  0.00  0.00    +0.000 A 
ENDBRANCH  15  20
ENDBRANCH   1  15
BRANCH   3  23
ATOM     23  C   UNL     1      -0.879  11.523  22.660  0.00  0.00    +0.000 C 
BRANCH  23  24
ATOM     24  N   UNL     1       0.214  10.754  22.052  0.00  0.00    +0.000 NA
ATOM     25  H   UNL     1       0.746  10.290  22.786  0.00  0.00    +0.000 HD
BRANCH  24  26
ATOM     26  C   UNL     1      -0.349   9.694  21.166  0.00  0.00    +0.000 C 
BRANCH  26  27
ATOM     27  C   UNL     1       0.727   8.952  20.392  0.00  0.00    +0.000 A 
ATOM     28  C   UNL     1       1.148   9.370  19.122  0.00  0.00    +0.000 A 
ATOM     29  C   UNL     1       2.006   8.566  18.356  0.00  0.00    +0.000 A 
ATOM     30  C   UNL     1       2.491   7.353  18.856  0.00  0.00    +0.000 A 
ATOM     31  C   UNL     1       2.198   7.016  20.175  0.00  0.00    +0.000 A 
ATOM     32  C   UNL     1       1.317   7.801  20.931  0.00  0.00    +0.000 A 
BRANCH  30  33
ATOM     33  O   UNL     1       3.153   6.572  17.950  0.00  0.00    +0.000 OA
BRANCH  33  34
ATOM     34  C   UNL     1       3.149   5.147  18.103  0.00  0.00    +0.000 C 
ATOM     35  C   UNL     1       1.806   4.509  17.743  0.00  0.00    +0.000 C 
ATOM     36  C   UNL     1       4.203   4.611  17.128  0.00  0.00    +0.000 C 
ENDBRANCH  33  34
ENDBRANCH  30  33
ENDBRANCH  26  27
ENDBRANCH  24  26
ENDBRANCH  23  24
ENDBRANCH   3  23
TORSDOF 10
ENDMDL
MODEL 8
REMARK VINA RESULT:      -7.7      3.399      9.715
REMARK  Name = 
REMARK  14 active torsions:
REMARK  status: ('A' for Active; 'I' for Inactive)
REMARK    1  A    between atoms: C_1  and  C_2
REMARK    2  A    between atoms: C_5  and  C_6
REMARK    3  A    between atoms: C_6  and  N_7
REMARK    4  A    between atoms: C_8  and  C_9
REMARK    5  A    between atoms: C_9  and  O_11
REMARK    6  A    between atoms: C_12  and  C_13
REMARK    7  A    between atoms: C_13  and  N_14
REMARK    8  A    between atoms: N_14  and  C_15
REMARK    9  A    between atoms: C_15  and  C_16
REMARK   10  A    between atoms: C_19  and  O_20
REMARK   11  A    between atoms: O_20  and  C_21
REMARK   12  A    between atoms: C_21  and  C_22
REMARK   13  A    between atoms: C_21  and  C_23
REMARK   14  A    between atoms: C_29  and  C_30
REMARK                            x       y       z     vdW  Elec       q    Type
REMARK                         _______ _______ _______ _____ _____    ______ ____
ROOT
ATOM      1  N   UNL     1      -0.253  12.110  20.099  0.00  0.00    +0.000 N 
ATOM      2  C   UNL     1       0.874  11.457  19.561  0.00  0.00    +0.000 A 
ATOM      3  C   UNL     1       0.354  10.132  19.615  0.00  0.00    +0.000 A 
ATOM      4  C   UNL     1      -0.676  10.465  18.684  0.00  0.00    +0.000 A 
ATOM      5  C   UNL     1      -1.183   9.884  17.521  0.00  0.00    +0.000 A 
ATOM      6  C   UNL     1      -2.401  10.346  17.056  0.00  0.00    +0.000 A 
ATOM      7  C   UNL     1      -3.161  11.254  17.810  0.00  0.00    +0.000 A 
ATOM      8  C   UNL     1      -4.578  11.439  17.336  0.00  0.00    +0.000 C 
ATOM      9  C   UNL     1      -2.624  11.906  18.962  0.00  0.00    +0.000 A 
ATOM     10  C   UNL     1      -1.297  11.592  19.301  0.00  0.00    +0.000 A 
ENDROOT
BRANCH   2  11
ATOM     11  C   UNL     1       1.606  12.211  18.519  0.00  0.00    +0.000 C 
ATOM     12  O   UNL     1       1.461  13.390  18.277  0.00  0.00    +0.000 OA
BRANCH  11  13
ATOM     13  O   UNL     1       2.389  11.397  17.769  0.00  0.00    +0.000 OA
ATOM     14  H   UNL     1       3.100  11.890  17.321  0.00  0.00    +0.000 HD
ENDBRANCH  11  13
ENDBRANCH   2  11
BRANCH   1  15
ATOM     15  C   UNL     1      -0.120  12.820  21.379  0.00  0.00    +0.000 C 
BRANCH  15  20
ATOM     16  C   UNL     1      -5.216  13.294  24.201  0.00  0.00    +0.000 C 
ATOM     17  C   UNL     1      -3.810  13.228  23.670  0.00  0.00    +0.000 A 
ATOM     18  C   UNL     1      -3.117  12.016  23.608  0.00  0.00    +0.000 A 
ATOM     19  C   UNL     1      -1.886  11.955  22.936  0.00  0.00    +0.000 A 
ATOM     20  C   UNL     1      -1.302  13.081  22.304  0.00  0.00    +0.000 A 
ATOM     21  C   UNL     1      -1.946  14.304  22.469  0.00  0.00    +0.000 A 
ATOM     22  C   UNL     1      -3.190  14.373  23.140  0.00  0.00    +0.000 A 
ENDBRANCH  15  20
ENDBRANCH   1  15
BRANCH   3  23
ATOM     23  C   UNL     1      -0.111   9.334  20.894  0.00  0.00    +0.000 C 
BRANCH  23  24
ATOM     24  N   UNL     1       0.914   8.465  21.485  0.00  0.00    +0.000 NA
ATOM     25  H   UNL     1       0.489   7.579  21.751  0.00  0.00    +0.000 HD
BRANCH  24  26
ATOM     26  C   UNL     1       1.969   8.171  20.472  0.00  0.00    +0.000 C 
BRANCH  26  27
ATOM     27  C   UNL     1       1.861   6.764  19.911  0.00  0.00    +0.000 A 
ATOM     28  C   UNL     1       1.454   5.681  20.703  0.00  0.00    +0.000 A 
ATOM     29  C   UNL     1       1.538   4.369  20.211  0.00  0.00    +0.000 A 
ATOM     30  C   UNL     1       1.992   4.115  18.913  0.00  0.00    +0.000 A 
ATOM     31  C   UNL     1       2.246   5.199  18.077  0.00  0.00    +0.000 A 
ATOM     32  C   UNL     1       2.192   6.509  18.575  0.00  0.00    +0.000 A 
BRANCH  30  33
ATOM     33  O   UNL     1       2.215   2.799  18.620  0.00  0.00    +0.000 OA
BRANCH  33  34
ATOM     34  C   UNL     1       3.549   2.346  18.356  0.00  0.00    +0.000 C 
ATOM     35  C   UNL     1       4.281   3.209  17.325  0.00  0.00    +0.000 C 
ATOM     36  C   UNL     1       4.307   2.451  19.683  0.00  0.00    +0.000 C 
ENDBRANCH  33  34
ENDBRANCH  30  33
ENDBRANCH  26  27
ENDBRANCH  24  26
ENDBRANCH  23  24
ENDBRANCH   3  23
TORSDOF 10
ENDMDL
MODEL 9
REMARK VINA RESULT:      -7.7      1.164      1.727
REMARK  Name = 
REMARK  14 active torsions:
REMARK  status: ('A' for Active; 'I' for Inactive)
REMARK    1  A    between atoms: C_1  and  C_2
REMARK    2  A    between atoms: C_5  and  C_6
REMARK    3  A    between atoms: C_6  and  N_7
REMARK    4  A    between atoms: C_8  and  C_9
REMARK    5  A    between atoms: C_9  and  O_11
REMARK    6  A    between atoms: C_12  and  C_13
REMARK    7  A    between atoms: C_13  and  N_14
REMARK    8  A    between atoms: N_14  and  C_15
REMARK    9  A    between atoms: C_15  and  C_16
REMARK   10  A    between atoms: C_19  and  O_20
REMARK   11  A    between atoms: O_20  and  C_21
REMARK   12  A    between atoms: C_21  and  C_22
REMARK   13  A    between atoms: C_21  and  C_23
REMARK   14  A    between atoms: C_29  and  C_30
REMARK                            x       y       z     vdW  Elec       q    Type
REMARK                         _______ _______ _______ _____ _____    ______ ____
ROOT
ATOM      1  N   UNL     1       5.143   4.475  16.805  0.00  0.00    +0.000 N 
ATOM      2  C   UNL     1       5.147   5.400  15.742  0.00  0.00    +0.000 A 
ATOM      3  C   UNL     1       4.866   6.562  16.515  0.00  0.00    +0.000 A 
ATOM      4  C   UNL     1       6.097   6.424  17.226  0.00  0.00    +0.000 A 
ATOM      5  C   UNL     1       7.142   7.283  17.570  0.00  0.00    +0.000 A 
ATOM      6  C   UNL     1       8.031   6.851  18.537  0.00  0.00    +0.000 A 
ATOM      7  C   UNL     1       7.799   5.661  19.247  0.00  0.00    +0.000 A 
ATOM      8  C   UNL     1       8.672   5.467  20.457  0.00  0.00    +0.000 C 
ATOM      9  C   UNL     1       6.776   4.743  18.858  0.00  0.00    +0.000 A 
ATOM     10  C   UNL     1       6.015   5.091  17.728  0.00  0.00    +0.000 A 
ENDROOT
BRANCH   2  11
ATOM     11  C   UNL     1       6.120   5.119  14.661  0.00  0.00    +0.000 C 
ATOM     12  O   UNL     1       7.208   5.640  14.548  0.00  0.00    +0.000 OA
BRANCH  11  13
ATOM     13  O   UNL     1       5.604   4.284  13.727  0.00  0.00    +0.000 OA
ATOM     14  H   UNL     1       5.787   3.349  13.934  0.00  0.00    +0.000 HD
ENDBRANCH  11  13
ENDBRANCH   2  11
BRANCH   1  15
ATOM     15  C   UNL     1       4.129   3.411  16.817  0.00  0.00    +0.000 C 
BRANCH  15  20
ATOM     16  C   UNL     1       1.212   2.774  21.842  0.00  0.00    +0.000 C 
ATOM     17  C   UNL     1       1.921   2.721  20.517  0.00  0.00    +0.000 A 
ATOM     18  C   UNL     1       1.272   3.091  19.335  0.00  0.00    +0.000 A 
ATOM     19  C   UNL     1       2.011   3.211  18.147  0.00  0.00    +0.000 A 
ATOM     20  C   UNL     1       3.407   2.975  18.086  0.00  0.00    +0.000 A 
ATOM     21  C   UNL     1       4.019   2.500  19.242  0.00  0.00    +0.000 A 
ATOM     22  C   UNL     1       3.283   2.381  20.445  0.00  0.00    +0.000 A 
ENDBRANCH  15  20
ENDBRANCH   1  15
BRANCH   3  23
ATOM     23  C   UNL     1       3.591   6.841  17.402  0.00  0.00    +0.000 C 
BRANCH  23  24
ATOM     24  N   UNL     1       3.233   8.258  17.537  0.00  0.00    +0.000 NA
ATOM     25  H   UNL     1       3.508   8.756  16.693  0.00  0.00    +0.000 HD
BRANCH  24  26
ATOM     26  C   UNL     1       1.754   8.392  17.677  0.00  0.00    +0.000 C 
BRANCH  26  27
ATOM     27  C   UNL     1       1.359   9.463  18.679  0.00  0.00    +0.000 A 
ATOM     28  C   UNL     1       1.178  10.801  18.298  0.00  0.00    +0.000 A 
ATOM     29  C   UNL     1       0.994  11.798  19.269  0.00  0.00    +0.000 A 
ATOM     30  C   UNL     1       0.948  11.477  20.629  0.00  0.00    +0.000 A 
ATOM     31  C   UNL     1       0.971  10.133  20.993  0.00  0.00    +0.000 A 
ATOM     32  C   UNL     1       1.186   9.138  20.029  0.00  0.00    +0.000 A 
BRANCH  30  33
ATOM     33  O   UNL     1       0.963  12.546  21.481  0.00  0.00    +0.000 OA
BRANCH  33  34
ATOM     34  C   UNL     1       1.439  13.816  21.019  0.00  0.00    +0.000 C 
ATOM     35  C   UNL     1       0.915  14.991  21.849  0.00  0.00    +0.000 C 
ATOM     36  C   UNL     1       2.964  13.779  21.165  0.00  0.00    +0.000 C 
ENDBRANCH  33  34
ENDBRANCH  30  33
ENDBRANCH  26  27
ENDBRANCH  24  26
ENDBRANCH  23  24
ENDBRANCH   3  23
TORSDOF 10
ENDMDL
