MODEL 1
REMARK VINA RESULT:      -7.4      0.000      0.000
REMARK  Name = 
REMARK  7 active torsions:
REMARK  status: ('A' for Active; 'I' for Inactive)
REMARK    1  A    between atoms: C_1  and  C_2
REMARK    2  A    between atoms: C_2  and  C_3
REMARK    3  A    between atoms: C_3  and  C_4
REMARK    4  A    between atoms: C_7  and  O_8
REMARK    5  A    between atoms: O_8  and  C_9
REMARK    6  A    between atoms: C_12  and  N_13
REMARK    7  A    between atoms: C_18  and  O_19
REMARK                            x       y       z     vdW  Elec       q    Type
REMARK                         _______ _______ _______ _____ _____    ______ ____
ROOT
ATOM      1  C   UNL     1       6.484   4.861  14.559  0.00  0.00    +0.000 A 
ATOM      2  C   UNL     1       5.350   5.594  14.936  0.00  0.00    +0.000 A 
ATOM      3  C   UNL     1       5.065   5.821  16.285  0.00  0.00    +0.000 A 
ATOM      4  C   UNL     1       5.939   5.357  17.271  0.00  0.00    +0.000 A 
ATOM      5  C   UNL     1       7.051   4.602  16.896  0.00  0.00    +0.000 A 
ATOM      6  C   UNL     1       7.332   4.361  15.556  0.00  0.00    +0.000 A 
ENDROOT
BRANCH   5   7
ATOM      7  O   UNL     1       7.901   4.078  17.830  0.00  0.00    +0.000 OA
ATOM      8  H   UNL     1       8.800   4.350  17.570  0.00  0.00    +0.000 HD
ENDBRANCH   5   7
BRANCH   1   9
ATOM      9  C   UNL     1       6.780   4.613  13.099  0.00  0.00    +0.000 C 
BRANCH   9  11
ATOM     10  C   UNL     1       4.879   3.451  11.920  0.00  0.00    +0.000 C 
ATOM     11  C   UNL     1       6.222   3.274  12.612  0.00  0.00    +0.000 C 
ENDBRANCH   9  11
ENDBRANCH   1   9
BRANCH   4  12
ATOM     12  O   UNL     1       5.737   5.546  18.621  0.00  0.00    +0.000 OA
BRANCH  12  13
ATOM     13  C   UNL     1       4.641   4.971  19.225  0.00  0.00    +0.000 A 
ATOM     14  C   UNL     1       4.679   3.579  19.357  0.00  0.00    +0.000 A 
ATOM     15  C   UNL     1       3.623   2.898  19.970  0.00  0.00    +0.000 A 
ATOM     16  C   UNL     1       2.525   3.624  20.452  0.00  0.00    +0.000 A 
ATOM     17  C   UNL     1       2.490   5.020  20.342  0.00  0.00    +0.000 A 
ATOM     18  C   UNL     1       3.562   5.691  19.750  0.00  0.00    +0.000 A 
BRANCH  16  19
ATOM     19  N   UNL     1       1.404   2.918  21.085  0.00  0.00    +0.000 N 
ATOM     20  O   UNL     1       1.553   2.532  22.254  0.00  0.00    +0.000 OA
ATOM     21  O   UNL     1       0.377   2.752  20.417  0.00  0.00    +0.000 OA
ENDBRANCH  16  19
ENDBRANCH  12  13
ENDBRANCH   4  12
TORSDOF 6
ENDMDL
MODEL 2
REMARK VINA RESULT:      -7.1      0.499      1.374
REMARK  Name = 
REMARK  7 active torsions:
REMARK  status: ('A' for Active; 'I' for Inactive)
REMARK    1  A    between atoms: C_1  and  C_2
REMARK    2  A    between atoms: C_2  and  C_3
REMARK    3  A    between atoms: C_3  and  C_4
REMARK    4  A    between atoms: C_7  and  O_8
REMARK    5  A    between atoms: O_8  and  C_9
REMARK    6  A    between atoms: C_12  and  N_13
REMARK    7  A    between atoms: C_18  and  O_19
REMARK                            x       y       z     vdW  Elec       q    Type
REMARK                         _______ _______ _______ _____ _____    ______ ____
ROOT
ATOM      1  C   UNL     1       6.293   4.434  14.219  0.00  0.00    +0.000 A 
ATOM      2  C   UNL     1       5.082   4.976  14.676  0.00  0.00    +0.000 A 
ATOM      3  C   UNL     1       4.891   5.248  16.033  0.00  0.00    +0.000 A 
ATOM      4  C   UNL     1       5.928   5.025  16.942  0.00  0.00    +0.000 A 
ATOM      5  C   UNL     1       7.120   4.458  16.492  0.00  0.00    +0.000 A 
ATOM      6  C   UNL     1       7.312   4.172  15.145  0.00  0.00    +0.000 A 
ENDROOT
BRANCH   5   7
ATOM      7  O   UNL     1       8.140   4.169  17.356  0.00  0.00    +0.000 OA
ATOM      8  H   UNL     1       7.759   3.609  18.057  0.00  0.00    +0.000 HD
ENDBRANCH   5   7
BRANCH   1   9
ATOM      9  C   UNL     1       6.487   4.135  12.752  0.00  0.00    +0.000 C 
BRANCH   9  11
ATOM     10  C   UNL     1       4.464   3.480  11.400  0.00  0.00    +0.000 C 
ATOM     11  C   UNL     1       5.605   2.980  12.272  0.00  0.00    +0.000 C 
ENDBRANCH   9  11
ENDBRANCH   1   9
BRANCH   4  12
ATOM     12  O   UNL     1       5.825   5.276  18.294  0.00  0.00    +0.000 OA
BRANCH  12  13
ATOM     13  C   UNL     1       4.836   4.651  19.021  0.00  0.00    +0.000 A 
ATOM     14  C   UNL     1       3.820   5.479  19.507  0.00  0.00    +0.000 A 
ATOM     15  C   UNL     1       2.762   4.942  20.245  0.00  0.00    +0.000 A 
ATOM     16  C   UNL     1       2.728   3.563  20.493  0.00  0.00    +0.000 A 
ATOM     17  C   UNL     1       3.730   2.723  19.992  0.00  0.00    +0.000 A 
ATOM     18  C   UNL     1       4.770   3.269  19.235  0.00  0.00    +0.000 A 
BRANCH  16  19
ATOM     19  N   UNL     1       1.628   2.989  21.278  0.00  0.00    +0.000 N 
ATOM     20  O   UNL     1       0.482   3.071  20.811  0.00  0.00    +0.000 OA
ATOM     21  O   UNL     1       1.908   2.455  22.358  0.00  0.00    +0.000 OA
ENDBRANCH  16  19
ENDBRANCH  12  13
ENDBRANCH   4  12
TORSDOF 6
ENDMDL
MODEL 3
REMARK VINA RESULT:      -7.0      1.087      1.170
REMARK  Name = 
REMARK  7 active torsions:
REMARK  status: ('A' for Active; 'I' for Inactive)
REMARK    1  A    between atoms: C_1  and  C_2
REMARK    2  A    between atoms: C_2  and  C_3
REMARK    3  A    between atoms: C_3  and  C_4
REMARK    4  A    between atoms: C_7  and  O_8
REMARK    5  A    between atoms: O_8  and  C_9
REMARK    6  A    between atoms: C_12  and  N_13
REMARK    7  A    between atoms: C_18  and  O_19
REMARK                            x       y       z     vdW  Elec       q    Type
REMARK                         _______ _______ _______ _____ _____    ______ ____
ROOT
ATOM      1  C   UNL     1       6.340   4.222  13.950  0.00  0.00    +0.000 A 
ATOM      2  C   UNL     1       5.422   3.528  14.751  0.00  0.00    +0.000 A 
ATOM      3  C   UNL     1       5.265   3.855  16.100  0.00  0.00    +0.000 A 
ATOM      4  C   UNL     1       5.990   4.914  16.651  0.00  0.00    +0.000 A 
ATOM      5  C   UNL     1       6.925   5.584  15.861  0.00  0.00    +0.000 A 
ATOM      6  C   UNL     1       7.097   5.254  14.521  0.00  0.00    +0.000 A 
ENDROOT
BRANCH   5   7
ATOM      7  O   UNL     1       7.699   6.588  16.374  0.00  0.00    +0.000 OA
ATOM      8  H   UNL     1       8.339   6.165  16.976  0.00  0.00    +0.000 HD
ENDBRANCH   5   7
BRANCH   1   9
ATOM      9  C   UNL     1       6.510   3.855  12.495  0.00  0.00    +0.000 C 
BRANCH   9  11
ATOM     10  C   UNL     1       4.337   3.326  11.335  0.00  0.00    +0.000 C 
ATOM     11  C   UNL     1       5.545   2.751  12.057  0.00  0.00    +0.000 C 
ENDBRANCH   9  11
ENDBRANCH   1   9
BRANCH   4  12
ATOM     12  O   UNL     1       5.887   5.307  17.968  0.00  0.00    +0.000 OA
BRANCH  12  13
ATOM     13  C   UNL     1       4.823   4.863  18.721  0.00  0.00    +0.000 A 
ATOM     14  C   UNL     1       4.926   3.557  19.211  0.00  0.00    +0.000 A 
ATOM     15  C   UNL     1       3.907   3.016  19.999  0.00  0.00    +0.000 A 
ATOM     16  C   UNL     1       2.780   3.794  20.295  0.00  0.00    +0.000 A 
ATOM     17  C   UNL     1       2.679   5.110  19.827  0.00  0.00    +0.000 A 
ATOM     18  C   UNL     1       3.715   5.649  19.061  0.00  0.00    +0.000 A 
BRANCH  16  19
ATOM     19  N   UNL     1       1.697   3.230  21.111  0.00  0.00    +0.000 N 
ATOM     20  O   UNL     1       1.953   2.944  22.291  0.00  0.00    +0.000 OA
ATOM     21  O   UNL     1       0.592   3.077  20.576  0.00  0.00    +0.000 OA
ENDBRANCH  16  19
ENDBRANCH  12  13
ENDBRANCH   4  12
TORSDOF 6
ENDMDL
MODEL 4
REMARK VINA RESULT:      -7.0      3.102      4.565
REMARK  Name = 
REMARK  7 active torsions:
REMARK  status: ('A' for Active; 'I' for Inactive)
REMARK    1  A    between atoms: C_1  and  C_2
REMARK    2  A    between atoms: C_2  and  C_3
REMARK    3  A    between atoms: C_3  and  C_4
REMARK    4  A    between atoms: C_7  and  O_8
REMARK    5  A    between atoms: O_8  and  C_9
REMARK    6  A    between atoms: C_12  and  N_13
REMARK    7  A    between atoms: C_18  and  O_19
REMARK                            x       y       z     vdW  Elec       q    Type
REMARK                         _______ _______ _______ _____ _____    ______ ____
ROOT
ATOM      1  C   UNL     1       7.971   8.222  18.010  0.00  0.00    +0.000 A 
ATOM      2  C   UNL     1       7.069   7.740  17.051  0.00  0.00    +0.000 A 
ATOM      3  C   UNL     1       6.614   6.420  17.101  0.00  0.00    +0.000 A 
ATOM      4  C   UNL     1       7.020   5.582  18.141  0.00  0.00    +0.000 A 
ATOM      5  C   UNL     1       7.940   6.052  19.078  0.00  0.00    +0.000 A 
ATOM      6  C   UNL     1       8.408   7.361  19.026  0.00  0.00    +0.000 A 
ENDROOT
BRANCH   5   7
ATOM      7  O   UNL     1       8.409   5.248  20.080  0.00  0.00    +0.000 OA
ATOM      8  H   UNL     1       9.350   5.085  19.886  0.00  0.00    +0.000 HD
ENDBRANCH   5   7
BRANCH   1   9
ATOM      9  C   UNL     1       8.465   9.648  17.943  0.00  0.00    +0.000 C 
BRANCH   9  11
ATOM     10  C   UNL     1       9.306  11.505  19.424  0.00  0.00    +0.000 C 
ATOM     11  C   UNL     1       9.352  10.013  19.136  0.00  0.00    +0.000 C 
ENDBRANCH   9  11
ENDBRANCH   1   9
BRANCH   4  12
ATOM     12  O   UNL     1       6.610   4.272  18.270  0.00  0.00    +0.000 OA
BRANCH  12  13
ATOM     13  C   UNL     1       5.270   3.998  18.432  0.00  0.00    +0.000 A 
ATOM     14  C   UNL     1       4.687   4.479  19.609  0.00  0.00    +0.000 A 
ATOM     15  C   UNL     1       3.329   4.267  19.862  0.00  0.00    +0.000 A 
ATOM     16  C   UNL     1       2.555   3.570  18.925  0.00  0.00    +0.000 A 
ATOM     17  C   UNL     1       3.126   3.104  17.734  0.00  0.00    +0.000 A 
ATOM     18  C   UNL     1       4.479   3.342  17.480  0.00  0.00    +0.000 A 
BRANCH  16  19
ATOM     19  N   UNL     1       1.131   3.330  19.187  0.00  0.00    +0.000 N 
ATOM     20  O   UNL     1       0.614   3.923  20.147  0.00  0.00    +0.000 OA
ATOM     21  O   UNL     1       0.528   2.556  18.435  0.00  0.00    +0.000 OA
ENDBRANCH  16  19
ENDBRANCH  12  13
ENDBRANCH   4  12
TORSDOF 6
ENDMDL
MODEL 5
REMARK VINA RESULT:      -7.0      2.932      4.404
REMARK  Name = 
REMARK  7 active torsions:
REMARK  status: ('A' for Active; 'I' for Inactive)
REMARK    1  A    between atoms: C_1  and  C_2
REMARK    2  A    between atoms: C_2  and  C_3
REMARK    3  A    between atoms: C_3  and  C_4
REMARK    4  A    between atoms: C_7  and  O_8
REMARK    5  A    between atoms: O_8  and  C_9
REMARK    6  A    between atoms: C_12  and  N_13
REMARK    7  A    between atoms: C_18  and  O_19
REMARK                            x       y       z     vdW  Elec       q    Type
REMARK                         _______ _______ _______ _____ _____    ______ ____
ROOT
ATOM      1  C   UNL     1       7.927   7.395  18.268  0.00  0.00    +0.000 A 
ATOM      2  C   UNL     1       7.956   6.134  18.881  0.00  0.00    +0.000 A 
ATOM      3  C   UNL     1       7.181   5.083  18.384  0.00  0.00    +0.000 A 
ATOM      4  C   UNL     1       6.407   5.268  17.236  0.00  0.00    +0.000 A 
ATOM      5  C   UNL     1       6.355   6.531  16.644  0.00  0.00    +0.000 A 
ATOM      6  C   UNL     1       7.113   7.585  17.143  0.00  0.00    +0.000 A 
ENDROOT
BRANCH   5   7
ATOM      7  O   UNL     1       5.565   6.773  15.555  0.00  0.00    +0.000 OA
ATOM      8  H   UNL     1       5.298   5.903  15.207  0.00  0.00    +0.000 HD
ENDBRANCH   5   7
BRANCH   1   9
ATOM      9  C   UNL     1       8.760   8.528  18.818  0.00  0.00    +0.000 C 
BRANCH   9  11
ATOM     10  C   UNL     1       9.534  10.901  18.471  0.00  0.00    +0.000 C 
ATOM     11  C   UNL     1       8.516   9.843  18.074  0.00  0.00    +0.000 C 
ENDBRANCH   9  11
ENDBRANCH   1   9
BRANCH   4  12
ATOM     12  O   UNL     1       5.624   4.282  16.675  0.00  0.00    +0.000 OA
BRANCH  12  13
ATOM     13  C   UNL     1       4.420   3.962  17.263  0.00  0.00    +0.000 A 
ATOM     14  C   UNL     1       4.183   2.599  17.465  0.00  0.00    +0.000 A 
ATOM     15  C   UNL     1       2.998   2.169  18.067  0.00  0.00    +0.000 A 
ATOM     16  C   UNL     1       2.048   3.118  18.469  0.00  0.00    +0.000 A 
ATOM     17  C   UNL     1       2.287   4.486  18.291  0.00  0.00    +0.000 A 
ATOM     18  C   UNL     1       3.486   4.905  17.710  0.00  0.00    +0.000 A 
BRANCH  16  19
ATOM     19  N   UNL     1       0.793   2.677  19.091  0.00  0.00    +0.000 N 
ATOM     20  O   UNL     1       0.543   3.084  20.236  0.00  0.00    +0.000 OA
ATOM     21  O   UNL     1       0.057   1.929  18.437  0.00  0.00    +0.000 OA
ENDBRANCH  16  19
ENDBRANCH  12  13
ENDBRANCH   4  12
TORSDOF 6
ENDMDL
MODEL 6
REMARK VINA RESULT:      -6.9      1.200      1.802
REMARK  Name = 
REMARK  7 active torsions:
REMARK  status: ('A' for Active; 'I' for Inactive)
REMARK    1  A    between atoms: C_1  and  C_2
REMARK    2  A    between atoms: C_2  and  C_3
REMARK    3  A    between atoms: C_3  and  C_4
REMARK    4  A    between atoms: C_7  and  O_8
REMARK    5  A    between atoms: O_8  and  C_9
REMARK    6  A    between atoms: C_12  and  N_13
REMARK    7  A    between atoms: C_18  and  O_19
REMARK                            x       y       z     vdW  Elec       q    Type
REMARK                         _______ _______ _______ _____ _____    ______ ____
ROOT
ATOM      1  C   UNL     1       6.331   4.179  13.827  0.00  0.00    +0.000 A 
ATOM      2  C   UNL     1       5.204   3.720  14.524  0.00  0.00    +0.000 A 
ATOM      3  C   UNL     1       4.929   4.179  15.815  0.00  0.00    +0.000 A 
ATOM      4  C   UNL     1       5.752   5.142  16.403  0.00  0.00    +0.000 A 
ATOM      5  C   UNL     1       6.889   5.576  15.721  0.00  0.00    +0.000 A 
ATOM      6  C   UNL     1       7.176   5.112  14.442  0.00  0.00    +0.000 A 
ENDROOT
BRANCH   5   7
ATOM      7  O   UNL     1       7.755   6.473  16.283  0.00  0.00    +0.000 OA
ATOM      8  H   UNL     1       8.649   6.101  16.175  0.00  0.00    +0.000 HD
ENDBRANCH   5   7
BRANCH   1   9
ATOM      9  C   UNL     1       6.625   3.670  12.437  0.00  0.00    +0.000 C 
BRANCH   9  11
ATOM     10  C   UNL     1       5.864   1.533  11.341  0.00  0.00    +0.000 C 
ATOM     11  C   UNL     1       5.443   2.908  11.834  0.00  0.00    +0.000 C 
ENDBRANCH   9  11
ENDBRANCH   1   9
BRANCH   4  12
ATOM     12  O   UNL     1       5.545   5.655  17.666  0.00  0.00    +0.000 OA
BRANCH  12  13
ATOM     13  C   UNL     1       4.723   4.980  18.540  0.00  0.00    +0.000 A 
ATOM     14  C   UNL     1       3.501   5.595  18.826  0.00  0.00    +0.000 A 
ATOM     15  C   UNL     1       2.588   4.985  19.691  0.00  0.00    +0.000 A 
ATOM     16  C   UNL     1       2.908   3.750  20.269  0.00  0.00    +0.000 A 
ATOM     17  C   UNL     1       4.121   3.117  19.971  0.00  0.00    +0.000 A 
ATOM     18  C   UNL     1       5.015   3.724  19.086  0.00  0.00    +0.000 A 
BRANCH  16  19
ATOM     19  N   UNL     1       1.962   3.106  21.189  0.00  0.00    +0.000 N 
ATOM     20  O   UNL     1       0.767   3.075  20.858  0.00  0.00    +0.000 OA
ATOM     21  O   UNL     1       2.412   2.630  22.238  0.00  0.00    +0.000 OA
ENDBRANCH  16  19
ENDBRANCH  12  13
ENDBRANCH   4  12
TORSDOF 6
ENDMDL
MODEL 7
REMARK VINA RESULT:      -6.9      2.888      4.519
REMARK  Name = 
REMARK  7 active torsions:
REMARK  status: ('A' for Active; 'I' for Inactive)
REMARK    1  A    between atoms: C_1  and  C_2
REMARK    2  A    between atoms: C_2  and  C_3
REMARK    3  A    between atoms: C_3  and  C_4
REMARK    4  A    between atoms: C_7  and  O_8
REMARK    5  A    between atoms: O_8  and  C_9
REMARK    6  A    between atoms: C_12  and  N_13
REMARK    7  A    between atoms: C_18  and  O_19
REMARK                            x       y       z     vdW  Elec       q    Type
REMARK                         _______ _______ _______ _____ _____    ______ ____
ROOT
ATOM      1  C   UNL     1       7.897   7.398  18.211  0.00  0.00    +0.000 A 
ATOM      2  C   UNL     1       7.924   6.143  18.836  0.00  0.00    +0.000 A 
ATOM      3  C   UNL     1       7.147   5.089  18.349  0.00  0.00    +0.000 A 
ATOM      4  C   UNL     1       6.372   5.266  17.200  0.00  0.00    +0.000 A 
ATOM      5  C   UNL     1       6.323   6.523  16.597  0.00  0.00    +0.000 A 
ATOM      6  C   UNL     1       7.083   7.580  17.086  0.00  0.00    +0.000 A 
ENDROOT
BRANCH   5   7
ATOM      7  O   UNL     1       5.532   6.757  15.506  0.00  0.00    +0.000 OA
ATOM      8  H   UNL     1       5.894   6.217  14.780  0.00  0.00    +0.000 HD
ENDBRANCH   5   7
BRANCH   1   9
ATOM      9  C   UNL     1       8.733   8.534  18.750  0.00  0.00    +0.000 C 
BRANCH   9  11
ATOM     10  C   UNL     1       9.491  10.898  18.319  0.00  0.00    +0.000 C 
ATOM     11  C   UNL     1       8.395   9.871  18.086  0.00  0.00    +0.000 C 
ENDBRANCH   9  11
ENDBRANCH   1   9
BRANCH   4  12
ATOM     12  O   UNL     1       5.586   4.276  16.649  0.00  0.00    +0.000 OA
BRANCH  12  13
ATOM     13  C   UNL     1       4.441   3.882  17.305  0.00  0.00    +0.000 A 
ATOM     14  C   UNL     1       3.545   4.904  17.635  0.00  0.00    +0.000 A 
ATOM     15  C   UNL     1       2.346   4.608  18.290  0.00  0.00    +0.000 A 
ATOM     16  C   UNL     1       2.049   3.277  18.611  0.00  0.00    +0.000 A 
ATOM     17  C   UNL     1       2.931   2.246  18.265  0.00  0.00    +0.000 A 
ATOM     18  C   UNL     1       4.115   2.550  17.590  0.00  0.00    +0.000 A 
BRANCH  16  19
ATOM     19  N   UNL     1       0.798   2.956  19.311  0.00  0.00    +0.000 N 
ATOM     20  O   UNL     1       0.072   2.078  18.820  0.00  0.00    +0.000 OA
ATOM     21  O   UNL     1       0.543   3.577  20.349  0.00  0.00    +0.000 OA
ENDBRANCH  16  19
ENDBRANCH  12  13
ENDBRANCH   4  12
TORSDOF 6
ENDMDL
MODEL 8
REMARK VINA RESULT:      -6.9      2.852      4.250
REMARK  Name = 
REMARK  7 active torsions:
REMARK  status: ('A' for Active; 'I' for Inactive)
REMARK    1  A    between atoms: C_1  and  C_2
REMARK    2  A    between atoms: C_2  and  C_3
REMARK    3  A    between atoms: C_3  and  C_4
REMARK    4  A    between atoms: C_7  and  O_8
REMARK    5  A    between atoms: O_8  and  C_9
REMARK    6  A    between atoms: C_12  and  N_13
REMARK    7  A    between atoms: C_18  and  O_19
REMARK                            x       y       z     vdW  Elec       q    Type
REMARK                         _______ _______ _______ _____ _____    ______ ____
ROOT
ATOM      1  C   UNL     1       7.767   8.012  17.861  0.00  0.00    +0.000 A 
ATOM      2  C   UNL     1       6.783   7.493  17.007  0.00  0.00    +0.000 A 
ATOM      3  C   UNL     1       6.316   6.186  17.170  0.00  0.00    +0.000 A 
ATOM      4  C   UNL     1       6.794   5.401  18.221  0.00  0.00    +0.000 A 
ATOM      5  C   UNL     1       7.794   5.907  19.052  0.00  0.00    +0.000 A 
ATOM      6  C   UNL     1       8.273   7.202  18.886  0.00  0.00    +0.000 A 
ENDROOT
BRANCH   5   7
ATOM      7  O   UNL     1       8.332   5.152  20.057  0.00  0.00    +0.000 OA
ATOM      8  H   UNL     1       8.852   4.449  19.628  0.00  0.00    +0.000 HD
ENDBRANCH   5   7
BRANCH   1   9
ATOM      9  C   UNL     1       8.273   9.422  17.671  0.00  0.00    +0.000 C 
BRANCH   9  11
ATOM     10  C   UNL     1       9.970  11.084  18.511  0.00  0.00    +0.000 C 
ATOM     11  C   UNL     1       9.058   9.926  18.884  0.00  0.00    +0.000 C 
ENDBRANCH   9  11
ENDBRANCH   1   9
BRANCH   4  12
ATOM     12  O   UNL     1       6.378   4.108  18.458  0.00  0.00    +0.000 OA
BRANCH  12  13
ATOM     13  C   UNL     1       5.072   3.878  18.830  0.00  0.00    +0.000 A 
ATOM     14  C   UNL     1       4.514   2.677  18.384  0.00  0.00    +0.000 A 
ATOM     15  C   UNL     1       3.199   2.341  18.719  0.00  0.00    +0.000 A 
ATOM     16  C   UNL     1       2.445   3.220  19.507  0.00  0.00    +0.000 A 
ATOM     17  C   UNL     1       3.004   4.415  19.976  0.00  0.00    +0.000 A 
ATOM     18  C   UNL     1       4.327   4.728  19.656  0.00  0.00    +0.000 A 
BRANCH  16  19
ATOM     19  N   UNL     1       1.058   2.883  19.854  0.00  0.00    +0.000 N 
ATOM     20  O   UNL     1       0.301   2.539  18.934  0.00  0.00    +0.000 OA
ATOM     21  O   UNL     1       0.727   2.960  21.043  0.00  0.00    +0.000 OA
ENDBRANCH  16  19
ENDBRANCH  12  13
ENDBRANCH   4  12
TORSDOF 6
ENDMDL
MODEL 9
REMARK VINA RESULT:      -6.7      2.962      4.536
REMARK  Name = 
REMARK  7 active torsions:
REMARK  status: ('A' for Active; 'I' for Inactive)
REMARK    1  A    between atoms: C_1  and  C_2
REMARK    2  A    between atoms: C_2  and  C_3
REMARK    3  A    between atoms: C_3  and  C_4
REMARK    4  A    between atoms: C_7  and  O_8
REMARK    5  A    between atoms: O_8  and  C_9
REMARK    6  A    between atoms: C_12  and  N_13
REMARK    7  A    between atoms: C_18  and  O_19
REMARK                            x       y       z     vdW  Elec       q    Type
REMARK                         _______ _______ _______ _____ _____    ______ ____
ROOT
ATOM      1  C   UNL     1       7.750   8.030  17.839  0.00  0.00    +0.000 A 
ATOM      2  C   UNL     1       8.206   7.035  18.716  0.00  0.00    +0.000 A 
ATOM      3  C   UNL     1       7.686   5.740  18.655  0.00  0.00    +0.000 A 
ATOM      4  C   UNL     1       6.739   5.413  17.681  0.00  0.00    +0.000 A 
ATOM      5  C   UNL     1       6.264   6.410  16.829  0.00  0.00    +0.000 A 
ATOM      6  C   UNL     1       6.767   7.705  16.895  0.00  0.00    +0.000 A 
ENDROOT
BRANCH   5   7
ATOM      7  O   UNL     1       5.295   6.149  15.900  0.00  0.00    +0.000 OA
ATOM      8  H   UNL     1       5.500   6.700  15.123  0.00  0.00    +0.000 HD
ENDBRANCH   5   7
BRANCH   1   9
ATOM      9  C   UNL     1       8.311   9.430  17.919  0.00  0.00    +0.000 C 
BRANCH   9  11
ATOM     10  C   UNL     1       9.729  11.054  19.223  0.00  0.00    +0.000 C 
ATOM     11  C   UNL     1       9.147   9.650  19.181  0.00  0.00    +0.000 C 
ENDBRANCH   9  11
ENDBRANCH   1   9
BRANCH   4  12
ATOM     12  O   UNL     1       6.185   4.158  17.546  0.00  0.00    +0.000 OA
BRANCH  12  13
ATOM     13  C   UNL     1       4.920   3.924  18.039  0.00  0.00    +0.000 A 
ATOM     14  C   UNL     1       4.085   3.147  17.230  0.00  0.00    +0.000 A 
ATOM     15  C   UNL     1       2.786   2.839  17.645  0.00  0.00    +0.000 A 
ATOM     16  C   UNL     1       2.328   3.316  18.881  0.00  0.00    +0.000 A 
ATOM     17  C   UNL     1       3.166   4.077  19.706  0.00  0.00    +0.000 A 
ATOM     18  C   UNL     1       4.470   4.358  19.292  0.00  0.00    +0.000 A 
BRANCH  16  19
ATOM     19  N   UNL     1       0.961   3.010  19.321  0.00  0.00    +0.000 N 
ATOM     20  O   UNL     1       0.240   2.360  18.549  0.00  0.00    +0.000 OA
ATOM     21  O   UNL     1       0.611   3.414  20.436  0.00  0.00    +0.000 OA
ENDBRANCH  16  19
ENDBRANCH  12  13
ENDBRANCH   4  12
TORSDOF 6
ENDMDL
