MODEL 1
REMARK VINA RESULT:      -8.4      0.000      0.000
REMARK  Name = 
REMARK  8 active torsions:
REMARK  status: ('A' for Active; 'I' for Inactive)
REMARK    1  A    between atoms: C_1  and  C_2
REMARK    2  A    between atoms: C_2  and  C_3
REMARK    3  A    between atoms: C_2  and  C_4
REMARK    4  A    between atoms: C_2  and  N_5
REMARK    5  A    between atoms: C_7  and  N_8
REMARK    6  A    between atoms: C_9  and  C_11
REMARK    7  A    between atoms: N_13  and  C_14
REMARK    8  A    between atoms: C_14  and  C_15
REMARK                            x       y       z     vdW  Elec       q    Type
REMARK                         _______ _______ _______ _____ _____    ______ ____
ROOT
ATOM      1  N   UNL     1       7.694   8.688  17.555  0.00  0.00    +0.000 N 
ATOM      2  C   UNL     1       7.719   7.362  17.950  0.00  0.00    +0.000 C 
ATOM      3  O   UNL     1       8.383   6.890  18.874  0.00  0.00    +0.000 OA
ATOM      4  H   UNL     1       7.089   8.918  16.772  0.00  0.00    +0.000 HD
ENDROOT
BRANCH   2   5
ATOM      5  C   UNL     1       6.784   6.475  17.126  0.00  0.00    +0.000 C 
ATOM      6  C   UNL     1       6.375   5.273  17.998  0.00  0.00    +0.000 C 
ATOM      7  N   UNL     1       5.423   4.358  17.326  0.00  0.00    +0.000 NA
ATOM      8  C   UNL     1       6.028   3.970  16.029  0.00  0.00    +0.000 C 
ATOM      9  C   UNL     1       6.499   5.167  15.177  0.00  0.00    +0.000 C 
ATOM     10  O   UNL     1       7.394   6.027  15.902  0.00  0.00    +0.000 OA
BRANCH   7  11
ATOM     11  C   UNL     1       4.090   4.957  17.118  0.00  0.00    +0.000 C 
BRANCH  11  12
ATOM     12  C   UNL     1       2.979   4.382  17.973  0.00  0.00    +0.000 A 
ATOM     13  C   UNL     1       2.409   3.140  17.646  0.00  0.00    +0.000 A 
ATOM     14  C   UNL     1       1.417   2.578  18.452  0.00  0.00    +0.000 A 
ATOM     15  C   UNL     1       0.987   3.249  19.594  0.00  0.00    +0.000 A 
ATOM     16  C   UNL     1       1.538   4.486  19.924  0.00  0.00    +0.000 A 
ATOM     17  C   UNL     1       2.527   5.052  19.118  0.00  0.00    +0.000 A 
ENDBRANCH  11  12
ENDBRANCH   7  11
ENDBRANCH   2   5
BRANCH   1  20
ATOM     18  N   UNL     1       9.474  11.593  18.545  0.00  0.00    +0.000 N 
ATOM     19  C   UNL     1       8.682  10.942  17.641  0.00  0.00    +0.000 A 
ATOM     20  C   UNL     1       8.443   9.689  18.138  0.00  0.00    +0.000 A 
ATOM     21  C   UNL     1       9.133   9.674  19.368  0.00  0.00    +0.000 A 
ATOM     22  N   UNL     1       9.761  10.827  19.621  0.00  0.00    +0.000 NA
BRANCH  18  24
ATOM     23  C   UNL     1      10.788  13.084  17.098  0.00  0.00    +0.000 C 
ATOM     24  C   UNL     1       9.976  12.972  18.405  0.00  0.00    +0.000 C 
ATOM     25  C   UNL     1      10.885  13.312  19.603  0.00  0.00    +0.000 C 
ATOM     26  C   UNL     1       8.837  14.008  18.360  0.00  0.00    +0.000 C 
ENDBRANCH  18  24
ENDBRANCH   1  20
TORSDOF 5
ENDMDL
MODEL 2
REMARK VINA RESULT:      -8.4      0.413      1.338
REMARK  Name = 
REMARK  8 active torsions:
REMARK  status: ('A' for Active; 'I' for Inactive)
REMARK    1  A    between atoms: C_1  and  C_2
REMARK    2  A    between atoms: C_2  and  C_3
REMARK    3  A    between atoms: C_2  and  C_4
REMARK    4  A    between atoms: C_2  and  N_5
REMARK    5  A    between atoms: C_7  and  N_8
REMARK    6  A    between atoms: C_9  and  C_11
REMARK    7  A    between atoms: N_13  and  C_14
REMARK    8  A    between atoms: C_14  and  C_15
REMARK                            x       y       z     vdW  Elec       q    Type
REMARK                         _______ _______ _______ _____ _____    ______ ____
ROOT
ATOM      1  N   UNL     1       7.682   8.863  17.683  0.00  0.00    +0.000 N 
ATOM      2  C   UNL     1       7.749   7.528  18.042  0.00  0.00    +0.000 C 
ATOM      3  O   UNL     1       8.492   7.038  18.893  0.00  0.00    +0.000 OA
ATOM      4  H   UNL     1       7.011   9.108  16.961  0.00  0.00    +0.000 HD
ENDROOT
BRANCH   2   5
ATOM      5  C   UNL     1       6.753   6.654  17.278  0.00  0.00    +0.000 C 
ATOM      6  C   UNL     1       6.349   5.481  18.191  0.00  0.00    +0.000 C 
ATOM      7  N   UNL     1       5.341   4.582  17.580  0.00  0.00    +0.000 NA
ATOM      8  C   UNL     1       5.875   4.153  16.265  0.00  0.00    +0.000 C 
ATOM      9  C   UNL     1       6.341   5.319  15.369  0.00  0.00    +0.000 C 
ATOM     10  O   UNL     1       7.293   6.165  16.036  0.00  0.00    +0.000 OA
BRANCH   7  11
ATOM     11  C   UNL     1       4.018   5.217  17.421  0.00  0.00    +0.000 C 
BRANCH  11  12
ATOM     12  C   UNL     1       2.946   4.731  18.375  0.00  0.00    +0.000 A 
ATOM     13  C   UNL     1       2.776   5.356  19.622  0.00  0.00    +0.000 A 
ATOM     14  C   UNL     1       1.761   4.948  20.490  0.00  0.00    +0.000 A 
ATOM     15  C   UNL     1       0.903   3.915  20.119  0.00  0.00    +0.000 A 
ATOM     16  C   UNL     1       1.067   3.282  18.888  0.00  0.00    +0.000 A 
ATOM     17  C   UNL     1       2.083   3.685  18.020  0.00  0.00    +0.000 A 
ENDBRANCH  11  12
ENDBRANCH   7  11
ENDBRANCH   2   5
BRANCH   1  20
ATOM     18  N   UNL     1       9.549  11.746  18.575  0.00  0.00    +0.000 N 
ATOM     19  C   UNL     1       8.705  11.103  17.712  0.00  0.00    +0.000 A 
ATOM     20  C   UNL     1       8.473   9.855  18.226  0.00  0.00    +0.000 A 
ATOM     21  C   UNL     1       9.222   9.834  19.420  0.00  0.00    +0.000 A 
ATOM     22  N   UNL     1       9.878  10.980  19.639  0.00  0.00    +0.000 NA
BRANCH  18  24
ATOM     23  C   UNL     1       8.874  14.083  18.226  0.00  0.00    +0.000 C 
ATOM     24  C   UNL     1      10.062  13.117  18.405  0.00  0.00    +0.000 C 
ATOM     25  C   UNL     1      10.963  13.177  17.155  0.00  0.00    +0.000 C 
ATOM     26  C   UNL     1      10.892  13.586  19.616  0.00  0.00    +0.000 C 
ENDBRANCH  18  24
ENDBRANCH   1  20
TORSDOF 5
ENDMDL
MODEL 3
REMARK VINA RESULT:      -8.3      0.643      1.149
REMARK  Name = 
REMARK  8 active torsions:
REMARK  status: ('A' for Active; 'I' for Inactive)
REMARK    1  A    between atoms: C_1  and  C_2
REMARK    2  A    between atoms: C_2  and  C_3
REMARK    3  A    between atoms: C_2  and  C_4
REMARK    4  A    between atoms: C_2  and  N_5
REMARK    5  A    between atoms: C_7  and  N_8
REMARK    6  A    between atoms: C_9  and  C_11
REMARK    7  A    between atoms: N_13  and  C_14
REMARK    8  A    between atoms: C_14  and  C_15
REMARK                            x       y       z     vdW  Elec       q    Type
REMARK                         _______ _______ _______ _____ _____    ______ ____
ROOT
ATOM      1  N   UNL     1       7.712   8.661  17.498  0.00  0.00    +0.000 N 
ATOM      2  C   UNL     1       7.732   7.338  17.903  0.00  0.00    +0.000 C 
ATOM      3  O   UNL     1       8.332   6.883  18.878  0.00  0.00    +0.000 OA
ATOM      4  H   UNL     1       7.165   8.875  16.670  0.00  0.00    +0.000 HD
ENDROOT
BRANCH   2   5
ATOM      5  C   UNL     1       6.879   6.428  17.017  0.00  0.00    +0.000 C 
ATOM      6  C   UNL     1       6.584   5.137  17.802  0.00  0.00    +0.000 C 
ATOM      7  N   UNL     1       5.717   4.187  17.065  0.00  0.00    +0.000 NA
ATOM      8  C   UNL     1       6.350   3.948  15.746  0.00  0.00    +0.000 C 
ATOM      9  C   UNL     1       6.708   5.238  14.981  0.00  0.00    +0.000 C 
ATOM     10  O   UNL     1       7.523   6.124  15.766  0.00  0.00    +0.000 OA
BRANCH   7  11
ATOM     11  C   UNL     1       4.334   4.676  16.896  0.00  0.00    +0.000 C 
BRANCH  11  12
ATOM     12  C   UNL     1       3.263   3.835  17.559  0.00  0.00    +0.000 A 
ATOM     13  C   UNL     1       3.547   2.518  17.959  0.00  0.00    +0.000 A 
ATOM     14  C   UNL     1       2.582   1.750  18.614  0.00  0.00    +0.000 A 
ATOM     15  C   UNL     1       1.325   2.289  18.878  0.00  0.00    +0.000 A 
ATOM     16  C   UNL     1       1.029   3.591  18.478  0.00  0.00    +0.000 A 
ATOM     17  C   UNL     1       1.990   4.361  17.820  0.00  0.00    +0.000 A 
ENDBRANCH  11  12
ENDBRANCH   7  11
ENDBRANCH   2   5
BRANCH   1  20
ATOM     18  N   UNL     1       9.334  11.614  18.612  0.00  0.00    +0.000 N 
ATOM     19  C   UNL     1       8.606  10.950  17.664  0.00  0.00    +0.000 A 
ATOM     20  C   UNL     1       8.397   9.679  18.129  0.00  0.00    +0.000 A 
ATOM     21  C   UNL     1       9.036   9.667  19.386  0.00  0.00    +0.000 A 
ATOM     22  N   UNL     1       9.607  10.839  19.686  0.00  0.00    +0.000 NA
BRANCH  18  24
ATOM     23  C   UNL     1      10.488  13.409  19.832  0.00  0.00    +0.000 C 
ATOM     24  C   UNL     1       9.786  13.014  18.517  0.00  0.00    +0.000 C 
ATOM     25  C   UNL     1       8.567  13.932  18.292  0.00  0.00    +0.000 C 
ATOM     26  C   UNL     1      10.772  13.233  17.354  0.00  0.00    +0.000 C 
ENDBRANCH  18  24
ENDBRANCH   1  20
TORSDOF 5
ENDMDL
MODEL 4
REMARK VINA RESULT:      -8.1      0.663      1.274
REMARK  Name = 
REMARK  8 active torsions:
REMARK  status: ('A' for Active; 'I' for Inactive)
REMARK    1  A    between atoms: C_1  and  C_2
REMARK    2  A    between atoms: C_2  and  C_3
REMARK    3  A    between atoms: C_2  and  C_4
REMARK    4  A    between atoms: C_2  and  N_5
REMARK    5  A    between atoms: C_7  and  N_8
REMARK    6  A    between atoms: C_9  and  C_11
REMARK    7  A    between atoms: N_13  and  C_14
REMARK    8  A    between atoms: C_14  and  C_15
REMARK                            x       y       z     vdW  Elec       q    Type
REMARK                         _______ _______ _______ _____ _____    ______ ____
ROOT
ATOM      1  N   UNL     1       7.683   8.639  17.521  0.00  0.00    +0.000 N 
ATOM      2  C   UNL     1       7.721   7.311  17.909  0.00  0.00    +0.000 C 
ATOM      3  O   UNL     1       8.379   6.842  18.838  0.00  0.00    +0.000 OA
ATOM      4  H   UNL     1       7.084   8.866  16.732  0.00  0.00    +0.000 HD
ENDROOT
BRANCH   2   5
ATOM      5  C   UNL     1       6.808   6.417  17.068  0.00  0.00    +0.000 C 
ATOM      6  C   UNL     1       6.400   5.207  17.930  0.00  0.00    +0.000 C 
ATOM      7  N   UNL     1       5.468   4.283  17.240  0.00  0.00    +0.000 NA
ATOM      8  C   UNL     1       6.096   3.909  15.950  0.00  0.00    +0.000 C 
ATOM      9  C   UNL     1       6.564   5.115  15.109  0.00  0.00    +0.000 C 
ATOM     10  O   UNL     1       7.439   5.981  15.850  0.00  0.00    +0.000 OA
BRANCH   7  11
ATOM     11  C   UNL     1       4.131   4.868  17.018  0.00  0.00    +0.000 C 
BRANCH  11  12
ATOM     12  C   UNL     1       3.305   5.094  18.267  0.00  0.00    +0.000 A 
ATOM     13  C   UNL     1       3.100   6.398  18.750  0.00  0.00    +0.000 A 
ATOM     14  C   UNL     1       2.302   6.622  19.874  0.00  0.00    +0.000 A 
ATOM     15  C   UNL     1       1.698   5.549  20.524  0.00  0.00    +0.000 A 
ATOM     16  C   UNL     1       1.902   4.251  20.059  0.00  0.00    +0.000 A 
ATOM     17  C   UNL     1       2.702   4.022  18.938  0.00  0.00    +0.000 A 
ENDBRANCH  11  12
ENDBRANCH   7  11
ENDBRANCH   2   5
BRANCH   1  20
ATOM     18  N   UNL     1       9.420  11.558  18.546  0.00  0.00    +0.000 N 
ATOM     19  C   UNL     1       8.651  10.901  17.626  0.00  0.00    +0.000 A 
ATOM     20  C   UNL     1       8.412   9.646  18.119  0.00  0.00    +0.000 A 
ATOM     21  C   UNL     1       9.077   9.637  19.363  0.00  0.00    +0.000 A 
ATOM     22  N   UNL     1       9.690  10.795  19.629  0.00  0.00    +0.000 NA
BRANCH  18  24
ATOM     23  C   UNL     1      10.964  12.998  17.288  0.00  0.00    +0.000 C 
ATOM     24  C   UNL     1       9.913  12.941  18.416  0.00  0.00    +0.000 C 
ATOM     25  C   UNL     1      10.563  13.382  19.743  0.00  0.00    +0.000 C 
ATOM     26  C   UNL     1       8.786  13.936  18.080  0.00  0.00    +0.000 C 
ENDBRANCH  18  24
ENDBRANCH   1  20
TORSDOF 5
ENDMDL
MODEL 5
REMARK VINA RESULT:      -7.8      1.034      1.854
REMARK  Name = 
REMARK  8 active torsions:
REMARK  status: ('A' for Active; 'I' for Inactive)
REMARK    1  A    between atoms: C_1  and  C_2
REMARK    2  A    between atoms: C_2  and  C_3
REMARK    3  A    between atoms: C_2  and  C_4
REMARK    4  A    between atoms: C_2  and  N_5
REMARK    5  A    between atoms: C_7  and  N_8
REMARK    6  A    between atoms: C_9  and  C_11
REMARK    7  A    between atoms: N_13  and  C_14
REMARK    8  A    between atoms: C_14  and  C_15
REMARK                            x       y       z     vdW  Elec       q    Type
REMARK                         _______ _______ _______ _____ _____    ______ ____
ROOT
ATOM      1  N   UNL     1       7.615   9.249  17.399  0.00  0.00    +0.000 N 
ATOM      2  C   UNL     1       7.826   7.981  17.912  0.00  0.00    +0.000 C 
ATOM      3  O   UNL     1       8.614   7.681  18.810  0.00  0.00    +0.000 OA
ATOM      4  H   UNL     1       6.924   9.331  16.658  0.00  0.00    +0.000 HD
ENDROOT
BRANCH   2   5
ATOM      5  C   UNL     1       6.936   6.919  17.265  0.00  0.00    +0.000 C 
ATOM      6  C   UNL     1       6.570   5.883  18.344  0.00  0.00    +0.000 C 
ATOM      7  N   UNL     1       5.662   4.819  17.852  0.00  0.00    +0.000 NA
ATOM      8  C   UNL     1       6.294   4.225  16.649  0.00  0.00    +0.000 C 
ATOM      9  C   UNL     1       6.723   5.263  15.591  0.00  0.00    +0.000 C 
ATOM     10  O   UNL     1       7.575   6.279  16.145  0.00  0.00    +0.000 OA
BRANCH   7  11
ATOM     11  C   UNL     1       4.307   5.313  17.536  0.00  0.00    +0.000 C 
BRANCH  11  12
ATOM     12  C   UNL     1       3.208   4.826  18.457  0.00  0.00    +0.000 A 
ATOM     13  C   UNL     1       3.179   5.239  19.800  0.00  0.00    +0.000 A 
ATOM     14  C   UNL     1       2.144   4.834  20.646  0.00  0.00    +0.000 A 
ATOM     15  C   UNL     1       1.127   4.017  20.160  0.00  0.00    +0.000 A 
ATOM     16  C   UNL     1       1.149   3.594  18.832  0.00  0.00    +0.000 A 
ATOM     17  C   UNL     1       2.184   3.994  17.984  0.00  0.00    +0.000 A 
ENDBRANCH  11  12
ENDBRANCH   7  11
ENDBRANCH   2   5
BRANCH   1  20
ATOM     18  N   UNL     1       9.694  11.761  18.799  0.00  0.00    +0.000 N 
ATOM     19  C   UNL     1       9.355  10.443  18.669  0.00  0.00    +0.000 A 
ATOM     20  C   UNL     1       8.288  10.380  17.813  0.00  0.00    +0.000 A 
ATOM     21  C   UNL     1       8.053  11.726  17.464  0.00  0.00    +0.000 A 
ATOM     22  N   UNL     1       8.904  12.570  18.059  0.00  0.00    +0.000 NA
BRANCH  18  24
ATOM     23  C   UNL     1      10.427  12.098  21.121  0.00  0.00    +0.000 C 
ATOM     24  C   UNL     1      10.791  12.283  19.633  0.00  0.00    +0.000 C 
ATOM     25  C   UNL     1      10.991  13.783  19.338  0.00  0.00    +0.000 C 
ATOM     26  C   UNL     1      12.125  11.560  19.366  0.00  0.00    +0.000 C 
ENDBRANCH  18  24
ENDBRANCH   1  20
TORSDOF 5
ENDMDL
MODEL 6
REMARK VINA RESULT:      -7.8      1.018      1.460
REMARK  Name = 
REMARK  8 active torsions:
REMARK  status: ('A' for Active; 'I' for Inactive)
REMARK    1  A    between atoms: C_1  and  C_2
REMARK    2  A    between atoms: C_2  and  C_3
REMARK    3  A    between atoms: C_2  and  C_4
REMARK    4  A    between atoms: C_2  and  N_5
REMARK    5  A    between atoms: C_7  and  N_8
REMARK    6  A    between atoms: C_9  and  C_11
REMARK    7  A    between atoms: N_13  and  C_14
REMARK    8  A    between atoms: C_14  and  C_15
REMARK                            x       y       z     vdW  Elec       q    Type
REMARK                         _______ _______ _______ _____ _____    ______ ____
ROOT
ATOM      1  N   UNL     1       7.566   9.249  17.403  0.00  0.00    +0.000 N 
ATOM      2  C   UNL     1       7.790   7.976  17.898  0.00  0.00    +0.000 C 
ATOM      3  O   UNL     1       8.591   7.669  18.782  0.00  0.00    +0.000 OA
ATOM      4  H   UNL     1       6.866   9.336  16.672  0.00  0.00    +0.000 HD
ENDROOT
BRANCH   2   5
ATOM      5  C   UNL     1       6.897   6.917  17.250  0.00  0.00    +0.000 C 
ATOM      6  C   UNL     1       6.484   5.910  18.341  0.00  0.00    +0.000 C 
ATOM      7  N   UNL     1       5.569   4.853  17.847  0.00  0.00    +0.000 NA
ATOM      8  C   UNL     1       6.220   4.223  16.673  0.00  0.00    +0.000 C 
ATOM      9  C   UNL     1       6.694   5.230  15.605  0.00  0.00    +0.000 C 
ATOM     10  O   UNL     1       7.551   6.242  16.160  0.00  0.00    +0.000 OA
BRANCH   7  11
ATOM     11  C   UNL     1       4.232   5.366  17.487  0.00  0.00    +0.000 C 
BRANCH  11  12
ATOM     12  C   UNL     1       3.099   4.907  18.381  0.00  0.00    +0.000 A 
ATOM     13  C   UNL     1       2.216   3.905  17.943  0.00  0.00    +0.000 A 
ATOM     14  C   UNL     1       1.196   3.442  18.777  0.00  0.00    +0.000 A 
ATOM     15  C   UNL     1       1.050   3.971  20.057  0.00  0.00    +0.000 A 
ATOM     16  C   UNL     1       1.914   4.971  20.499  0.00  0.00    +0.000 A 
ATOM     17  C   UNL     1       2.932   5.440  19.667  0.00  0.00    +0.000 A 
ENDBRANCH  11  12
ENDBRANCH   7  11
ENDBRANCH   2   5
BRANCH   1  20
ATOM     18  N   UNL     1       9.610  11.761  18.853  0.00  0.00    +0.000 N 
ATOM     19  C   UNL     1       9.244  10.448  18.749  0.00  0.00    +0.000 A 
ATOM     20  C   UNL     1       8.239  10.378  17.822  0.00  0.00    +0.000 A 
ATOM     21  C   UNL     1       8.066  11.715  17.406  0.00  0.00    +0.000 A 
ATOM     22  N   UNL     1       8.896  12.560  18.028  0.00  0.00    +0.000 NA
BRANCH  18  24
ATOM     23  C   UNL     1      10.840  13.796  19.476  0.00  0.00    +0.000 C 
ATOM     24  C   UNL     1      10.659  12.288  19.743  0.00  0.00    +0.000 C 
ATOM     25  C   UNL     1      11.987  11.556  19.461  0.00  0.00    +0.000 C 
ATOM     26  C   UNL     1      10.314  12.096  21.232  0.00  0.00    +0.000 C 
ENDBRANCH  18  24
ENDBRANCH   1  20
TORSDOF 5
ENDMDL
MODEL 7
REMARK VINA RESULT:      -7.7      5.279      7.299
REMARK  Name = 
REMARK  8 active torsions:
REMARK  status: ('A' for Active; 'I' for Inactive)
REMARK    1  A    between atoms: C_1  and  C_2
REMARK    2  A    between atoms: C_2  and  C_3
REMARK    3  A    between atoms: C_2  and  C_4
REMARK    4  A    between atoms: C_2  and  N_5
REMARK    5  A    between atoms: C_7  and  N_8
REMARK    6  A    between atoms: C_9  and  C_11
REMARK    7  A    between atoms: N_13  and  C_14
REMARK    8  A    between atoms: C_14  and  C_15
REMARK                            x       y       z     vdW  Elec       q    Type
REMARK                         _______ _______ _______ _____ _____    ______ ____
ROOT
ATOM      1  N   UNL     1       1.525   7.161  20.759  0.00  0.00    +0.000 N 
ATOM      2  C   UNL     1       2.242   6.813  19.628  0.00  0.00    +0.000 C 
ATOM      3  O   UNL     1       2.703   7.589  18.790  0.00  0.00    +0.000 OA
ATOM      4  H   UNL     1       1.215   6.398  21.355  0.00  0.00    +0.000 HD
ENDROOT
BRANCH   2   5
ATOM      5  C   UNL     1       2.461   5.304  19.500  0.00  0.00    +0.000 C 
ATOM      6  C   UNL     1       2.351   4.931  18.010  0.00  0.00    +0.000 C 
ATOM      7  N   UNL     1       2.595   3.493  17.746  0.00  0.00    +0.000 NA
ATOM      8  C   UNL     1       1.677   2.724  18.620  0.00  0.00    +0.000 C 
ATOM      9  C   UNL     1       1.735   3.137  20.105  0.00  0.00    +0.000 C 
ATOM     10  O   UNL     1       1.520   4.547  20.283  0.00  0.00    +0.000 OA
BRANCH   7  11
ATOM     11  C   UNL     1       3.996   3.089  17.982  0.00  0.00    +0.000 C 
BRANCH  11  12
ATOM     12  C   UNL     1       5.038   3.890  17.228  0.00  0.00    +0.000 A 
ATOM     13  C   UNL     1       6.099   4.497  17.922  0.00  0.00    +0.000 A 
ATOM     14  C   UNL     1       7.091   5.197  17.233  0.00  0.00    +0.000 A 
ATOM     15  C   UNL     1       7.036   5.296  15.845  0.00  0.00    +0.000 A 
ATOM     16  C   UNL     1       5.984   4.706  15.147  0.00  0.00    +0.000 A 
ATOM     17  C   UNL     1       4.988   4.007  15.833  0.00  0.00    +0.000 A 
ENDBRANCH  11  12
ENDBRANCH   7  11
ENDBRANCH   2   5
BRANCH   1  20
ATOM     18  N   UNL     1       0.513  10.550  21.049  0.00  0.00    +0.000 N 
ATOM     19  C   UNL     1       0.678   9.426  20.289  0.00  0.00    +0.000 A 
ATOM     20  C   UNL     1       1.195   8.456  21.105  0.00  0.00    +0.000 A 
ATOM     21  C   UNL     1       1.304   9.090  22.360  0.00  0.00    +0.000 A 
ATOM     22  N   UNL     1       0.891  10.361  22.333  0.00  0.00    +0.000 NA
BRANCH  18  24
ATOM     23  C   UNL     1      -0.377  12.722  21.777  0.00  0.00    +0.000 C 
ATOM     24  C   UNL     1      -0.016  11.838  20.566  0.00  0.00    +0.000 C 
ATOM     25  C   UNL     1      -1.281  11.588  19.720  0.00  0.00    +0.000 C 
ATOM     26  C   UNL     1       1.000  12.599  19.694  0.00  0.00    +0.000 C 
ENDBRANCH  18  24
ENDBRANCH   1  20
TORSDOF 5
ENDMDL
MODEL 8
REMARK VINA RESULT:      -7.7      5.292      7.453
REMARK  Name = 
REMARK  8 active torsions:
REMARK  status: ('A' for Active; 'I' for Inactive)
REMARK    1  A    between atoms: C_1  and  C_2
REMARK    2  A    between atoms: C_2  and  C_3
REMARK    3  A    between atoms: C_2  and  C_4
REMARK    4  A    between atoms: C_2  and  N_5
REMARK    5  A    between atoms: C_7  and  N_8
REMARK    6  A    between atoms: C_9  and  C_11
REMARK    7  A    between atoms: N_13  and  C_14
REMARK    8  A    between atoms: C_14  and  C_15
REMARK                            x       y       z     vdW  Elec       q    Type
REMARK                         _______ _______ _______ _____ _____    ______ ____
ROOT
ATOM      1  N   UNL     1       1.413   7.113  20.832  0.00  0.00    +0.000 N 
ATOM      2  C   UNL     1       2.167   6.795  19.717  0.00  0.00    +0.000 C 
ATOM      3  O   UNL     1       2.642   7.592  18.906  0.00  0.00    +0.000 OA
ATOM      4  H   UNL     1       1.096   6.336  21.405  0.00  0.00    +0.000 HD
ENDROOT
BRANCH   2   5
ATOM      5  C   UNL     1       2.409   5.291  19.568  0.00  0.00    +0.000 C 
ATOM      6  C   UNL     1       2.316   4.939  18.071  0.00  0.00    +0.000 C 
ATOM      7  N   UNL     1       2.583   3.509  17.788  0.00  0.00    +0.000 NA
ATOM      8  C   UNL     1       1.668   2.714  18.643  0.00  0.00    +0.000 C 
ATOM      9  C   UNL     1       1.709   3.105  20.134  0.00  0.00    +0.000 C 
ATOM     10  O   UNL     1       1.472   4.509  20.331  0.00  0.00    +0.000 OA
BRANCH   7  11
ATOM     11  C   UNL     1       3.987   3.122  18.029  0.00  0.00    +0.000 C 
BRANCH  11  12
ATOM     12  C   UNL     1       5.025   3.969  17.323  0.00  0.00    +0.000 A 
ATOM     13  C   UNL     1       6.001   4.655  18.067  0.00  0.00    +0.000 A 
ATOM     14  C   UNL     1       6.991   5.401  17.424  0.00  0.00    +0.000 A 
ATOM     15  C   UNL     1       7.018   5.468  16.033  0.00  0.00    +0.000 A 
ATOM     16  C   UNL     1       6.051   4.800  15.285  0.00  0.00    +0.000 A 
ATOM     17  C   UNL     1       5.057   4.055  15.924  0.00  0.00    +0.000 A 
ENDBRANCH  11  12
ENDBRANCH   7  11
ENDBRANCH   2   5
BRANCH   1  20
ATOM     18  N   UNL     1       0.206  10.429  21.206  0.00  0.00    +0.000 N 
ATOM     19  C   UNL     1       0.299   9.280  20.471  0.00  0.00    +0.000 A 
ATOM     20  C   UNL     1       1.058   8.397  21.192  0.00  0.00    +0.000 A 
ATOM     21  C   UNL     1       1.378   9.106  22.369  0.00  0.00    +0.000 A 
ATOM     22  N   UNL     1       0.863  10.340  22.384  0.00  0.00    +0.000 NA
BRANCH  18  24
ATOM     23  C   UNL     1      -1.224  11.389  19.453  0.00  0.00    +0.000 C 
ATOM     24  C   UNL     1      -0.520  11.646  20.801  0.00  0.00    +0.000 C 
ATOM     25  C   UNL     1       0.478  12.811  20.643  0.00  0.00    +0.000 C 
ATOM     26  C   UNL     1      -1.584  12.064  21.833  0.00  0.00    +0.000 C 
ENDBRANCH  18  24
ENDBRANCH   1  20
TORSDOF 5
ENDMDL
MODEL 9
REMARK VINA RESULT:      -7.6      5.206      6.384
REMARK  Name = 
REMARK  8 active torsions:
REMARK  status: ('A' for Active; 'I' for Inactive)
REMARK    1  A    between atoms: C_1  and  C_2
REMARK    2  A    between atoms: C_2  and  C_3
REMARK    3  A    between atoms: C_2  and  C_4
REMARK    4  A    between atoms: C_2  and  N_5
REMARK    5  A    between atoms: C_7  and  N_8
REMARK    6  A    between atoms: C_9  and  C_11
REMARK    7  A    between atoms: N_13  and  C_14
REMARK    8  A    between atoms: C_14  and  C_15
REMARK                            x       y       z     vdW  Elec       q    Type
REMARK                         _______ _______ _______ _____ _____    ______ ____
ROOT
ATOM      1  N   UNL     1       2.325   7.420  19.343  0.00  0.00    +0.000 N 
ATOM      2  C   UNL     1       2.893   7.571  18.090  0.00  0.00    +0.000 C 
ATOM      3  O   UNL     1       2.856   8.584  17.391  0.00  0.00    +0.000 OA
ATOM      4  H   UNL     1       2.447   6.517  19.793  0.00  0.00    +0.000 HD
ENDROOT
BRANCH   2   5
ATOM      5  C   UNL     1       3.641   6.322  17.619  0.00  0.00    +0.000 C 
ATOM      6  C   UNL     1       4.414   5.748  18.821  0.00  0.00    +0.000 C 
ATOM      7  N   UNL     1       5.146   4.498  18.505  0.00  0.00    +0.000 NA
ATOM      8  C   UNL     1       6.002   4.778  17.327  0.00  0.00    +0.000 C 
ATOM      9  C   UNL     1       5.247   5.413  16.141  0.00  0.00    +0.000 C 
ATOM     10  O   UNL     1       4.537   6.601  16.528  0.00  0.00    +0.000 OA
BRANCH   7  11
ATOM     11  C   UNL     1       4.252   3.354  18.237  0.00  0.00    +0.000 C 
BRANCH  11  12
ATOM     12  C   UNL     1       3.154   3.136  19.257  0.00  0.00    +0.000 A 
ATOM     13  C   UNL     1       3.478   2.774  20.576  0.00  0.00    +0.000 A 
ATOM     14  C   UNL     1       2.477   2.616  21.537  0.00  0.00    +0.000 A 
ATOM     15  C   UNL     1       1.143   2.822  21.192  0.00  0.00    +0.000 A 
ATOM     16  C   UNL     1       0.809   3.173  19.885  0.00  0.00    +0.000 A 
ATOM     17  C   UNL     1       1.807   3.328  18.921  0.00  0.00    +0.000 A 
ENDBRANCH  11  12
ENDBRANCH   7  11
ENDBRANCH   2   5
BRANCH   1  20
ATOM     18  N   UNL     1       0.359  10.162  20.442  0.00  0.00    +0.000 N 
ATOM     19  C   UNL     1       0.931   9.448  19.425  0.00  0.00    +0.000 A 
ATOM     20  C   UNL     1       1.599   8.397  19.993  0.00  0.00    +0.000 A 
ATOM     21  C   UNL     1       1.367   8.553  21.376  0.00  0.00    +0.000 A 
ATOM     22  N   UNL     1       0.614   9.623  21.655  0.00  0.00    +0.000 NA
BRANCH  18  24
ATOM     23  C   UNL     1      -1.484  11.155  19.154  0.00  0.00    +0.000 C 
ATOM     24  C   UNL     1      -0.452  11.381  20.279  0.00  0.00    +0.000 C 
ATOM     25  C   UNL     1       0.465  12.562  19.901  0.00  0.00    +0.000 C 
ATOM     26  C   UNL     1      -1.211  11.757  21.566  0.00  0.00    +0.000 C 
ENDBRANCH  18  24
ENDBRANCH   1  20
TORSDOF 5
ENDMDL
