MODEL 1
REMARK VINA RESULT:      -7.4      0.000      0.000
REMARK  Name = 
REMARK  6 active torsions:
REMARK  status: ('A' for Active; 'I' for Inactive)
REMARK    1  A    between atoms: C_1  and  N_2
REMARK    2  A    between atoms: N_2  and  C_3
REMARK    3  A    between atoms: N_2  and  C_4
REMARK    4  A    between atoms: C_7  and  C_8
REMARK    5  A    between atoms: C_22  and  C_23
REMARK    6  A    between atoms: C_23  and  O_25
REMARK                            x       y       z     vdW  Elec       q    Type
REMARK                         _______ _______ _______ _____ _____    ______ ____
ROOT
ATOM      1  C   UNL     1       2.615   8.156  17.788  0.00  0.00    +0.000 C 
ATOM      2  C   UNL     1       1.970   9.086  18.569  0.00  0.00    +0.000 C 
ATOM      3  C   UNL     1       1.732   8.751  20.023  0.00  0.00    +0.000 C 
ATOM      4  C   UNL     1       0.244   8.695  20.301  0.00  0.00    +0.000 C 
ATOM      5  C   UNL     1      -0.304  10.081  20.138  0.00  0.00    +0.000 C 
ATOM      6  C   UNL     1      -0.016  10.691  18.757  0.00  0.00    +0.000 A 
ATOM      7  C   UNL     1       1.306  10.501  18.294  0.00  0.00    +0.000 A 
ATOM      8  N   UNL     1       2.060  11.621  18.128  0.00  0.00    +0.000 NA
ATOM      9  C   UNL     1       1.537  12.850  18.524  0.00  0.00    +0.000 A 
ATOM     10  C   UNL     1       2.335  13.983  18.732  0.00  0.00    +0.000 A 
ATOM     11  C   UNL     1       1.848  15.165  19.374  0.00  0.00    +0.000 A 
ATOM     12  C   UNL     1       0.556  15.247  19.836  0.00  0.00    +0.000 A 
ATOM     13  C   UNL     1      -0.298  14.207  19.535  0.00  0.00    +0.000 A 
ATOM     14  C   UNL     1       0.174  13.041  18.841  0.00  0.00    +0.000 A 
ATOM     15  C   UNL     1      -0.656  11.949  18.617  0.00  0.00    +0.000 A 
ENDROOT
BRANCH   1  19
ATOM     16  C   UNL     1       3.427   3.828  18.945  0.00  0.00    +0.000 A 
ATOM     17  C   UNL     1       4.360   4.873  19.074  0.00  0.00    +0.000 A 
ATOM     18  C   UNL     1       4.086   6.239  18.705  0.00  0.00    +0.000 A 
ATOM     19  C   UNL     1       2.861   6.666  18.160  0.00  0.00    +0.000 A 
ATOM     20  C   UNL     1       1.902   5.645  18.094  0.00  0.00    +0.000 A 
ATOM     21  C   UNL     1       2.188   4.265  18.463  0.00  0.00    +0.000 A 
BRANCH  16  23
ATOM     22  C   UNL     1       4.390   2.120  20.514  0.00  0.00    +0.000 C 
ATOM     23  N   UNL     1       3.724   2.496  19.267  0.00  0.00    +0.000 N 
ATOM     24  C   UNL     1       3.529   1.404  18.316  0.00  0.00    +0.000 C 
ENDBRANCH  16  23
ENDBRANCH   1  19
BRANCH  15  25
ATOM     25  C   UNL     1      -2.154  12.057  18.666  0.00  0.00    +0.000 C 
ATOM     26  O   UNL     1      -2.787  12.086  19.690  0.00  0.00    +0.000 OA
BRANCH  25  27
ATOM     27  O   UNL     1      -2.739  12.000  17.470  0.00  0.00    +0.000 OA
ATOM     28  H   UNL     1      -3.224  12.792  17.158  0.00  0.00    +0.000 HD
ENDBRANCH  25  27
ENDBRANCH  15  25
TORSDOF 4
ENDMDL
MODEL 2
REMARK VINA RESULT:      -7.2      2.915      3.956
REMARK  Name = 
REMARK  6 active torsions:
REMARK  status: ('A' for Active; 'I' for Inactive)
REMARK    1  A    between atoms: C_1  and  N_2
REMARK    2  A    between atoms: N_2  and  C_3
REMARK    3  A    between atoms: N_2  and  C_4
REMARK    4  A    between atoms: C_7  and  C_8
REMARK    5  A    between atoms: C_22  and  C_23
REMARK    6  A    between atoms: C_23  and  O_25
REMARK                            x       y       z     vdW  Elec       q    Type
REMARK                         _______ _______ _______ _____ _____    ______ ____
ROOT
ATOM      1  C   UNL     1       1.230   8.113  21.305  0.00  0.00    +0.000 C 
ATOM      2  C   UNL     1       0.605   9.288  20.962  0.00  0.00    +0.000 C 
ATOM      3  C   UNL     1       0.156   9.461  19.530  0.00  0.00    +0.000 C 
ATOM      4  C   UNL     1       0.893  10.624  18.896  0.00  0.00    +0.000 C 
ATOM      5  C   UNL     1       0.447  11.878  19.587  0.00  0.00    +0.000 C 
ATOM      6  C   UNL     1       0.660  11.844  21.109  0.00  0.00    +0.000 A 
ATOM      7  C   UNL     1       0.270  10.636  21.730  0.00  0.00    +0.000 A 
ATOM      8  N   UNL     1      -0.759  10.712  22.618  0.00  0.00    +0.000 NA
ATOM      9  C   UNL     1      -1.426  11.925  22.773  0.00  0.00    +0.000 A 
ATOM     10  C   UNL     1      -2.691  12.024  23.369  0.00  0.00    +0.000 A 
ATOM     11  C   UNL     1      -3.485  13.212  23.304  0.00  0.00    +0.000 A 
ATOM     12  C   UNL     1      -3.045  14.331  22.638  0.00  0.00    +0.000 A 
ATOM     13  C   UNL     1      -1.755  14.320  22.151  0.00  0.00    +0.000 A 
ATOM     14  C   UNL     1      -0.934  13.146  22.262  0.00  0.00    +0.000 A 
ATOM     15  C   UNL     1       0.333  13.095  21.693  0.00  0.00    +0.000 A 
ENDROOT
BRANCH   1  19
ATOM     16  C   UNL     1       2.816   4.945  18.445  0.00  0.00    +0.000 A 
ATOM     17  C   UNL     1       2.053   4.667  19.595  0.00  0.00    +0.000 A 
ATOM     18  C   UNL     1       1.557   5.682  20.489  0.00  0.00    +0.000 A 
ATOM     19  C   UNL     1       1.799   7.058  20.315  0.00  0.00    +0.000 A 
ATOM     20  C   UNL     1       2.497   7.348  19.134  0.00  0.00    +0.000 A 
ATOM     21  C   UNL     1       3.001   6.317  18.238  0.00  0.00    +0.000 A 
BRANCH  16  23
ATOM     22  C   UNL     1       2.885   2.551  17.689  0.00  0.00    +0.000 C 
ATOM     23  N   UNL     1       3.329   3.943  17.610  0.00  0.00    +0.000 N 
ATOM     24  C   UNL     1       4.450   4.184  16.705  0.00  0.00    +0.000 C 
ENDBRANCH  16  23
ENDBRANCH   1  19
BRANCH  15  25
ATOM     25  C   UNL     1       1.099  14.334  21.328  0.00  0.00    +0.000 C 
ATOM     26  O   UNL     1       0.922  14.953  20.311  0.00  0.00    +0.000 OA
BRANCH  25  27
ATOM     27  O   UNL     1       2.082  14.631  22.179  0.00  0.00    +0.000 OA
ATOM     28  H   UNL     1       1.920  14.488  23.134  0.00  0.00    +0.000 HD
ENDBRANCH  25  27
ENDBRANCH  15  25
TORSDOF 4
ENDMDL
MODEL 3
REMARK VINA RESULT:      -7.2      0.175      1.131
REMARK  Name = 
REMARK  6 active torsions:
REMARK  status: ('A' for Active; 'I' for Inactive)
REMARK    1  A    between atoms: C_1  and  N_2
REMARK    2  A    between atoms: N_2  and  C_3
REMARK    3  A    between atoms: N_2  and  C_4
REMARK    4  A    between atoms: C_7  and  C_8
REMARK    5  A    between atoms: C_22  and  C_23
REMARK    6  A    between atoms: C_23  and  O_25
REMARK                            x       y       z     vdW  Elec       q    Type
REMARK                         _______ _______ _______ _____ _____    ______ ____
ROOT
ATOM      1  C   UNL     1       2.734   8.253  17.763  0.00  0.00    +0.000 C 
ATOM      2  C   UNL     1       2.050   9.158  18.538  0.00  0.00    +0.000 C 
ATOM      3  C   UNL     1       1.821   8.817  19.992  0.00  0.00    +0.000 C 
ATOM      4  C   UNL     1       0.335   8.701  20.266  0.00  0.00    +0.000 C 
ATOM      5  C   UNL     1      -0.269  10.063  20.097  0.00  0.00    +0.000 C 
ATOM      6  C   UNL     1      -0.001  10.681  18.715  0.00  0.00    +0.000 A 
ATOM      7  C   UNL     1       1.329  10.544  18.258  0.00  0.00    +0.000 A 
ATOM      8  N   UNL     1       2.037  11.694  18.092  0.00  0.00    +0.000 NA
ATOM      9  C   UNL     1       1.462  12.901  18.482  0.00  0.00    +0.000 A 
ATOM     10  C   UNL     1       2.213  14.067  18.690  0.00  0.00    +0.000 A 
ATOM     11  C   UNL     1       1.675  15.228  19.328  0.00  0.00    +0.000 A 
ATOM     12  C   UNL     1       0.379  15.259  19.784  0.00  0.00    +0.000 A 
ATOM     13  C   UNL     1      -0.430  14.184  19.484  0.00  0.00    +0.000 A 
ATOM     14  C   UNL     1       0.092  13.037  18.794  0.00  0.00    +0.000 A 
ATOM     15  C   UNL     1      -0.692  11.911  18.570  0.00  0.00    +0.000 A 
ENDROOT
BRANCH   1  19
ATOM     16  C   UNL     1       3.528   3.895  18.813  0.00  0.00    +0.000 A 
ATOM     17  C   UNL     1       2.259   4.418  18.501  0.00  0.00    +0.000 A 
ATOM     18  C   UNL     1       2.026   5.801  18.169  0.00  0.00    +0.000 A 
ATOM     19  C   UNL     1       3.041   6.776  18.139  0.00  0.00    +0.000 A 
ATOM     20  C   UNL     1       4.317   6.248  18.378  0.00  0.00    +0.000 A 
ATOM     21  C   UNL     1       4.546   4.851  18.720  0.00  0.00    +0.000 A 
BRANCH  16  23
ATOM     22  C   UNL     1       3.371   1.441  18.303  0.00  0.00    +0.000 C 
ATOM     23  N   UNL     1       3.731   2.557  19.178  0.00  0.00    +0.000 N 
ATOM     24  C   UNL     1       4.176   2.174  20.516  0.00  0.00    +0.000 C 
ENDBRANCH  16  23
ENDBRANCH   1  19
BRANCH  15  25
ATOM     25  C   UNL     1      -2.193  11.957  18.614  0.00  0.00    +0.000 C 
ATOM     26  O   UNL     1      -2.831  11.917  19.634  0.00  0.00    +0.000 OA
BRANCH  25  27
ATOM     27  O   UNL     1      -2.769  11.929  17.412  0.00  0.00    +0.000 OA
ATOM     28  H   UNL     1      -3.741  11.816  17.372  0.00  0.00    +0.000 HD
ENDBRANCH  25  27
ENDBRANCH  15  25
TORSDOF 4
ENDMDL
MODEL 4
REMARK VINA RESULT:      -7.2      3.074      4.184
REMARK  Name = 
REMARK  6 active torsions:
REMARK  status: ('A' for Active; 'I' for Inactive)
REMARK    1  A    between atoms: C_1  and  N_2
REMARK    2  A    between atoms: N_2  and  C_3
REMARK    3  A    between atoms: N_2  and  C_4
REMARK    4  A    between atoms: C_7  and  C_8
REMARK    5  A    between atoms: C_22  and  C_23
REMARK    6  A    between atoms: C_23  and  O_25
REMARK                            x       y       z     vdW  Elec       q    Type
REMARK                         _______ _______ _______ _____ _____    ______ ____
ROOT
ATOM      1  C   UNL     1       0.972   8.340  21.485  0.00  0.00    +0.000 C 
ATOM      2  C   UNL     1       0.305   9.498  21.164  0.00  0.00    +0.000 C 
ATOM      3  C   UNL     1      -0.168   9.674  19.740  0.00  0.00    +0.000 C 
ATOM      4  C   UNL     1       0.522  10.868  19.111  0.00  0.00    +0.000 C 
ATOM      5  C   UNL     1       0.045  12.098  19.823  0.00  0.00    +0.000 C 
ATOM      6  C   UNL     1       0.279  12.053  21.342  0.00  0.00    +0.000 A 
ATOM      7  C   UNL     1      -0.063  10.825  21.953  0.00  0.00    +0.000 A 
ATOM      8  N   UNL     1      -1.082  10.857  22.854  0.00  0.00    +0.000 NA
ATOM      9  C   UNL     1      -1.786  12.046  23.033  0.00  0.00    +0.000 A 
ATOM     10  C   UNL     1      -3.046  12.096  23.646  0.00  0.00    +0.000 A 
ATOM     11  C   UNL     1      -3.878  13.259  23.607  0.00  0.00    +0.000 A 
ATOM     12  C   UNL     1      -3.484  14.400  22.949  0.00  0.00    +0.000 A 
ATOM     13  C   UNL     1      -2.201  14.436  22.446  0.00  0.00    +0.000 A 
ATOM     14  C   UNL     1      -1.341  13.288  22.532  0.00  0.00    +0.000 A 
ATOM     15  C   UNL     1      -0.080  13.285  21.945  0.00  0.00    +0.000 A 
ENDROOT
BRANCH   1  19
ATOM     16  C   UNL     1       2.772   5.427  18.484  0.00  0.00    +0.000 A 
ATOM     17  C   UNL     1       2.862   6.828  18.384  0.00  0.00    +0.000 A 
ATOM     18  C   UNL     1       2.288   7.736  19.343  0.00  0.00    +0.000 A 
ATOM     19  C   UNL     1       1.562   7.316  20.473  0.00  0.00    +0.000 A 
ATOM     20  C   UNL     1       1.528   5.922  20.619  0.00  0.00    +0.000 A 
ATOM     21  C   UNL     1       2.105   5.009  19.642  0.00  0.00    +0.000 A 
BRANCH  16  23
ATOM     22  C   UNL     1       2.716   3.243  17.245  0.00  0.00    +0.000 C 
ATOM     23  N   UNL     1       3.298   4.557  17.518  0.00  0.00    +0.000 N 
ATOM     24  C   UNL     1       4.551   4.836  16.821  0.00  0.00    +0.000 C 
ENDBRANCH  16  23
ENDBRANCH   1  19
BRANCH  15  25
ATOM     25  C   UNL     1       0.641  14.553  21.587  0.00  0.00    +0.000 C 
ATOM     26  O   UNL     1       0.381  15.216  20.617  0.00  0.00    +0.000 OA
BRANCH  25  27
ATOM     27  O   UNL     1       1.680  14.825  22.377  0.00  0.00    +0.000 OA
ATOM     28  H   UNL     1       2.324  15.496  22.072  0.00  0.00    +0.000 HD
ENDBRANCH  25  27
ENDBRANCH  15  25
TORSDOF 4
ENDMDL
MODEL 5
REMARK VINA RESULT:      -7.1      2.747      3.468
REMARK  Name = 
REMARK  6 active torsions:
REMARK  status: ('A' for Active; 'I' for Inactive)
REMARK    1  A    between atoms: C_1  and  N_2
REMARK    2  A    between atoms: N_2  and  C_3
REMARK    3  A    between atoms: N_2  and  C_4
REMARK    4  A    between atoms: C_7  and  C_8
REMARK    5  A    between atoms: C_22  and  C_23
REMARK    6  A    between atoms: C_23  and  O_25
REMARK                            x       y       z     vdW  Elec       q    Type
REMARK                         _______ _______ _______ _____ _____    ______ ____
ROOT
ATOM      1  C   UNL     1       1.146   9.791  19.595  0.00  0.00    +0.000 C 
ATOM      2  C   UNL     1       0.718  10.362  20.771  0.00  0.00    +0.000 C 
ATOM      3  C   UNL     1       1.063   9.664  22.065  0.00  0.00    +0.000 C 
ATOM      4  C   UNL     1      -0.207   9.230  22.771  0.00  0.00    +0.000 C 
ATOM      5  C   UNL     1      -0.941  10.467  23.192  0.00  0.00    +0.000 C 
ATOM      6  C   UNL     1      -1.247  11.421  22.025  0.00  0.00    +0.000 A 
ATOM      7  C   UNL     1      -0.168  11.627  21.136  0.00  0.00    +0.000 A 
ATOM      8  N   UNL     1       0.334  12.890  21.069  0.00  0.00    +0.000 NA
ATOM      9  C   UNL     1      -0.157  13.857  21.943  0.00  0.00    +0.000 A 
ATOM     10  C   UNL     1       0.518  15.057  22.204  0.00  0.00    +0.000 A 
ATOM     11  C   UNL     1       0.155  15.931  23.277  0.00  0.00    +0.000 A 
ATOM     12  C   UNL     1      -0.884  15.629  24.125  0.00  0.00    +0.000 A 
ATOM     13  C   UNL     1      -1.655  14.527  23.825  0.00  0.00    +0.000 A 
ATOM     14  C   UNL     1      -1.327  13.676  22.714  0.00  0.00    +0.000 A 
ATOM     15  C   UNL     1      -2.042  12.512  22.460  0.00  0.00    +0.000 A 
ENDROOT
BRANCH   1  19
ATOM     16  C   UNL     1       2.809   5.593  19.019  0.00  0.00    +0.000 A 
ATOM     17  C   UNL     1       2.913   6.625  18.069  0.00  0.00    +0.000 A 
ATOM     18  C   UNL     1       2.382   7.950  18.268  0.00  0.00    +0.000 A 
ATOM     19  C   UNL     1       1.689   8.344  19.428  0.00  0.00    +0.000 A 
ATOM     20  C   UNL     1       1.645   7.343  20.408  0.00  0.00    +0.000 A 
ATOM     21  C   UNL     1       2.177   6.003  20.198  0.00  0.00    +0.000 A 
BRANCH  16  23
ATOM     22  C   UNL     1       3.872   3.887  17.512  0.00  0.00    +0.000 C 
ATOM     23  N   UNL     1       3.292   4.296  18.792  0.00  0.00    +0.000 N 
ATOM     24  C   UNL     1       3.113   3.218  19.762  0.00  0.00    +0.000 C 
ENDBRANCH  16  23
ENDBRANCH   1  19
BRANCH  15  25
ATOM     25  C   UNL     1      -3.423  12.283  23.007  0.00  0.00    +0.000 C 
ATOM     26  O   UNL     1      -3.641  11.901  24.128  0.00  0.00    +0.000 OA
BRANCH  25  27
ATOM     27  O   UNL     1      -4.392  12.430  22.104  0.00  0.00    +0.000 OA
ATOM     28  H   UNL     1      -4.678  13.340  21.882  0.00  0.00    +0.000 HD
ENDBRANCH  25  27
ENDBRANCH  15  25
TORSDOF 4
ENDMDL
MODEL 6
REMARK VINA RESULT:      -7.1      2.705      3.357
REMARK  Name = 
REMARK  6 active torsions:
REMARK  status: ('A' for Active; 'I' for Inactive)
REMARK    1  A    between atoms: C_1  and  N_2
REMARK    2  A    between atoms: N_2  and  C_3
REMARK    3  A    between atoms: N_2  and  C_4
REMARK    4  A    between atoms: C_7  and  C_8
REMARK    5  A    between atoms: C_22  and  C_23
REMARK    6  A    between atoms: C_23  and  O_25
REMARK                            x       y       z     vdW  Elec       q    Type
REMARK                         _______ _______ _______ _____ _____    ______ ____
ROOT
ATOM      1  C   UNL     1       1.209   9.597  19.691  0.00  0.00    +0.000 C 
ATOM      2  C   UNL     1       0.773  10.220  20.837  0.00  0.00    +0.000 C 
ATOM      3  C   UNL     1       1.093   9.572  22.163  0.00  0.00    +0.000 C 
ATOM      4  C   UNL     1      -0.190   9.181  22.869  0.00  0.00    +0.000 C 
ATOM      5  C   UNL     1      -0.915  10.443  23.230  0.00  0.00    +0.000 C 
ATOM      6  C   UNL     1      -1.195  11.351  22.022  0.00  0.00    +0.000 A 
ATOM      7  C   UNL     1      -0.103  11.508  21.139  0.00  0.00    +0.000 A 
ATOM      8  N   UNL     1       0.413  12.762  21.027  0.00  0.00    +0.000 NA
ATOM      9  C   UNL     1      -0.078  13.770  21.854  0.00  0.00    +0.000 A 
ATOM     10  C   UNL     1       0.608  14.972  22.074  0.00  0.00    +0.000 A 
ATOM     11  C   UNL     1       0.242  15.893  23.106  0.00  0.00    +0.000 A 
ATOM     12  C   UNL     1      -0.811  15.638  23.952  0.00  0.00    +0.000 A 
ATOM     13  C   UNL     1      -1.591  14.532  23.687  0.00  0.00    +0.000 A 
ATOM     14  C   UNL     1      -1.258  13.633  22.617  0.00  0.00    +0.000 A 
ATOM     15  C   UNL     1      -1.984  12.467  22.401  0.00  0.00    +0.000 A 
ENDROOT
BRANCH   1  19
ATOM     16  C   UNL     1       2.673   5.292  19.472  0.00  0.00    +0.000 A 
ATOM     17  C   UNL     1       1.892   5.813  20.521  0.00  0.00    +0.000 A 
ATOM     18  C   UNL     1       1.436   7.178  20.574  0.00  0.00    +0.000 A 
ATOM     19  C   UNL     1       1.737   8.138  19.590  0.00  0.00    +0.000 A 
ATOM     20  C   UNL     1       2.454   7.610  18.507  0.00  0.00    +0.000 A 
ATOM     21  C   UNL     1       2.919   6.230  18.463  0.00  0.00    +0.000 A 
BRANCH  16  23
ATOM     22  C   UNL     1       4.558   3.647  19.242  0.00  0.00    +0.000 C 
ATOM     23  N   UNL     1       3.147   3.973  19.458  0.00  0.00    +0.000 N 
ATOM     24  C   UNL     1       2.248   2.823  19.505  0.00  0.00    +0.000 C 
ENDBRANCH  16  23
ENDBRANCH   1  19
BRANCH  15  25
ATOM     25  C   UNL     1      -3.374  12.276  22.939  0.00  0.00    +0.000 C 
ATOM     26  O   UNL     1      -3.610  11.937  24.070  0.00  0.00    +0.000 OA
BRANCH  25  27
ATOM     27  O   UNL     1      -4.330  12.403  22.020  0.00  0.00    +0.000 OA
ATOM     28  H   UNL     1      -5.262  12.359  22.318  0.00  0.00    +0.000 HD
ENDBRANCH  25  27
ENDBRANCH  15  25
TORSDOF 4
ENDMDL
MODEL 7
REMARK VINA RESULT:      -7.0      3.072      4.175
REMARK  Name = 
REMARK  6 active torsions:
REMARK  status: ('A' for Active; 'I' for Inactive)
REMARK    1  A    between atoms: C_1  and  N_2
REMARK    2  A    between atoms: N_2  and  C_3
REMARK    3  A    between atoms: N_2  and  C_4
REMARK    4  A    between atoms: C_7  and  C_8
REMARK    5  A    between atoms: C_22  and  C_23
REMARK    6  A    between atoms: C_23  and  O_25
REMARK                            x       y       z     vdW  Elec       q    Type
REMARK                         _______ _______ _______ _____ _____    ______ ____
ROOT
ATOM      1  C   UNL     1       1.020   8.391  21.456  0.00  0.00    +0.000 C 
ATOM      2  C   UNL     1       0.336   9.543  21.152  0.00  0.00    +0.000 C 
ATOM      3  C   UNL     1      -0.124   9.741  19.727  0.00  0.00    +0.000 C 
ATOM      4  C   UNL     1       0.551  10.961  19.132  0.00  0.00    +0.000 C 
ATOM      5  C   UNL     1       0.043  12.166  19.864  0.00  0.00    +0.000 C 
ATOM      6  C   UNL     1       0.261  12.093  21.384  0.00  0.00    +0.000 A 
ATOM      7  C   UNL     1      -0.066  10.846  21.964  0.00  0.00    +0.000 A 
ATOM      8  N   UNL     1      -1.095  10.840  22.855  0.00  0.00    +0.000 NA
ATOM      9  C   UNL     1      -1.824  12.012  23.051  0.00  0.00    +0.000 A 
ATOM     10  C   UNL     1      -3.091  12.026  23.649  0.00  0.00    +0.000 A 
ATOM     11  C   UNL     1      -3.944  13.174  23.625  0.00  0.00    +0.000 A 
ATOM     12  C   UNL     1      -3.563  14.336  22.996  0.00  0.00    +0.000 A 
ATOM     13  C   UNL     1      -2.275  14.407  22.509  0.00  0.00    +0.000 A 
ATOM     14  C   UNL     1      -1.395  13.273  22.581  0.00  0.00    +0.000 A 
ATOM     15  C   UNL     1      -0.128  13.305  22.009  0.00  0.00    +0.000 A 
ENDROOT
BRANCH   1  19
ATOM     16  C   UNL     1       2.763   5.403  18.495  0.00  0.00    +0.000 A 
ATOM     17  C   UNL     1       2.062   5.048  19.663  0.00  0.00    +0.000 A 
ATOM     18  C   UNL     1       1.515   6.006  20.589  0.00  0.00    +0.000 A 
ATOM     19  C   UNL     1       1.640   7.399  20.431  0.00  0.00    +0.000 A 
ATOM     20  C   UNL     1       2.274   7.762  19.234  0.00  0.00    +0.000 A 
ATOM     21  C   UNL     1       2.831   6.788  18.305  0.00  0.00    +0.000 A 
BRANCH  16  23
ATOM     22  C   UNL     1       4.513   4.744  16.819  0.00  0.00    +0.000 C 
ATOM     23  N   UNL     1       3.327   4.458  17.627  0.00  0.00    +0.000 N 
ATOM     24  C   UNL     1       2.687   3.174  17.353  0.00  0.00    +0.000 C 
ENDBRANCH  16  23
ENDBRANCH   1  19
BRANCH  15  25
ATOM     25  C   UNL     1       0.573  14.593  21.686  0.00  0.00    +0.000 C 
ATOM     26  O   UNL     1       1.364  15.124  22.422  0.00  0.00    +0.000 OA
BRANCH  25  27
ATOM     27  O   UNL     1       0.156  15.166  20.557  0.00  0.00    +0.000 OA
ATOM     28  H   UNL     1      -0.610  15.774  20.606  0.00  0.00    +0.000 HD
ENDBRANCH  25  27
ENDBRANCH  15  25
TORSDOF 4
ENDMDL
MODEL 8
REMARK VINA RESULT:      -6.9      0.993      1.066
REMARK  Name = 
REMARK  6 active torsions:
REMARK  status: ('A' for Active; 'I' for Inactive)
REMARK    1  A    between atoms: C_1  and  N_2
REMARK    2  A    between atoms: N_2  and  C_3
REMARK    3  A    between atoms: N_2  and  C_4
REMARK    4  A    between atoms: C_7  and  C_8
REMARK    5  A    between atoms: C_22  and  C_23
REMARK    6  A    between atoms: C_23  and  O_25
REMARK                            x       y       z     vdW  Elec       q    Type
REMARK                         _______ _______ _______ _____ _____    ______ ____
ROOT
ATOM      1  C   UNL     1       2.188   8.248  18.448  0.00  0.00    +0.000 C 
ATOM      2  C   UNL     1       1.565   9.283  19.104  0.00  0.00    +0.000 C 
ATOM      3  C   UNL     1       1.363   9.158  20.596  0.00  0.00    +0.000 C 
ATOM      4  C   UNL     1      -0.117   9.149  20.917  0.00  0.00    +0.000 C 
ATOM      5  C   UNL     1      -0.668  10.501  20.573  0.00  0.00    +0.000 C 
ATOM      6  C   UNL     1      -0.415  10.907  19.112  0.00  0.00    +0.000 A 
ATOM      7  C   UNL     1       0.894  10.648  18.648  0.00  0.00    +0.000 A 
ATOM      8  N   UNL     1       1.645  11.730  18.306  0.00  0.00    +0.000 NA
ATOM      9  C   UNL     1       1.133  13.005  18.536  0.00  0.00    +0.000 A 
ATOM     10  C   UNL     1       1.938  14.152  18.561  0.00  0.00    +0.000 A 
ATOM     11  C   UNL     1       1.468  15.415  19.042  0.00  0.00    +0.000 A 
ATOM     12  C   UNL     1       0.188  15.568  19.519  0.00  0.00    +0.000 A 
ATOM     13  C   UNL     1      -0.674  14.500  19.391  0.00  0.00    +0.000 A 
ATOM     14  C   UNL     1      -0.221  13.245  18.858  0.00  0.00    +0.000 A 
ATOM     15  C   UNL     1      -1.057  12.136  18.811  0.00  0.00    +0.000 A 
ENDROOT
BRANCH   1  19
ATOM     16  C   UNL     1       3.039   4.080  20.069  0.00  0.00    +0.000 A 
ATOM     17  C   UNL     1       3.692   4.650  18.960  0.00  0.00    +0.000 A 
ATOM     18  C   UNL     1       3.412   5.972  18.460  0.00  0.00    +0.000 A 
ATOM     19  C   UNL     1       2.442   6.825  19.020  0.00  0.00    +0.000 A 
ATOM     20  C   UNL     1       1.838   6.294  20.168  0.00  0.00    +0.000 A 
ATOM     21  C   UNL     1       2.121   4.954  20.664  0.00  0.00    +0.000 A 
BRANCH  16  23
ATOM     22  C   UNL     1       2.506   2.142  21.574  0.00  0.00    +0.000 C 
ATOM     23  N   UNL     1       3.291   2.775  20.515  0.00  0.00    +0.000 N 
ATOM     24  C   UNL     1       4.450   2.009  20.062  0.00  0.00    +0.000 C 
ENDBRANCH  16  23
ENDBRANCH   1  19
BRANCH  15  25
ATOM     25  C   UNL     1      -2.553  12.256  18.883  0.00  0.00    +0.000 C 
ATOM     26  O   UNL     1      -3.161  12.416  19.909  0.00  0.00    +0.000 OA
BRANCH  25  27
ATOM     27  O   UNL     1      -3.167  12.052  17.717  0.00  0.00    +0.000 OA
ATOM     28  H   UNL     1      -4.014  12.517  17.557  0.00  0.00    +0.000 HD
ENDBRANCH  25  27
ENDBRANCH  15  25
TORSDOF 4
ENDMDL
MODEL 9
REMARK VINA RESULT:      -6.9      7.984     11.506
REMARK  Name = 
REMARK  6 active torsions:
REMARK  status: ('A' for Active; 'I' for Inactive)
REMARK    1  A    between atoms: C_1  and  N_2
REMARK    2  A    between atoms: N_2  and  C_3
REMARK    3  A    between atoms: N_2  and  C_4
REMARK    4  A    between atoms: C_7  and  C_8
REMARK    5  A    between atoms: C_22  and  C_23
REMARK    6  A    between atoms: C_23  and  O_25
REMARK                            x       y       z     vdW  Elec       q    Type
REMARK                         _______ _______ _______ _____ _____    ______ ____
ROOT
ATOM      1  C   UNL     1       4.850  14.622  17.799  0.00  0.00    +0.000 C 
ATOM      2  C   UNL     1       6.082  14.841  18.368  0.00  0.00    +0.000 C 
ATOM      3  C   UNL     1       6.163  15.785  19.545  0.00  0.00    +0.000 C 
ATOM      4  C   UNL     1       7.027  16.978  19.189  0.00  0.00    +0.000 C 
ATOM      5  C   UNL     1       8.431  16.486  19.002  0.00  0.00    +0.000 C 
ATOM      6  C   UNL     1       8.551  15.374  17.947  0.00  0.00    +0.000 A 
ATOM      7  C   UNL     1       7.561  14.370  18.036  0.00  0.00    +0.000 A 
ATOM      8  N   UNL     1       7.992  13.115  18.336  0.00  0.00    +0.000 NA
ATOM      9  C   UNL     1       9.336  12.920  18.644  0.00  0.00    +0.000 A 
ATOM     10  C   UNL     1       9.806  11.775  19.303  0.00  0.00    +0.000 A 
ATOM     11  C   UNL     1      11.127  11.682  19.843  0.00  0.00    +0.000 A 
ATOM     12  C   UNL     1      12.014  12.728  19.750  0.00  0.00    +0.000 A 
ATOM     13  C   UNL     1      11.638  13.820  18.998  0.00  0.00    +0.000 A 
ATOM     14  C   UNL     1      10.330  13.895  18.407  0.00  0.00    +0.000 A 
ATOM     15  C   UNL     1       9.909  15.032  17.726  0.00  0.00    +0.000 A 
ENDROOT
BRANCH   1  19
ATOM     16  C   UNL     1       1.113  17.154  18.396  0.00  0.00    +0.000 A 
ATOM     17  C   UNL     1       2.111  17.424  17.441  0.00  0.00    +0.000 A 
ATOM     18  C   UNL     1       3.287  16.611  17.264  0.00  0.00    +0.000 A 
ATOM     19  C   UNL     1       3.569  15.471  18.040  0.00  0.00    +0.000 A 
ATOM     20  C   UNL     1       2.546  15.155  18.945  0.00  0.00    +0.000 A 
ATOM     21  C   UNL     1       1.362  15.984  19.124  0.00  0.00    +0.000 A 
BRANCH  16  23
ATOM     22  C   UNL     1      -0.883  18.377  17.486  0.00  0.00    +0.000 C 
ATOM     23  N   UNL     1      -0.004  17.980  18.586  0.00  0.00    +0.000 N 
ATOM     24  C   UNL     1      -0.283  18.628  19.866  0.00  0.00    +0.000 C 
ENDBRANCH  16  23
ENDBRANCH   1  19
BRANCH  15  25
ATOM     25  C   UNL     1      10.876  16.044  17.181  0.00  0.00    +0.000 C 
ATOM     26  O   UNL     1      11.431  16.869  17.860  0.00  0.00    +0.000 OA
BRANCH  25  27
ATOM     27  O   UNL     1      10.982  16.028  15.852  0.00  0.00    +0.000 OA
ATOM     28  H   UNL     1      10.156  16.036  15.326  0.00  0.00    +0.000 HD
ENDBRANCH  25  27
ENDBRANCH  15  25
TORSDOF 4
ENDMDL
