MODEL 1
REMARK VINA RESULT:      -8.0      0.000      0.000
REMARK  Name = 
REMARK  6 active torsions:
REMARK  status: ('A' for Active; 'I' for Inactive)
REMARK    1  A    between atoms: C_2  and  C_22
REMARK    2  A    between atoms: N_3  and  C_4
REMARK    3  A    between atoms: C_10  and  C_11
REMARK    4  A    between atoms: N_13  and  C_14
REMARK    5  A    between atoms: C_14  and  C_15
REMARK    6  A    between atoms: C_15  and  N_16
REMARK                            x       y       z     vdW  Elec       q    Type
REMARK                         _______ _______ _______ _____ _____    ______ ____
ROOT
ATOM      1  C   UNL     1       2.732   7.592  18.253  0.00  0.00    +0.000 A 
ATOM      2  C   UNL     1       2.355   8.860  17.788  0.00  0.00    +0.000 A 
ATOM      3  C   UNL     1       1.547   9.702  18.556  0.00  0.00    +0.000 A 
ATOM      4  C   UNL     1       1.108   9.291  19.805  0.00  0.00    +0.000 A 
ATOM      5  I   UNL     1      -0.076  10.553  20.953  0.00  0.00    +0.000 I 
ATOM      6  C   UNL     1       1.464   8.034  20.293  0.00  0.00    +0.000 A 
ATOM      7  C   UNL     1       2.261   7.171  19.518  0.00  0.00    +0.000 A 
ENDROOT
BRANCH   1  10
ATOM      8  O   UNL     1       5.655   7.735  17.722  0.00  0.00    +0.000 OA
ATOM      9  C   UNL     1       4.909   6.886  17.237  0.00  0.00    +0.000 C 
ATOM     10  N   UNL     1       3.559   6.740  17.477  0.00  0.00    +0.000 N 
ATOM     11  H   UNL     1       3.125   5.863  17.179  0.00  0.00    +0.000 HD
BRANCH   9  12
ATOM     12  C   UNL     1       5.530   5.869  16.351  0.00  0.00    +0.000 A 
ATOM     13  C   UNL     1       5.102   5.782  15.019  0.00  0.00    +0.000 A 
ATOM     14  C   UNL     1       5.674   4.840  14.161  0.00  0.00    +0.000 A 
ATOM     15  C   UNL     1       6.658   3.973  14.635  0.00  0.00    +0.000 A 
ATOM     16  C   UNL     1       7.063   4.037  15.970  0.00  0.00    +0.000 A 
ATOM     17  C   UNL     1       6.496   4.982  16.821  0.00  0.00    +0.000 A 
ATOM     18  F   UNL     1       6.890   5.003  18.103  0.00  0.00    +0.000 F 
ENDBRANCH   9  12
ENDBRANCH   1  10
BRANCH   7  19
ATOM     19  C   UNL     1       2.664   5.854  20.098  0.00  0.00    +0.000 C 
ATOM     20  O   UNL     1       3.831   5.480  20.033  0.00  0.00    +0.000 OA
ATOM     21  N   UNL     1       1.665   5.105  20.694  0.00  0.00    +0.000 N 
ATOM     22  H   UNL     1       0.710   5.266  20.401  0.00  0.00    +0.000 HD
BRANCH  21  23
ATOM     23  C   UNL     1       1.951   3.835  21.346  0.00  0.00    +0.000 C 
BRANCH  23  24
ATOM     24  C   UNL     1       2.942   2.959  20.545  0.00  0.00    +0.000 C 
BRANCH  24  25
ATOM     25  N   UNL     1       2.330   1.990  19.613  0.00  0.00    +0.000 NA
ATOM     26  C   UNL     1       3.314   1.601  18.566  0.00  0.00    +0.000 C 
ATOM     27  C   UNL     1       3.584   2.693  17.510  0.00  0.00    +0.000 C 
ATOM     28  O   UNL     1       2.371   3.149  16.897  0.00  0.00    +0.000 OA
ATOM     29  C   UNL     1       1.451   3.624  17.888  0.00  0.00    +0.000 C 
ATOM     30  C   UNL     1       1.137   2.518  18.912  0.00  0.00    +0.000 C 
ENDBRANCH  24  25
ENDBRANCH  23  24
ENDBRANCH  21  23
ENDBRANCH   7  19
TORSDOF 6
ENDMDL
MODEL 2
REMARK VINA RESULT:      -7.4      2.218      4.779
REMARK  Name = 
REMARK  6 active torsions:
REMARK  status: ('A' for Active; 'I' for Inactive)
REMARK    1  A    between atoms: C_2  and  C_22
REMARK    2  A    between atoms: N_3  and  C_4
REMARK    3  A    between atoms: C_10  and  C_11
REMARK    4  A    between atoms: N_13  and  C_14
REMARK    5  A    between atoms: C_14  and  C_15
REMARK    6  A    between atoms: C_15  and  N_16
REMARK                            x       y       z     vdW  Elec       q    Type
REMARK                         _______ _______ _______ _____ _____    ______ ____
ROOT
ATOM      1  C   UNL     1       1.603   7.504  20.379  0.00  0.00    +0.000 A 
ATOM      2  C   UNL     1       0.977   7.666  21.624  0.00  0.00    +0.000 A 
ATOM      3  C   UNL     1       0.406   8.885  21.994  0.00  0.00    +0.000 A 
ATOM      4  C   UNL     1       0.447   9.963  21.123  0.00  0.00    +0.000 A 
ATOM      5  I   UNL     1      -0.421  11.769  21.668  0.00  0.00    +0.000 I 
ATOM      6  C   UNL     1       1.065   9.834  19.879  0.00  0.00    +0.000 A 
ATOM      7  C   UNL     1       1.661   8.614  19.506  0.00  0.00    +0.000 A 
ENDROOT
BRANCH   1  10
ATOM      8  O   UNL     1       0.461   4.761  20.487  0.00  0.00    +0.000 OA
ATOM      9  C   UNL     1       1.604   5.015  20.114  0.00  0.00    +0.000 C 
ATOM     10  N   UNL     1       2.176   6.264  19.999  0.00  0.00    +0.000 N 
ATOM     11  H   UNL     1       3.049   6.330  19.470  0.00  0.00    +0.000 HD
BRANCH   9  12
ATOM     12  C   UNL     1       2.440   3.869  19.676  0.00  0.00    +0.000 A 
ATOM     13  C   UNL     1       3.355   3.314  20.582  0.00  0.00    +0.000 A 
ATOM     14  C   UNL     1       4.149   2.232  20.200  0.00  0.00    +0.000 A 
ATOM     15  C   UNL     1       4.046   1.713  18.909  0.00  0.00    +0.000 A 
ATOM     16  C   UNL     1       3.159   2.284  17.995  0.00  0.00    +0.000 A 
ATOM     17  C   UNL     1       2.363   3.359  18.381  0.00  0.00    +0.000 A 
ATOM     18  F   UNL     1       1.537   3.900  17.473  0.00  0.00    +0.000 F 
ENDBRANCH   9  12
ENDBRANCH   1  10
BRANCH   7  19
ATOM     19  C   UNL     1       2.267   8.502  18.144  0.00  0.00    +0.000 C 
ATOM     20  O   UNL     1       1.782   9.114  17.198  0.00  0.00    +0.000 OA
ATOM     21  N   UNL     1       3.376   7.684  18.022  0.00  0.00    +0.000 N 
ATOM     22  H   UNL     1       3.500   6.945  18.702  0.00  0.00    +0.000 HD
BRANCH  21  23
ATOM     23  C   UNL     1       4.087   7.546  16.759  0.00  0.00    +0.000 C 
BRANCH  23  24
ATOM     24  C   UNL     1       5.394   6.731  16.893  0.00  0.00    +0.000 C 
BRANCH  24  25
ATOM     25  N   UNL     1       5.261   5.412  17.547  0.00  0.00    +0.000 NA
ATOM     26  C   UNL     1       5.795   5.477  18.935  0.00  0.00    +0.000 C 
ATOM     27  C   UNL     1       7.334   5.548  19.023  0.00  0.00    +0.000 C 
ATOM     28  O   UNL     1       7.955   4.471  18.310  0.00  0.00    +0.000 OA
ATOM     29  C   UNL     1       7.528   4.458  16.941  0.00  0.00    +0.000 C 
ATOM     30  C   UNL     1       5.997   4.332  16.850  0.00  0.00    +0.000 C 
ENDBRANCH  24  25
ENDBRANCH  23  24
ENDBRANCH  21  23
ENDBRANCH   7  19
TORSDOF 6
ENDMDL
MODEL 3
REMARK VINA RESULT:      -7.4      2.346      4.982
REMARK  Name = 
REMARK  6 active torsions:
REMARK  status: ('A' for Active; 'I' for Inactive)
REMARK    1  A    between atoms: C_2  and  C_22
REMARK    2  A    between atoms: N_3  and  C_4
REMARK    3  A    between atoms: C_10  and  C_11
REMARK    4  A    between atoms: N_13  and  C_14
REMARK    5  A    between atoms: C_14  and  C_15
REMARK    6  A    between atoms: C_15  and  N_16
REMARK                            x       y       z     vdW  Elec       q    Type
REMARK                         _______ _______ _______ _____ _____    ______ ____
ROOT
ATOM      1  C   UNL     1       1.477   7.855  20.552  0.00  0.00    +0.000 A 
ATOM      2  C   UNL     1       0.772   8.094  21.740  0.00  0.00    +0.000 A 
ATOM      3  C   UNL     1       0.105   9.302  21.956  0.00  0.00    +0.000 A 
ATOM      4  C   UNL     1       0.129  10.290  20.983  0.00  0.00    +0.000 A 
ATOM      5  I   UNL     1      -0.880  12.077  21.299  0.00  0.00    +0.000 I 
ATOM      6  C   UNL     1       0.824  10.083  19.792  0.00  0.00    +0.000 A 
ATOM      7  C   UNL     1       1.515   8.876  19.575  0.00  0.00    +0.000 A 
ENDROOT
BRANCH   1  10
ATOM      8  O   UNL     1       0.399   5.085  20.444  0.00  0.00    +0.000 OA
ATOM      9  C   UNL     1       1.591   5.364  20.331  0.00  0.00    +0.000 C 
ATOM     10  N   UNL     1       2.147   6.625  20.328  0.00  0.00    +0.000 N 
ATOM     11  H   UNL     1       3.115   6.707  20.006  0.00  0.00    +0.000 HD
BRANCH   9  12
ATOM     12  C   UNL     1       2.529   4.234  20.109  0.00  0.00    +0.000 A 
ATOM     13  C   UNL     1       3.100   4.070  18.838  0.00  0.00    +0.000 A 
ATOM     14  C   UNL     1       3.991   3.021  18.603  0.00  0.00    +0.000 A 
ATOM     15  C   UNL     1       4.299   2.125  19.626  0.00  0.00    +0.000 A 
ATOM     16  C   UNL     1       3.707   2.268  20.882  0.00  0.00    +0.000 A 
ATOM     17  C   UNL     1       2.824   3.319  21.117  0.00  0.00    +0.000 A 
ATOM     18  F   UNL     1       2.254   3.416  22.328  0.00  0.00    +0.000 F 
ENDBRANCH   9  12
ENDBRANCH   1  10
BRANCH   7  19
ATOM     19  C   UNL     1       2.205   8.673  18.264  0.00  0.00    +0.000 C 
ATOM     20  O   UNL     1       1.947   9.400  17.310  0.00  0.00    +0.000 OA
ATOM     21  N   UNL     1       3.123   7.641  18.197  0.00  0.00    +0.000 N 
ATOM     22  H   UNL     1       3.027   6.874  18.851  0.00  0.00    +0.000 HD
BRANCH  21  23
ATOM     23  C   UNL     1       3.900   7.388  16.992  0.00  0.00    +0.000 C 
BRANCH  23  24
ATOM     24  C   UNL     1       4.973   6.293  17.190  0.00  0.00    +0.000 C 
BRANCH  24  25
ATOM     25  N   UNL     1       6.299   6.581  16.604  0.00  0.00    +0.000 NA
ATOM     26  C   UNL     1       6.605   5.598  15.530  0.00  0.00    +0.000 C 
ATOM     27  C   UNL     1       6.959   4.186  16.043  0.00  0.00    +0.000 C 
ATOM     28  O   UNL     1       8.029   4.221  16.995  0.00  0.00    +0.000 OA
ATOM     29  C   UNL     1       7.705   5.087  18.090  0.00  0.00    +0.000 C 
ATOM     30  C   UNL     1       7.405   6.510  17.587  0.00  0.00    +0.000 C 
ENDBRANCH  24  25
ENDBRANCH  23  24
ENDBRANCH  21  23
ENDBRANCH   7  19
TORSDOF 6
ENDMDL
MODEL 4
REMARK VINA RESULT:      -7.4      2.111      4.938
REMARK  Name = 
REMARK  6 active torsions:
REMARK  status: ('A' for Active; 'I' for Inactive)
REMARK    1  A    between atoms: C_2  and  C_22
REMARK    2  A    between atoms: N_3  and  C_4
REMARK    3  A    between atoms: C_10  and  C_11
REMARK    4  A    between atoms: N_13  and  C_14
REMARK    5  A    between atoms: C_14  and  C_15
REMARK    6  A    between atoms: C_15  and  N_16
REMARK                            x       y       z     vdW  Elec       q    Type
REMARK                         _______ _______ _______ _____ _____    ______ ____
ROOT
ATOM      1  C   UNL     1       1.539   7.644  20.466  0.00  0.00    +0.000 A 
ATOM      2  C   UNL     1       0.871   7.802  21.689  0.00  0.00    +0.000 A 
ATOM      3  C   UNL     1       0.256   9.009  22.028  0.00  0.00    +0.000 A 
ATOM      4  C   UNL     1       0.293  10.078  21.145  0.00  0.00    +0.000 A 
ATOM      5  I   UNL     1      -0.640  11.865  21.642  0.00  0.00    +0.000 I 
ATOM      6  C   UNL     1       0.952   9.953  19.922  0.00  0.00    +0.000 A 
ATOM      7  C   UNL     1       1.592   8.746  19.581  0.00  0.00    +0.000 A 
ENDROOT
BRANCH   1  10
ATOM      8  O   UNL     1       0.442   4.880  20.494  0.00  0.00    +0.000 OA
ATOM      9  C   UNL     1       1.602   5.157  20.193  0.00  0.00    +0.000 C 
ATOM     10  N   UNL     1       2.157   6.416  20.117  0.00  0.00    +0.000 N 
ATOM     11  H   UNL     1       3.060   6.501  19.643  0.00  0.00    +0.000 HD
BRANCH   9  12
ATOM     12  C   UNL     1       2.485   4.028  19.803  0.00  0.00    +0.000 A 
ATOM     13  C   UNL     1       3.158   3.319  20.809  0.00  0.00    +0.000 A 
ATOM     14  C   UNL     1       3.990   2.249  20.472  0.00  0.00    +0.000 A 
ATOM     15  C   UNL     1       4.164   1.896  19.134  0.00  0.00    +0.000 A 
ATOM     16  C   UNL     1       3.519   2.620  18.130  0.00  0.00    +0.000 A 
ATOM     17  C   UNL     1       2.686   3.683  18.468  0.00  0.00    +0.000 A 
ATOM     18  F   UNL     1       2.098   4.373  17.480  0.00  0.00    +0.000 F 
ENDBRANCH   9  12
ENDBRANCH   1  10
BRANCH   7  19
ATOM     19  C   UNL     1       2.242   8.635  18.240  0.00  0.00    +0.000 C 
ATOM     20  O   UNL     1       2.026   9.479  17.376  0.00  0.00    +0.000 OA
ATOM     21  N   UNL     1       3.076   7.550  18.040  0.00  0.00    +0.000 N 
ATOM     22  H   UNL     1       2.931   6.726  18.609  0.00  0.00    +0.000 HD
BRANCH  21  23
ATOM     23  C   UNL     1       3.811   7.372  16.796  0.00  0.00    +0.000 C 
BRANCH  23  24
ATOM     24  C   UNL     1       4.848   6.227  16.871  0.00  0.00    +0.000 C 
BRANCH  24  25
ATOM     25  N   UNL     1       6.175   6.525  16.295  0.00  0.00    +0.000 NA
ATOM     26  C   UNL     1       6.583   5.436  15.366  0.00  0.00    +0.000 C 
ATOM     27  C   UNL     1       7.001   4.126  16.066  0.00  0.00    +0.000 C 
ATOM     28  O   UNL     1       8.030   4.351  17.039  0.00  0.00    +0.000 OA
ATOM     29  C   UNL     1       7.610   5.325  18.003  0.00  0.00    +0.000 C 
ATOM     30  C   UNL     1       7.245   6.651  17.312  0.00  0.00    +0.000 C 
ENDBRANCH  24  25
ENDBRANCH  23  24
ENDBRANCH  21  23
ENDBRANCH   7  19
TORSDOF 6
ENDMDL
MODEL 5
REMARK VINA RESULT:      -7.2      2.934      5.759
REMARK  Name = 
REMARK  6 active torsions:
REMARK  status: ('A' for Active; 'I' for Inactive)
REMARK    1  A    between atoms: C_2  and  C_22
REMARK    2  A    between atoms: N_3  and  C_4
REMARK    3  A    between atoms: C_10  and  C_11
REMARK    4  A    between atoms: N_13  and  C_14
REMARK    5  A    between atoms: C_14  and  C_15
REMARK    6  A    between atoms: C_15  and  N_16
REMARK                            x       y       z     vdW  Elec       q    Type
REMARK                         _______ _______ _______ _____ _____    ______ ____
ROOT
ATOM      1  C   UNL     1       3.987   3.669  17.355  0.00  0.00    +0.000 A 
ATOM      2  C   UNL     1       3.787   2.375  17.858  0.00  0.00    +0.000 A 
ATOM      3  C   UNL     1       3.116   2.164  19.065  0.00  0.00    +0.000 A 
ATOM      4  C   UNL     1       2.628   3.243  19.785  0.00  0.00    +0.000 A 
ATOM      5  I   UNL     1       1.614   2.924  21.569  0.00  0.00    +0.000 I 
ATOM      6  C   UNL     1       2.814   4.542  19.312  0.00  0.00    +0.000 A 
ATOM      7  C   UNL     1       3.507   4.766  18.107  0.00  0.00    +0.000 A 
ENDROOT
BRANCH   1  10
ATOM      8  O   UNL     1       6.895   3.924  16.792  0.00  0.00    +0.000 OA
ATOM      9  C   UNL     1       6.018   4.035  15.939  0.00  0.00    +0.000 C 
ATOM     10  N   UNL     1       4.661   3.885  16.125  0.00  0.00    +0.000 N 
ATOM     11  H   UNL     1       4.082   3.789  15.287  0.00  0.00    +0.000 HD
BRANCH   9  12
ATOM     12  C   UNL     1       6.462   4.293  14.545  0.00  0.00    +0.000 A 
ATOM     13  C   UNL     1       5.943   3.499  13.513  0.00  0.00    +0.000 A 
ATOM     14  C   UNL     1       6.337   3.724  12.192  0.00  0.00    +0.000 A 
ATOM     15  C   UNL     1       7.262   4.727  11.902  0.00  0.00    +0.000 A 
ATOM     16  C   UNL     1       7.803   5.498  12.932  0.00  0.00    +0.000 A 
ATOM     17  C   UNL     1       7.404   5.276  14.247  0.00  0.00    +0.000 A 
ATOM     18  F   UNL     1       7.959   6.018  15.217  0.00  0.00    +0.000 F 
ENDBRANCH   9  12
ENDBRANCH   1  10
BRANCH   7  19
ATOM     19  C   UNL     1       3.640   6.169  17.608  0.00  0.00    +0.000 C 
ATOM     20  O   UNL     1       4.520   6.459  16.803  0.00  0.00    +0.000 OA
ATOM     21  N   UNL     1       2.735   7.092  18.100  0.00  0.00    +0.000 N 
ATOM     22  H   UNL     1       2.301   6.905  18.995  0.00  0.00    +0.000 HD
BRANCH  21  23
ATOM     23  C   UNL     1       2.729   8.474  17.639  0.00  0.00    +0.000 C 
BRANCH  23  24
ATOM     24  C   UNL     1       1.413   9.211  17.976  0.00  0.00    +0.000 C 
BRANCH  24  25
ATOM     25  N   UNL     1       1.395   9.933  19.265  0.00  0.00    +0.000 NA
ATOM     26  C   UNL     1       0.111   9.676  19.974  0.00  0.00    +0.000 C 
ATOM     27  C   UNL     1      -1.107  10.401  19.366  0.00  0.00    +0.000 C 
ATOM     28  O   UNL     1      -0.884  11.812  19.255  0.00  0.00    +0.000 OA
ATOM     29  C   UNL     1       0.296  12.078  18.485  0.00  0.00    +0.000 C 
ATOM     30  C   UNL     1       1.524  11.402  19.120  0.00  0.00    +0.000 C 
ENDBRANCH  24  25
ENDBRANCH  23  24
ENDBRANCH  21  23
ENDBRANCH   7  19
TORSDOF 6
ENDMDL
MODEL 6
REMARK VINA RESULT:      -7.0      2.978      5.776
REMARK  Name = 
REMARK  6 active torsions:
REMARK  status: ('A' for Active; 'I' for Inactive)
REMARK    1  A    between atoms: C_2  and  C_22
REMARK    2  A    between atoms: N_3  and  C_4
REMARK    3  A    between atoms: C_10  and  C_11
REMARK    4  A    between atoms: N_13  and  C_14
REMARK    5  A    between atoms: C_14  and  C_15
REMARK    6  A    between atoms: C_15  and  N_16
REMARK                            x       y       z     vdW  Elec       q    Type
REMARK                         _______ _______ _______ _____ _____    ______ ____
ROOT
ATOM      1  C   UNL     1       4.105   3.755  17.325  0.00  0.00    +0.000 A 
ATOM      2  C   UNL     1       3.877   2.447  17.776  0.00  0.00    +0.000 A 
ATOM      3  C   UNL     1       3.175   2.201  18.958  0.00  0.00    +0.000 A 
ATOM      4  C   UNL     1       2.684   3.260  19.706  0.00  0.00    +0.000 A 
ATOM      5  I   UNL     1       1.623   2.890  21.452  0.00  0.00    +0.000 I 
ATOM      6  C   UNL     1       2.897   4.572  19.285  0.00  0.00    +0.000 A 
ATOM      7  C   UNL     1       3.621   4.830  18.105  0.00  0.00    +0.000 A 
ENDROOT
BRANCH   1  10
ATOM      8  O   UNL     1       7.029   4.002  16.843  0.00  0.00    +0.000 OA
ATOM      9  C   UNL     1       6.174   4.150  15.973  0.00  0.00    +0.000 C 
ATOM     10  N   UNL     1       4.811   4.006  16.121  0.00  0.00    +0.000 N 
ATOM     11  H   UNL     1       4.253   3.943  15.266  0.00  0.00    +0.000 HD
BRANCH   9  12
ATOM     12  C   UNL     1       6.654   4.451  14.600  0.00  0.00    +0.000 A 
ATOM     13  C   UNL     1       7.637   5.437  14.429  0.00  0.00    +0.000 A 
ATOM     14  C   UNL     1       8.112   5.735  13.150  0.00  0.00    +0.000 A 
ATOM     15  C   UNL     1       7.597   5.065  12.041  0.00  0.00    +0.000 A 
ATOM     16  C   UNL     1       6.596   4.105  12.206  0.00  0.00    +0.000 A 
ATOM     17  C   UNL     1       6.129   3.805  13.483  0.00  0.00    +0.000 A 
ATOM     18  F   UNL     1       5.151   2.894  13.607  0.00  0.00    +0.000 F 
ENDBRANCH   9  12
ENDBRANCH   1  10
BRANCH   7  19
ATOM     19  C   UNL     1       3.783   6.248  17.661  0.00  0.00    +0.000 C 
ATOM     20  O   UNL     1       4.787   6.593  17.045  0.00  0.00    +0.000 OA
ATOM     21  N   UNL     1       2.760   7.122  17.983  0.00  0.00    +0.000 N 
ATOM     22  H   UNL     1       2.172   6.896  18.775  0.00  0.00    +0.000 HD
BRANCH  21  23
ATOM     23  C   UNL     1       2.780   8.512  17.549  0.00  0.00    +0.000 C 
BRANCH  23  24
ATOM     24  C   UNL     1       1.482   9.270  17.910  0.00  0.00    +0.000 C 
BRANCH  24  25
ATOM     25  N   UNL     1       1.619  10.318  18.943  0.00  0.00    +0.000 NA
ATOM     26  C   UNL     1       1.093   9.822  20.244  0.00  0.00    +0.000 C 
ATOM     27  C   UNL     1      -0.445   9.725  20.314  0.00  0.00    +0.000 C 
ATOM     28  O   UNL     1      -1.070  10.970  19.977  0.00  0.00    +0.000 OA
ATOM     29  C   UNL     1      -0.651  11.411  18.678  0.00  0.00    +0.000 C 
ATOM     30  C   UNL     1       0.879  11.561  18.623  0.00  0.00    +0.000 C 
ENDBRANCH  24  25
ENDBRANCH  23  24
ENDBRANCH  21  23
ENDBRANCH   7  19
TORSDOF 6
ENDMDL
MODEL 7
REMARK VINA RESULT:      -6.9      5.583      8.129
REMARK  Name = 
REMARK  6 active torsions:
REMARK  status: ('A' for Active; 'I' for Inactive)
REMARK    1  A    between atoms: C_2  and  C_22
REMARK    2  A    between atoms: N_3  and  C_4
REMARK    3  A    between atoms: C_10  and  C_11
REMARK    4  A    between atoms: N_13  and  C_14
REMARK    5  A    between atoms: C_14  and  C_15
REMARK    6  A    between atoms: C_15  and  N_16
REMARK                            x       y       z     vdW  Elec       q    Type
REMARK                         _______ _______ _______ _____ _____    ______ ____
ROOT
ATOM      1  C   UNL     1       1.044  11.766  19.257  0.00  0.00    +0.000 A 
ATOM      2  C   UNL     1       1.944  12.792  19.581  0.00  0.00    +0.000 A 
ATOM      3  C   UNL     1       1.602  14.135  19.407  0.00  0.00    +0.000 A 
ATOM      4  C   UNL     1       0.353  14.474  18.911  0.00  0.00    +0.000 A 
ATOM      5  I   UNL     1      -0.159  16.473  18.673  0.00  0.00    +0.000 I 
ATOM      6  C   UNL     1      -0.562  13.476  18.577  0.00  0.00    +0.000 A 
ATOM      7  C   UNL     1      -0.219  12.120  18.730  0.00  0.00    +0.000 A 
ENDROOT
BRANCH   1  10
ATOM      8  O   UNL     1       2.151   9.798  17.322  0.00  0.00    +0.000 OA
ATOM      9  C   UNL     1       1.860   9.529  18.485  0.00  0.00    +0.000 C 
ATOM     10  N   UNL     1       1.386  10.401  19.441  0.00  0.00    +0.000 N 
ATOM     11  H   UNL     1       1.400  10.082  20.413  0.00  0.00    +0.000 HD
BRANCH   9  12
ATOM     12  C   UNL     1       2.102   8.135  18.935  0.00  0.00    +0.000 A 
ATOM     13  C   UNL     1       1.580   7.722  20.170  0.00  0.00    +0.000 A 
ATOM     14  C   UNL     1       1.787   6.415  20.614  0.00  0.00    +0.000 A 
ATOM     15  C   UNL     1       2.527   5.523  19.838  0.00  0.00    +0.000 A 
ATOM     16  C   UNL     1       3.073   5.941  18.624  0.00  0.00    +0.000 A 
ATOM     17  C   UNL     1       2.861   7.243  18.179  0.00  0.00    +0.000 A 
ATOM     18  F   UNL     1       3.418   7.621  17.019  0.00  0.00    +0.000 F 
ENDBRANCH   9  12
ENDBRANCH   1  10
BRANCH   7  19
ATOM     19  C   UNL     1      -1.246  11.081  18.410  0.00  0.00    +0.000 C 
ATOM     20  O   UNL     1      -1.423  10.132  19.167  0.00  0.00    +0.000 OA
ATOM     21  N   UNL     1      -1.961  11.254  17.239  0.00  0.00    +0.000 N 
ATOM     22  H   UNL     1      -1.542  11.806  16.501  0.00  0.00    +0.000 HD
BRANCH  21  23
ATOM     23  C   UNL     1      -3.029  10.341  16.855  0.00  0.00    +0.000 C 
BRANCH  23  24
ATOM     24  C   UNL     1      -4.364  10.647  17.571  0.00  0.00    +0.000 C 
BRANCH  24  25
ATOM     25  N   UNL     1      -4.621  12.072  17.866  0.00  0.00    +0.000 NA
ATOM     26  C   UNL     1      -4.729  12.275  19.336  0.00  0.00    +0.000 C 
ATOM     27  C   UNL     1      -6.038  11.743  19.957  0.00  0.00    +0.000 C 
ATOM     28  O   UNL     1      -7.193  12.282  19.302  0.00  0.00    +0.000 OA
ATOM     29  C   UNL     1      -7.153  12.004  17.896  0.00  0.00    +0.000 C 
ATOM     30  C   UNL     1      -5.874  12.582  17.264  0.00  0.00    +0.000 C 
ENDBRANCH  24  25
ENDBRANCH  23  24
ENDBRANCH  21  23
ENDBRANCH   7  19
TORSDOF 6
ENDMDL
MODEL 8
REMARK VINA RESULT:      -6.9      6.075      8.654
REMARK  Name = 
REMARK  6 active torsions:
REMARK  status: ('A' for Active; 'I' for Inactive)
REMARK    1  A    between atoms: C_2  and  C_22
REMARK    2  A    between atoms: N_3  and  C_4
REMARK    3  A    between atoms: C_10  and  C_11
REMARK    4  A    between atoms: N_13  and  C_14
REMARK    5  A    between atoms: C_14  and  C_15
REMARK    6  A    between atoms: C_15  and  N_16
REMARK                            x       y       z     vdW  Elec       q    Type
REMARK                         _______ _______ _______ _____ _____    ______ ____
ROOT
ATOM      1  C   UNL     1       1.120  12.291  19.284  0.00  0.00    +0.000 A 
ATOM      2  C   UNL     1       2.134  13.237  19.494  0.00  0.00    +0.000 A 
ATOM      3  C   UNL     1       1.909  14.599  19.283  0.00  0.00    +0.000 A 
ATOM      4  C   UNL     1       0.663  15.039  18.864  0.00  0.00    +0.000 A 
ATOM      5  I   UNL     1       0.326  17.067  18.571  0.00  0.00    +0.000 I 
ATOM      6  C   UNL     1      -0.365  14.123  18.644  0.00  0.00    +0.000 A 
ATOM      7  C   UNL     1      -0.141  12.746  18.834  0.00  0.00    +0.000 A 
ENDROOT
BRANCH   1  10
ATOM      8  O   UNL     1       2.134  10.201  17.427  0.00  0.00    +0.000 OA
ATOM      9  C   UNL     1       1.781   9.981  18.584  0.00  0.00    +0.000 C 
ATOM     10  N   UNL     1       1.345  10.908  19.505  0.00  0.00    +0.000 N 
ATOM     11  H   UNL     1       1.298  10.609  20.483  0.00  0.00    +0.000 HD
BRANCH   9  12
ATOM     12  C   UNL     1       1.894   8.581  19.068  0.00  0.00    +0.000 A 
ATOM     13  C   UNL     1       1.404   8.266  20.343  0.00  0.00    +0.000 A 
ATOM     14  C   UNL     1       1.491   6.957  20.821  0.00  0.00    +0.000 A 
ATOM     15  C   UNL     1       2.081   5.966  20.037  0.00  0.00    +0.000 A 
ATOM     16  C   UNL     1       2.598   6.285  18.780  0.00  0.00    +0.000 A 
ATOM     17  C   UNL     1       2.504   7.589  18.302  0.00  0.00    +0.000 A 
ATOM     18  F   UNL     1       3.030   7.869  17.100  0.00  0.00    +0.000 F 
ENDBRANCH   9  12
ENDBRANCH   1  10
BRANCH   7  19
ATOM     19  C   UNL     1      -1.283  11.801  18.637  0.00  0.00    +0.000 C 
ATOM     20  O   UNL     1      -1.447  10.859  19.407  0.00  0.00    +0.000 OA
ATOM     21  N   UNL     1      -2.117  12.049  17.562  0.00  0.00    +0.000 N 
ATOM     22  H   UNL     1      -1.744  12.573  16.781  0.00  0.00    +0.000 HD
BRANCH  21  23
ATOM     23  C   UNL     1      -3.296  11.233  17.307  0.00  0.00    +0.000 C 
BRANCH  23  24
ATOM     24  C   UNL     1      -4.502  11.631  18.189  0.00  0.00    +0.000 C 
BRANCH  24  25
ATOM     25  N   UNL     1      -5.832  11.471  17.566  0.00  0.00    +0.000 NA
ATOM     26  C   UNL     1      -6.338  12.791  17.100  0.00  0.00    +0.000 C 
ATOM     27  C   UNL     1      -6.802  13.730  18.233  0.00  0.00    +0.000 C 
ATOM     28  O   UNL     1      -7.776  13.102  19.076  0.00  0.00    +0.000 OA
ATOM     29  C   UNL     1      -7.264  11.877  19.616  0.00  0.00    +0.000 C 
ATOM     30  C   UNL     1      -6.851  10.916  18.487  0.00  0.00    +0.000 C 
ENDBRANCH  24  25
ENDBRANCH  23  24
ENDBRANCH  21  23
ENDBRANCH   7  19
TORSDOF 6
ENDMDL
MODEL 9
REMARK VINA RESULT:      -6.9      2.310      4.817
REMARK  Name = 
REMARK  6 active torsions:
REMARK  status: ('A' for Active; 'I' for Inactive)
REMARK    1  A    between atoms: C_2  and  C_22
REMARK    2  A    between atoms: N_3  and  C_4
REMARK    3  A    between atoms: C_10  and  C_11
REMARK    4  A    between atoms: N_13  and  C_14
REMARK    5  A    between atoms: C_14  and  C_15
REMARK    6  A    between atoms: C_15  and  N_16
REMARK                            x       y       z     vdW  Elec       q    Type
REMARK                         _______ _______ _______ _____ _____    ______ ____
ROOT
ATOM      1  C   UNL     1       1.567   7.317  20.226  0.00  0.00    +0.000 A 
ATOM      2  C   UNL     1       0.864   7.482  21.428  0.00  0.00    +0.000 A 
ATOM      3  C   UNL     1       0.341   8.723  21.797  0.00  0.00    +0.000 A 
ATOM      4  C   UNL     1       0.507   9.820  20.965  0.00  0.00    +0.000 A 
ATOM      5  I   UNL     1      -0.290  11.660  21.506  0.00  0.00    +0.000 I 
ATOM      6  C   UNL     1       1.203   9.689  19.764  0.00  0.00    +0.000 A 
ATOM      7  C   UNL     1       1.752   8.446  19.395  0.00  0.00    +0.000 A 
ENDROOT
BRANCH   1  10
ATOM      8  O   UNL     1       0.357   4.608  20.429  0.00  0.00    +0.000 OA
ATOM      9  C   UNL     1       1.491   4.825  20.006  0.00  0.00    +0.000 C 
ATOM     10  N   UNL     1       2.092   6.055  19.846  0.00  0.00    +0.000 N 
ATOM     11  H   UNL     1       2.945   6.089  19.283  0.00  0.00    +0.000 HD
BRANCH   9  12
ATOM     12  C   UNL     1       2.280   3.649  19.558  0.00  0.00    +0.000 A 
ATOM     13  C   UNL     1       2.249   3.292  18.202  0.00  0.00    +0.000 A 
ATOM     14  C   UNL     1       2.986   2.196  17.751  0.00  0.00    +0.000 A 
ATOM     15  C   UNL     1       3.740   1.444  18.652  0.00  0.00    +0.000 A 
ATOM     16  C   UNL     1       3.747   1.779  20.008  0.00  0.00    +0.000 A 
ATOM     17  C   UNL     1       3.016   2.877  20.454  0.00  0.00    +0.000 A 
ATOM     18  F   UNL     1       3.025   3.159  21.765  0.00  0.00    +0.000 F 
ENDBRANCH   9  12
ENDBRANCH   1  10
BRANCH   7  19
ATOM     19  C   UNL     1       2.446   8.334  18.075  0.00  0.00    +0.000 C 
ATOM     20  O   UNL     1       2.205   9.138  17.179  0.00  0.00    +0.000 OA
ATOM     21  N   UNL     1       3.349   7.296  17.933  0.00  0.00    +0.000 N 
ATOM     22  H   UNL     1       3.237   6.483  18.524  0.00  0.00    +0.000 HD
BRANCH  21  23
ATOM     23  C   UNL     1       4.130   7.126  16.716  0.00  0.00    +0.000 C 
BRANCH  23  24
ATOM     24  C   UNL     1       5.652   7.077  16.982  0.00  0.00    +0.000 C 
BRANCH  24  25
ATOM     25  N   UNL     1       6.253   5.728  17.014  0.00  0.00    +0.000 NA
ATOM     26  C   UNL     1       5.477   4.845  17.927  0.00  0.00    +0.000 C 
ATOM     27  C   UNL     1       5.677   5.147  19.426  0.00  0.00    +0.000 C 
ATOM     28  O   UNL     1       7.064   5.128  19.790  0.00  0.00    +0.000 OA
ATOM     29  C   UNL     1       7.810   6.051  18.986  0.00  0.00    +0.000 C 
ATOM     30  C   UNL     1       7.656   5.719  17.491  0.00  0.00    +0.000 C 
ENDBRANCH  24  25
ENDBRANCH  23  24
ENDBRANCH  21  23
ENDBRANCH   7  19
TORSDOF 6
ENDMDL
