MODEL 1
REMARK VINA RESULT:      -8.4      0.000      0.000
REMARK  Name = 
REMARK  10 active torsions:
REMARK  status: ('A' for Active; 'I' for Inactive)
REMARK    1  A    between atoms: C_1  and  C_2
REMARK    2  A    between atoms: C_5  and  C_6
REMARK    3  A    between atoms: C_7  and  S_8
REMARK    4  A    between atoms: S_8  and  N_11
REMARK    5  A    between atoms: N_11  and  C_12
REMARK    6  A    between atoms: C_15  and  C_16
REMARK    7  A    between atoms: N_18  and  C_19
REMARK    8  A    between atoms: C_19  and  C_20
REMARK    9  A    between atoms: C_20  and  C_21
REMARK   10  A    between atoms: C_21  and  N_22
REMARK                            x       y       z     vdW  Elec       q    Type
REMARK                         _______ _______ _______ _____ _____    ______ ____
ROOT
ATOM      1  C   UNL     1       0.574   9.316  19.963  0.00  0.00    +0.000 A 
ATOM      2  C   UNL     1       1.023   9.611  18.677  0.00  0.00    +0.000 A 
ATOM      3  C   UNL     1       1.996   8.808  18.076  0.00  0.00    +0.000 A 
ATOM      4  C   UNL     1       2.502   7.692  18.756  0.00  0.00    +0.000 A 
ATOM      5  C   UNL     1       2.069   7.423  20.060  0.00  0.00    +0.000 A 
ATOM      6  C   UNL     1       1.111   8.238  20.666  0.00  0.00    +0.000 A 
ENDROOT
BRANCH   4   7
ATOM      7  C   UNL     1       3.517   6.787  18.143  0.00  0.00    +0.000 C 
ATOM      8  O   UNL     1       4.003   7.056  17.051  0.00  0.00    +0.000 OA
ATOM      9  N   UNL     1       3.872   5.683  18.888  0.00  0.00    +0.000 N 
ATOM     10  H   UNL     1       3.583   5.620  19.855  0.00  0.00    +0.000 HD
BRANCH   9  11
ATOM     11  C   UNL     1       4.859   4.728  18.422  0.00  0.00    +0.000 C 
BRANCH  11  12
ATOM     12  C   UNL     1       4.237   3.634  17.556  0.00  0.00    +0.000 C 
BRANCH  12  13
ATOM     13  C   UNL     1       3.855   2.426  18.409  0.00  0.00    +0.000 C 
BRANCH  13  14
ATOM     14  N   UNL     1       2.754   2.693  19.319  0.00  0.00    +0.000 N 
ATOM     15  C   UNL     1       2.924   2.773  20.748  0.00  0.00    +0.000 C 
ATOM     16  C   UNL     1       1.496   2.807  21.260  0.00  0.00    +0.000 C 
ATOM     17  C   UNL     1       0.733   3.528  20.154  0.00  0.00    +0.000 C 
ATOM     18  C   UNL     1       1.521   3.185  18.912  0.00  0.00    +0.000 C 
ATOM     19  O   UNL     1       1.150   3.361  17.765  0.00  0.00    +0.000 OA
ENDBRANCH  13  14
ENDBRANCH  12  13
ENDBRANCH  11  12
ENDBRANCH   9  11
ENDBRANCH   4   7
BRANCH   1  20
ATOM     20  N   UNL     1      -0.428  10.133  20.536  0.00  0.00    +0.000 N 
ATOM     21  H   UNL     1      -1.249  10.386  19.991  0.00  0.00    +0.000 HD
BRANCH  20  22
ATOM     22  S   UNL     1      -0.046  11.166  21.806  0.00  0.00    +0.000 S 
ATOM     23  O   UNL     1       1.030  12.033  21.368  0.00  0.00    +0.000 OA
ATOM     24  O   UNL     1       0.100  10.342  22.986  0.00  0.00    +0.000 OA
BRANCH  22  31
ATOM     25  C   UNL     1      -4.264  12.462  24.653  0.00  0.00    +0.000 C 
ATOM     26  C   UNL     1      -3.448  12.697  23.416  0.00  0.00    +0.000 A 
ATOM     27  C   UNL     1      -3.832  13.660  22.481  0.00  0.00    +0.000 A 
ATOM     28  C   UNL     1      -3.077  13.867  21.323  0.00  0.00    +0.000 A 
ATOM     29  C   UNL     1      -1.916  13.120  21.067  0.00  0.00    +0.000 A 
ATOM     30  C   UNL     1      -1.161  13.396  19.797  0.00  0.00    +0.000 C 
ATOM     31  C   UNL     1      -1.520  12.162  22.022  0.00  0.00    +0.000 A 
ATOM     32  C   UNL     1      -2.288  11.949  23.182  0.00  0.00    +0.000 A 
ENDBRANCH  22  31
ENDBRANCH  20  22
ENDBRANCH   1  20
TORSDOF 8
ENDMDL
MODEL 2
REMARK VINA RESULT:      -8.2      1.049      1.773
REMARK  Name = 
REMARK  10 active torsions:
REMARK  status: ('A' for Active; 'I' for Inactive)
REMARK    1  A    between atoms: C_1  and  C_2
REMARK    2  A    between atoms: C_5  and  C_6
REMARK    3  A    between atoms: C_7  and  S_8
REMARK    4  A    between atoms: S_8  and  N_11
REMARK    5  A    between atoms: N_11  and  C_12
REMARK    6  A    between atoms: C_15  and  C_16
REMARK    7  A    between atoms: N_18  and  C_19
REMARK    8  A    between atoms: C_19  and  C_20
REMARK    9  A    between atoms: C_20  and  C_21
REMARK   10  A    between atoms: C_21  and  N_22
REMARK                            x       y       z     vdW  Elec       q    Type
REMARK                         _______ _______ _______ _____ _____    ______ ____
ROOT
ATOM      1  C   UNL     1       0.879   9.168  19.517  0.00  0.00    +0.000 A 
ATOM      2  C   UNL     1       1.494   9.193  18.267  0.00  0.00    +0.000 A 
ATOM      3  C   UNL     1       2.450   8.228  17.941  0.00  0.00    +0.000 A 
ATOM      4  C   UNL     1       2.773   7.221  18.860  0.00  0.00    +0.000 A 
ATOM      5  C   UNL     1       2.173   7.224  20.126  0.00  0.00    +0.000 A 
ATOM      6  C   UNL     1       1.232   8.201  20.457  0.00  0.00    +0.000 A 
ENDROOT
BRANCH   4   7
ATOM      7  C   UNL     1       3.762   6.150  18.544  0.00  0.00    +0.000 C 
ATOM      8  O   UNL     1       4.647   5.872  19.346  0.00  0.00    +0.000 OA
ATOM      9  N   UNL     1       3.589   5.502  17.340  0.00  0.00    +0.000 N 
ATOM     10  H   UNL     1       2.736   5.643  16.816  0.00  0.00    +0.000 HD
BRANCH   9  11
ATOM     11  C   UNL     1       4.467   4.429  16.913  0.00  0.00    +0.000 C 
BRANCH  11  12
ATOM     12  C   UNL     1       4.693   3.397  18.016  0.00  0.00    +0.000 C 
BRANCH  12  13
ATOM     13  C   UNL     1       3.516   2.427  18.091  0.00  0.00    +0.000 C 
BRANCH  13  14
ATOM     14  N   UNL     1       2.559   2.765  19.129  0.00  0.00    +0.000 N 
ATOM     15  C   UNL     1       2.878   2.711  20.533  0.00  0.00    +0.000 C 
ATOM     16  C   UNL     1       1.527   2.895  21.198  0.00  0.00    +0.000 C 
ATOM     17  C   UNL     1       0.767   3.796  20.230  0.00  0.00    +0.000 C 
ATOM     18  C   UNL     1       1.373   3.448  18.890  0.00  0.00    +0.000 C 
ATOM     19  O   UNL     1       0.920   3.760  17.804  0.00  0.00    +0.000 OA
ENDBRANCH  13  14
ENDBRANCH  12  13
ENDBRANCH  11  12
ENDBRANCH   9  11
ENDBRANCH   4   7
BRANCH   1  20
ATOM     20  N   UNL     1      -0.103  10.143  19.810  0.00  0.00    +0.000 N 
ATOM     21  H   UNL     1      -1.001  10.119  19.334  0.00  0.00    +0.000 HD
BRANCH  20  22
ATOM     22  S   UNL     1       0.356  11.639  20.426  0.00  0.00    +0.000 S 
ATOM     23  O   UNL     1       0.496  12.557  19.313  0.00  0.00    +0.000 OA
ATOM     24  O   UNL     1       1.460  11.397  21.330  0.00  0.00    +0.000 OA
BRANCH  22  31
ATOM     25  C   UNL     1      -3.623  14.964  21.251  0.00  0.00    +0.000 C 
ATOM     26  C   UNL     1      -2.869  13.750  21.709  0.00  0.00    +0.000 A 
ATOM     27  C   UNL     1      -3.259  13.060  22.858  0.00  0.00    +0.000 A 
ATOM     28  C   UNL     1      -2.546  11.938  23.290  0.00  0.00    +0.000 A 
ATOM     29  C   UNL     1      -1.426  11.471  22.584  0.00  0.00    +0.000 A 
ATOM     30  C   UNL     1      -0.708  10.262  23.113  0.00  0.00    +0.000 C 
ATOM     31  C   UNL     1      -1.046  12.158  21.413  0.00  0.00    +0.000 A 
ATOM     32  C   UNL     1      -1.760  13.294  20.987  0.00  0.00    +0.000 A 
ENDBRANCH  22  31
ENDBRANCH  20  22
ENDBRANCH   1  20
TORSDOF 8
ENDMDL
MODEL 3
REMARK VINA RESULT:      -8.2      3.812     10.182
REMARK  Name = 
REMARK  10 active torsions:
REMARK  status: ('A' for Active; 'I' for Inactive)
REMARK    1  A    between atoms: C_1  and  C_2
REMARK    2  A    between atoms: C_5  and  C_6
REMARK    3  A    between atoms: C_7  and  S_8
REMARK    4  A    between atoms: S_8  and  N_11
REMARK    5  A    between atoms: N_11  and  C_12
REMARK    6  A    between atoms: C_15  and  C_16
REMARK    7  A    between atoms: N_18  and  C_19
REMARK    8  A    between atoms: C_19  and  C_20
REMARK    9  A    between atoms: C_20  and  C_21
REMARK   10  A    between atoms: C_21  and  N_22
REMARK                            x       y       z     vdW  Elec       q    Type
REMARK                         _______ _______ _______ _____ _____    ______ ____
ROOT
ATOM      1  C   UNL     1       2.816   6.980  19.321  0.00  0.00    +0.000 A 
ATOM      2  C   UNL     1       1.976   7.499  20.305  0.00  0.00    +0.000 A 
ATOM      3  C   UNL     1       1.154   8.592  20.016  0.00  0.00    +0.000 A 
ATOM      4  C   UNL     1       1.156   9.151  18.732  0.00  0.00    +0.000 A 
ATOM      5  C   UNL     1       2.027   8.643  17.759  0.00  0.00    +0.000 A 
ATOM      6  C   UNL     1       2.861   7.563  18.056  0.00  0.00    +0.000 A 
ENDROOT
BRANCH   4   7
ATOM      7  C   UNL     1       0.273  10.296  18.367  0.00  0.00    +0.000 C 
ATOM      8  O   UNL     1       0.592  11.440  18.665  0.00  0.00    +0.000 OA
ATOM      9  N   UNL     1      -0.872   9.978  17.666  0.00  0.00    +0.000 N 
ATOM     10  H   UNL     1      -0.981   9.048  17.285  0.00  0.00    +0.000 HD
BRANCH   9  11
ATOM     11  C   UNL     1      -1.812  10.993  17.232  0.00  0.00    +0.000 C 
BRANCH  11  12
ATOM     12  C   UNL     1      -3.226  10.437  17.071  0.00  0.00    +0.000 C 
BRANCH  12  13
ATOM     13  C   UNL     1      -4.190  11.540  16.640  0.00  0.00    +0.000 C 
BRANCH  13  14
ATOM     14  N   UNL     1      -5.412  11.572  17.424  0.00  0.00    +0.000 N 
ATOM     15  C   UNL     1      -5.633  10.713  18.560  0.00  0.00    +0.000 C 
ATOM     16  C   UNL     1      -7.102  10.932  18.872  0.00  0.00    +0.000 C 
ATOM     17  C   UNL     1      -7.347  12.381  18.465  0.00  0.00    +0.000 C 
ATOM     18  C   UNL     1      -6.341  12.602  17.360  0.00  0.00    +0.000 C 
ATOM     19  O   UNL     1      -6.329  13.546  16.591  0.00  0.00    +0.000 OA
ENDBRANCH  13  14
ENDBRANCH  12  13
ENDBRANCH  11  12
ENDBRANCH   9  11
ENDBRANCH   4   7
BRANCH   1  20
ATOM     20  N   UNL     1       3.618   5.859  19.636  0.00  0.00    +0.000 N 
ATOM     21  H   UNL     1       4.478   5.981  20.164  0.00  0.00    +0.000 HD
BRANCH  20  22
ATOM     22  S   UNL     1       3.535   4.474  18.687  0.00  0.00    +0.000 S 
ATOM     23  O   UNL     1       2.320   4.545  17.898  0.00  0.00    +0.000 OA
ATOM     24  O   UNL     1       3.783   3.350  19.564  0.00  0.00    +0.000 OA
BRANCH  22  31
ATOM     25  C   UNL     1       5.563   4.028  13.864  0.00  0.00    +0.000 C 
ATOM     26  C   UNL     1       5.785   4.382  15.305  0.00  0.00    +0.000 A 
ATOM     27  C   UNL     1       7.038   4.806  15.751  0.00  0.00    +0.000 A 
ATOM     28  C   UNL     1       7.245   5.121  17.096  0.00  0.00    +0.000 A 
ATOM     29  C   UNL     1       6.205   5.025  18.036  0.00  0.00    +0.000 A 
ATOM     30  C   UNL     1       6.507   5.375  19.465  0.00  0.00    +0.000 C 
ATOM     31  C   UNL     1       4.935   4.614  17.579  0.00  0.00    +0.000 A 
ATOM     32  C   UNL     1       4.734   4.288  16.225  0.00  0.00    +0.000 A 
ENDBRANCH  22  31
ENDBRANCH  20  22
ENDBRANCH   1  20
TORSDOF 8
ENDMDL
MODEL 4
REMARK VINA RESULT:      -8.2      3.252      9.745
REMARK  Name = 
REMARK  10 active torsions:
REMARK  status: ('A' for Active; 'I' for Inactive)
REMARK    1  A    between atoms: C_1  and  C_2
REMARK    2  A    between atoms: C_5  and  C_6
REMARK    3  A    between atoms: C_7  and  S_8
REMARK    4  A    between atoms: S_8  and  N_11
REMARK    5  A    between atoms: N_11  and  C_12
REMARK    6  A    between atoms: C_15  and  C_16
REMARK    7  A    between atoms: N_18  and  C_19
REMARK    8  A    between atoms: C_19  and  C_20
REMARK    9  A    between atoms: C_20  and  C_21
REMARK   10  A    between atoms: C_21  and  N_22
REMARK                            x       y       z     vdW  Elec       q    Type
REMARK                         _______ _______ _______ _____ _____    ______ ____
ROOT
ATOM      1  C   UNL     1       2.306   5.181  18.742  0.00  0.00    +0.000 A 
ATOM      2  C   UNL     1       1.823   5.174  20.049  0.00  0.00    +0.000 A 
ATOM      3  C   UNL     1       1.557   6.380  20.701  0.00  0.00    +0.000 A 
ATOM      4  C   UNL     1       1.752   7.597  20.034  0.00  0.00    +0.000 A 
ATOM      5  C   UNL     1       2.269   7.594  18.732  0.00  0.00    +0.000 A 
ATOM      6  C   UNL     1       2.552   6.388  18.089  0.00  0.00    +0.000 A 
ENDROOT
BRANCH   4   7
ATOM      7  C   UNL     1       1.451   8.908  20.677  0.00  0.00    +0.000 C 
ATOM      8  O   UNL     1       1.466   9.014  21.898  0.00  0.00    +0.000 OA
ATOM      9  N   UNL     1       1.195   9.958  19.821  0.00  0.00    +0.000 N 
ATOM     10  H   UNL     1       1.386   9.854  18.833  0.00  0.00    +0.000 HD
BRANCH   9  11
ATOM     11  C   UNL     1       0.904  11.292  20.308  0.00  0.00    +0.000 C 
BRANCH  11  12
ATOM     12  C   UNL     1      -0.306  11.909  19.609  0.00  0.00    +0.000 C 
BRANCH  12  13
ATOM     13  C   UNL     1      -1.471  10.922  19.582  0.00  0.00    +0.000 C 
BRANCH  13  14
ATOM     14  N   UNL     1      -2.152  10.875  18.300  0.00  0.00    +0.000 N 
ATOM     15  C   UNL     1      -1.730  10.017  17.222  0.00  0.00    +0.000 C 
ATOM     16  C   UNL     1      -2.566  10.501  16.053  0.00  0.00    +0.000 C 
ATOM     17  C   UNL     1      -3.863  10.968  16.704  0.00  0.00    +0.000 C 
ATOM     18  C   UNL     1      -3.418  11.401  18.081  0.00  0.00    +0.000 C 
ATOM     19  O   UNL     1      -4.082  12.052  18.869  0.00  0.00    +0.000 OA
ENDBRANCH  13  14
ENDBRANCH  12  13
ENDBRANCH  11  12
ENDBRANCH   9  11
ENDBRANCH   4   7
BRANCH   1  20
ATOM     20  N   UNL     1       2.543   3.944  18.099  0.00  0.00    +0.000 N 
ATOM     21  H   UNL     1       1.759   3.371  17.795  0.00  0.00    +0.000 HD
BRANCH  20  22
ATOM     22  S   UNL     1       3.989   3.126  18.358  0.00  0.00    +0.000 S 
ATOM     23  O   UNL     1       3.831   1.772  17.862  0.00  0.00    +0.000 OA
ATOM     24  O   UNL     1       4.367   3.372  19.733  0.00  0.00    +0.000 OA
BRANCH  22  31
ATOM     25  C   UNL     1       6.169   3.841  13.635  0.00  0.00    +0.000 C 
ATOM     26  C   UNL     1       6.117   4.239  15.081  0.00  0.00    +0.000 A 
ATOM     27  C   UNL     1       6.958   5.236  15.577  0.00  0.00    +0.000 A 
ATOM     28  C   UNL     1       6.917   5.594  16.927  0.00  0.00    +0.000 A 
ATOM     29  C   UNL     1       6.031   4.969  17.820  0.00  0.00    +0.000 A 
ATOM     30  C   UNL     1       6.050   5.404  19.258  0.00  0.00    +0.000 C 
ATOM     31  C   UNL     1       5.169   3.975  17.312  0.00  0.00    +0.000 A 
ATOM     32  C   UNL     1       5.221   3.610  15.954  0.00  0.00    +0.000 A 
ENDBRANCH  22  31
ENDBRANCH  20  22
ENDBRANCH   1  20
TORSDOF 8
ENDMDL
MODEL 5
REMARK VINA RESULT:      -8.1      3.152      9.625
REMARK  Name = 
REMARK  10 active torsions:
REMARK  status: ('A' for Active; 'I' for Inactive)
REMARK    1  A    between atoms: C_1  and  C_2
REMARK    2  A    between atoms: C_5  and  C_6
REMARK    3  A    between atoms: C_7  and  S_8
REMARK    4  A    between atoms: S_8  and  N_11
REMARK    5  A    between atoms: N_11  and  C_12
REMARK    6  A    between atoms: C_15  and  C_16
REMARK    7  A    between atoms: N_18  and  C_19
REMARK    8  A    between atoms: C_19  and  C_20
REMARK    9  A    between atoms: C_20  and  C_21
REMARK   10  A    between atoms: C_21  and  N_22
REMARK                            x       y       z     vdW  Elec       q    Type
REMARK                         _______ _______ _______ _____ _____    ______ ____
ROOT
ATOM      1  C   UNL     1       2.288   5.300  18.745  0.00  0.00    +0.000 A 
ATOM      2  C   UNL     1       1.782   5.221  20.041  0.00  0.00    +0.000 A 
ATOM      3  C   UNL     1       1.524   6.389  20.762  0.00  0.00    +0.000 A 
ATOM      4  C   UNL     1       1.751   7.641  20.174  0.00  0.00    +0.000 A 
ATOM      5  C   UNL     1       2.290   7.709  18.884  0.00  0.00    +0.000 A 
ATOM      6  C   UNL     1       2.565   6.541  18.172  0.00  0.00    +0.000 A 
ENDROOT
BRANCH   4   7
ATOM      7  C   UNL     1       1.459   8.915  20.892  0.00  0.00    +0.000 C 
ATOM      8  O   UNL     1       1.433   8.941  22.117  0.00  0.00    +0.000 OA
ATOM      9  N   UNL     1       1.262  10.026  20.099  0.00  0.00    +0.000 N 
ATOM     10  H   UNL     1       1.486   9.981  19.114  0.00  0.00    +0.000 HD
BRANCH   9  11
ATOM     11  C   UNL     1       0.987  11.333  20.663  0.00  0.00    +0.000 C 
BRANCH  11  12
ATOM     12  C   UNL     1      -0.287  11.951  20.090  0.00  0.00    +0.000 C 
BRANCH  12  13
ATOM     13  C   UNL     1      -1.409  10.916  20.041  0.00  0.00    +0.000 C 
BRANCH  13  14
ATOM     14  N   UNL     1      -2.051  10.829  18.741  0.00  0.00    +0.000 N 
ATOM     15  C   UNL     1      -3.190  11.634  18.377  0.00  0.00    +0.000 C 
ATOM     16  C   UNL     1      -3.640  11.016  17.066  0.00  0.00    +0.000 C 
ATOM     17  C   UNL     1      -2.343  10.516  16.439  0.00  0.00    +0.000 C 
ATOM     18  C   UNL     1      -1.477  10.211  17.638  0.00  0.00    +0.000 C 
ATOM     19  O   UNL     1      -0.436   9.578  17.619  0.00  0.00    +0.000 OA
ENDBRANCH  13  14
ENDBRANCH  12  13
ENDBRANCH  11  12
ENDBRANCH   9  11
ENDBRANCH   4   7
BRANCH   1  20
ATOM     20  N   UNL     1       2.516   4.101  18.031  0.00  0.00    +0.000 N 
ATOM     21  H   UNL     1       1.730   3.573  17.659  0.00  0.00    +0.000 HD
BRANCH  20  22
ATOM     22  S   UNL     1       3.926   3.223  18.292  0.00  0.00    +0.000 S 
ATOM     23  O   UNL     1       3.718   1.882  17.781  0.00  0.00    +0.000 OA
ATOM     24  O   UNL     1       4.304   3.440  19.671  0.00  0.00    +0.000 OA
BRANCH  22  31
ATOM     25  C   UNL     1       6.202   3.860  13.603  0.00  0.00    +0.000 C 
ATOM     26  C   UNL     1       6.138   4.264  15.047  0.00  0.00    +0.000 A 
ATOM     27  C   UNL     1       6.999   5.237  15.553  0.00  0.00    +0.000 A 
ATOM     28  C   UNL     1       6.946   5.602  16.902  0.00  0.00    +0.000 A 
ATOM     29  C   UNL     1       6.029   5.005  17.782  0.00  0.00    +0.000 A 
ATOM     30  C   UNL     1       6.037   5.444  19.219  0.00  0.00    +0.000 C 
ATOM     31  C   UNL     1       5.147   4.035  17.263  0.00  0.00    +0.000 A 
ATOM     32  C   UNL     1       5.211   3.664  15.907  0.00  0.00    +0.000 A 
ENDBRANCH  22  31
ENDBRANCH  20  22
ENDBRANCH   1  20
TORSDOF 8
ENDMDL
MODEL 6
REMARK VINA RESULT:      -8.0      2.427      3.339
REMARK  Name = 
REMARK  10 active torsions:
REMARK  status: ('A' for Active; 'I' for Inactive)
REMARK    1  A    between atoms: C_1  and  C_2
REMARK    2  A    between atoms: C_5  and  C_6
REMARK    3  A    between atoms: C_7  and  S_8
REMARK    4  A    between atoms: S_8  and  N_11
REMARK    5  A    between atoms: N_11  and  C_12
REMARK    6  A    between atoms: C_15  and  C_16
REMARK    7  A    between atoms: N_18  and  C_19
REMARK    8  A    between atoms: C_19  and  C_20
REMARK    9  A    between atoms: C_20  and  C_21
REMARK   10  A    between atoms: C_21  and  N_22
REMARK                            x       y       z     vdW  Elec       q    Type
REMARK                         _______ _______ _______ _____ _____    ______ ____
ROOT
ATOM      1  C   UNL     1       0.860  10.505  18.979  0.00  0.00    +0.000 A 
ATOM      2  C   UNL     1       1.367   9.961  17.800  0.00  0.00    +0.000 A 
ATOM      3  C   UNL     1       1.950   8.692  17.812  0.00  0.00    +0.000 A 
ATOM      4  C   UNL     1       2.003   7.955  19.002  0.00  0.00    +0.000 A 
ATOM      5  C   UNL     1       1.520   8.523  20.187  0.00  0.00    +0.000 A 
ATOM      6  C   UNL     1       0.956   9.800  20.178  0.00  0.00    +0.000 A 
ENDROOT
BRANCH   4   7
ATOM      7  C   UNL     1       2.585   6.583  19.057  0.00  0.00    +0.000 C 
ATOM      8  O   UNL     1       2.438   5.890  20.056  0.00  0.00    +0.000 OA
ATOM      9  N   UNL     1       3.249   6.161  17.924  0.00  0.00    +0.000 N 
ATOM     10  H   UNL     1       3.170   6.698  17.071  0.00  0.00    +0.000 HD
BRANCH   9  11
ATOM     11  C   UNL     1       3.848   4.844  17.832  0.00  0.00    +0.000 C 
BRANCH  11  12
ATOM     12  C   UNL     1       2.888   3.814  17.239  0.00  0.00    +0.000 C 
BRANCH  12  13
ATOM     13  C   UNL     1       3.041   2.469  17.944  0.00  0.00    +0.000 C 
BRANCH  13  14
ATOM     14  N   UNL     1       2.581   2.489  19.321  0.00  0.00    +0.000 N 
ATOM     15  C   UNL     1       3.458   2.754  20.434  0.00  0.00    +0.000 C 
ATOM     16  C   UNL     1       2.595   2.419  21.636  0.00  0.00    +0.000 C 
ATOM     17  C   UNL     1       1.184   2.773  21.179  0.00  0.00    +0.000 C 
ATOM     18  C   UNL     1       1.243   2.556  19.685  0.00  0.00    +0.000 C 
ATOM     19  O   UNL     1       0.282   2.502  18.938  0.00  0.00    +0.000 OA
ENDBRANCH  13  14
ENDBRANCH  12  13
ENDBRANCH  11  12
ENDBRANCH   9  11
ENDBRANCH   4   7
BRANCH   1  20
ATOM     20  N   UNL     1       0.254  11.782  18.931  0.00  0.00    +0.000 N 
ATOM     21  H   UNL     1       0.809  12.599  18.688  0.00  0.00    +0.000 HD
BRANCH  20  22
ATOM     22  S   UNL     1      -1.139  12.085  19.823  0.00  0.00    +0.000 S 
ATOM     23  O   UNL     1      -1.158  13.495  20.157  0.00  0.00    +0.000 OA
ATOM     24  O   UNL     1      -1.198  11.077  20.860  0.00  0.00    +0.000 OA
BRANCH  22  31
ATOM     25  C   UNL     1      -2.772  10.401  15.125  0.00  0.00    +0.000 C 
ATOM     26  C   UNL     1      -3.138  10.954  16.471  0.00  0.00    +0.000 A 
ATOM     27  C   UNL     1      -4.471  11.196  16.805  0.00  0.00    +0.000 A 
ATOM     28  C   UNL     1      -4.807  11.724  18.054  0.00  0.00    +0.000 A 
ATOM     29  C   UNL     1      -3.821  12.022  19.008  0.00  0.00    +0.000 A 
ATOM     30  C   UNL     1      -4.260  12.593  20.327  0.00  0.00    +0.000 C 
ATOM     31  C   UNL     1      -2.476  11.759  18.676  0.00  0.00    +0.000 A 
ATOM     32  C   UNL     1      -2.141  11.237  17.413  0.00  0.00    +0.000 A 
ENDBRANCH  22  31
ENDBRANCH  20  22
ENDBRANCH   1  20
TORSDOF 8
ENDMDL
MODEL 7
REMARK VINA RESULT:      -8.0      5.369      9.105
REMARK  Name = 
REMARK  10 active torsions:
REMARK  status: ('A' for Active; 'I' for Inactive)
REMARK    1  A    between atoms: C_1  and  C_2
REMARK    2  A    between atoms: C_5  and  C_6
REMARK    3  A    between atoms: C_7  and  S_8
REMARK    4  A    between atoms: S_8  and  N_11
REMARK    5  A    between atoms: N_11  and  C_12
REMARK    6  A    between atoms: C_15  and  C_16
REMARK    7  A    between atoms: N_18  and  C_19
REMARK    8  A    between atoms: C_19  and  C_20
REMARK    9  A    between atoms: C_20  and  C_21
REMARK   10  A    between atoms: C_21  and  N_22
REMARK                            x       y       z     vdW  Elec       q    Type
REMARK                         _______ _______ _______ _____ _____    ______ ____
ROOT
ATOM      1  C   UNL     1       4.906   3.838  18.092  0.00  0.00    +0.000 A 
ATOM      2  C   UNL     1       5.193   4.306  16.811  0.00  0.00    +0.000 A 
ATOM      3  C   UNL     1       6.089   5.364  16.638  0.00  0.00    +0.000 A 
ATOM      4  C   UNL     1       6.718   5.938  17.750  0.00  0.00    +0.000 A 
ATOM      5  C   UNL     1       6.399   5.483  19.036  0.00  0.00    +0.000 A 
ATOM      6  C   UNL     1       5.488   4.439  19.207  0.00  0.00    +0.000 A 
ENDROOT
BRANCH   4   7
ATOM      7  C   UNL     1       7.707   7.046  17.613  0.00  0.00    +0.000 C 
ATOM      8  O   UNL     1       8.105   7.384  16.505  0.00  0.00    +0.000 OA
ATOM      9  N   UNL     1       8.098   7.658  18.786  0.00  0.00    +0.000 N 
ATOM     10  H   UNL     1       7.593   7.465  19.641  0.00  0.00    +0.000 HD
BRANCH   9  11
ATOM     11  C   UNL     1       9.040   8.760  18.800  0.00  0.00    +0.000 C 
BRANCH  11  12
ATOM     12  C   UNL     1       8.412  10.060  18.300  0.00  0.00    +0.000 C 
BRANCH  12  13
ATOM     13  C   UNL     1       9.465  11.162  18.205  0.00  0.00    +0.000 C 
BRANCH  13  14
ATOM     14  N   UNL     1       9.483  12.037  19.363  0.00  0.00    +0.000 N 
ATOM     15  C   UNL     1      10.348  11.817  20.495  0.00  0.00    +0.000 C 
ATOM     16  C   UNL     1       9.831  12.812  21.518  0.00  0.00    +0.000 C 
ATOM     17  C   UNL     1       9.327  13.974  20.670  0.00  0.00    +0.000 C 
ATOM     18  C   UNL     1       8.917  13.305  19.379  0.00  0.00    +0.000 C 
ATOM     19  O   UNL     1       8.250  13.816  18.496  0.00  0.00    +0.000 OA
ENDBRANCH  13  14
ENDBRANCH  12  13
ENDBRANCH  11  12
ENDBRANCH   9  11
ENDBRANCH   4   7
BRANCH   1  20
ATOM     20  N   UNL     1       4.013   2.750  18.233  0.00  0.00    +0.000 N 
ATOM     21  H   UNL     1       4.308   1.814  17.968  0.00  0.00    +0.000 HD
BRANCH  20  22
ATOM     22  S   UNL     1       2.353   3.020  18.236  0.00  0.00    +0.000 S 
ATOM     23  O   UNL     1       1.741   2.030  19.100  0.00  0.00    +0.000 OA
ATOM     24  O   UNL     1       1.949   3.148  16.853  0.00  0.00    +0.000 OA
BRANCH  22  31
ATOM     25  C   UNL     1       2.299   8.256  17.834  0.00  0.00    +0.000 C 
ATOM     26  C   UNL     1       2.159   7.050  18.717  0.00  0.00    +0.000 A 
ATOM     27  C   UNL     1       1.892   7.191  20.079  0.00  0.00    +0.000 A 
ATOM     28  C   UNL     1       1.775   6.066  20.901  0.00  0.00    +0.000 A 
ATOM     29  C   UNL     1       1.919   4.768  20.385  0.00  0.00    +0.000 A 
ATOM     30  C   UNL     1       1.786   3.610  21.332  0.00  0.00    +0.000 C 
ATOM     31  C   UNL     1       2.170   4.628  19.004  0.00  0.00    +0.000 A 
ATOM     32  C   UNL     1       2.297   5.764  18.182  0.00  0.00    +0.000 A 
ENDBRANCH  22  31
ENDBRANCH  20  22
ENDBRANCH   1  20
TORSDOF 8
ENDMDL
MODEL 8
REMARK VINA RESULT:      -8.0      3.154     10.005
REMARK  Name = 
REMARK  10 active torsions:
REMARK  status: ('A' for Active; 'I' for Inactive)
REMARK    1  A    between atoms: C_1  and  C_2
REMARK    2  A    between atoms: C_5  and  C_6
REMARK    3  A    between atoms: C_7  and  S_8
REMARK    4  A    between atoms: S_8  and  N_11
REMARK    5  A    between atoms: N_11  and  C_12
REMARK    6  A    between atoms: C_15  and  C_16
REMARK    7  A    between atoms: N_18  and  C_19
REMARK    8  A    between atoms: C_19  and  C_20
REMARK    9  A    between atoms: C_20  and  C_21
REMARK   10  A    between atoms: C_21  and  N_22
REMARK                            x       y       z     vdW  Elec       q    Type
REMARK                         _______ _______ _______ _____ _____    ______ ____
ROOT
ATOM      1  C   UNL     1       2.270   5.312  18.742  0.00  0.00    +0.000 A 
ATOM      2  C   UNL     1       1.778   5.167  20.037  0.00  0.00    +0.000 A 
ATOM      3  C   UNL     1       1.495   6.298  20.807  0.00  0.00    +0.000 A 
ATOM      4  C   UNL     1       1.682   7.578  20.269  0.00  0.00    +0.000 A 
ATOM      5  C   UNL     1       2.207   7.713  18.978  0.00  0.00    +0.000 A 
ATOM      6  C   UNL     1       2.508   6.582  18.217  0.00  0.00    +0.000 A 
ENDROOT
BRANCH   4   7
ATOM      7  C   UNL     1       1.362   8.814  21.040  0.00  0.00    +0.000 C 
ATOM      8  O   UNL     1       1.451   8.818  22.262  0.00  0.00    +0.000 OA
ATOM      9  N   UNL     1       1.003   9.917  20.294  0.00  0.00    +0.000 N 
ATOM     10  H   UNL     1       1.134   9.905  19.291  0.00  0.00    +0.000 HD
BRANCH   9  11
ATOM     11  C   UNL     1       0.682  11.189  20.912  0.00  0.00    +0.000 C 
BRANCH  11  12
ATOM     12  C   UNL     1      -0.491  11.884  20.223  0.00  0.00    +0.000 C 
BRANCH  12  13
ATOM     13  C   UNL     1      -0.146  12.205  18.770  0.00  0.00    +0.000 C 
BRANCH  13  14
ATOM     14  N   UNL     1       0.969  13.127  18.637  0.00  0.00    +0.000 N 
ATOM     15  C   UNL     1       0.932  14.475  19.144  0.00  0.00    +0.000 C 
ATOM     16  C   UNL     1       2.184  15.096  18.553  0.00  0.00    +0.000 C 
ATOM     17  C   UNL     1       3.162  13.930  18.470  0.00  0.00    +0.000 C 
ATOM     18  C   UNL     1       2.256  12.734  18.295  0.00  0.00    +0.000 C 
ATOM     19  O   UNL     1       2.612  11.617  17.961  0.00  0.00    +0.000 OA
ENDBRANCH  13  14
ENDBRANCH  12  13
ENDBRANCH  11  12
ENDBRANCH   9  11
ENDBRANCH   4   7
BRANCH   1  20
ATOM     20  N   UNL     1       2.525   4.149  17.978  0.00  0.00    +0.000 N 
ATOM     21  H   UNL     1       1.754   3.648  17.543  0.00  0.00    +0.000 HD
BRANCH  20  22
ATOM     22  S   UNL     1       3.916   3.247  18.259  0.00  0.00    +0.000 S 
ATOM     23  O   UNL     1       3.688   1.907  17.756  0.00  0.00    +0.000 OA
ATOM     24  O   UNL     1       4.284   3.468  19.641  0.00  0.00    +0.000 OA
BRANCH  22  31
ATOM     25  C   UNL     1       6.209   3.854  13.574  0.00  0.00    +0.000 C 
ATOM     26  C   UNL     1       6.159   4.246  15.022  0.00  0.00    +0.000 A 
ATOM     27  C   UNL     1       7.051   5.188  15.537  0.00  0.00    +0.000 A 
ATOM     28  C   UNL     1       7.010   5.541  16.888  0.00  0.00    +0.000 A 
ATOM     29  C   UNL     1       6.075   4.966  17.764  0.00  0.00    +0.000 A 
ATOM     30  C   UNL     1       6.097   5.392  19.204  0.00  0.00    +0.000 C 
ATOM     31  C   UNL     1       5.162   4.029  17.237  0.00  0.00    +0.000 A 
ATOM     32  C   UNL     1       5.213   3.669  15.877  0.00  0.00    +0.000 A 
ENDBRANCH  22  31
ENDBRANCH  20  22
ENDBRANCH   1  20
TORSDOF 8
ENDMDL
MODEL 9
REMARK VINA RESULT:      -8.0      2.581      3.886
REMARK  Name = 
REMARK  10 active torsions:
REMARK  status: ('A' for Active; 'I' for Inactive)
REMARK    1  A    between atoms: C_1  and  C_2
REMARK    2  A    between atoms: C_5  and  C_6
REMARK    3  A    between atoms: C_7  and  S_8
REMARK    4  A    between atoms: S_8  and  N_11
REMARK    5  A    between atoms: N_11  and  C_12
REMARK    6  A    between atoms: C_15  and  C_16
REMARK    7  A    between atoms: N_18  and  C_19
REMARK    8  A    between atoms: C_19  and  C_20
REMARK    9  A    between atoms: C_20  and  C_21
REMARK   10  A    between atoms: C_21  and  N_22
REMARK                            x       y       z     vdW  Elec       q    Type
REMARK                         _______ _______ _______ _____ _____    ______ ____
ROOT
ATOM      1  C   UNL     1       0.671  10.694  19.319  0.00  0.00    +0.000 A 
ATOM      2  C   UNL     1       1.309  10.071  18.248  0.00  0.00    +0.000 A 
ATOM      3  C   UNL     1       1.869   8.802  18.412  0.00  0.00    +0.000 A 
ATOM      4  C   UNL     1       1.769   8.145  19.646  0.00  0.00    +0.000 A 
ATOM      5  C   UNL     1       1.154   8.793  20.725  0.00  0.00    +0.000 A 
ATOM      6  C   UNL     1       0.612  10.070  20.564  0.00  0.00    +0.000 A 
ENDROOT
BRANCH   4   7
ATOM      7  C   UNL     1       2.322   6.776  19.860  0.00  0.00    +0.000 C 
ATOM      8  O   UNL     1       3.293   6.396  19.216  0.00  0.00    +0.000 OA
ATOM      9  N   UNL     1       1.697   6.015  20.825  0.00  0.00    +0.000 N 
ATOM     10  H   UNL     1       1.032   6.450  21.450  0.00  0.00    +0.000 HD
BRANCH   9  11
ATOM     11  C   UNL     1       2.140   4.673  21.149  0.00  0.00    +0.000 C 
BRANCH  11  12
ATOM     12  C   UNL     1       1.220   3.605  20.560  0.00  0.00    +0.000 C 
BRANCH  12  13
ATOM     13  C   UNL     1       2.039   2.467  19.954  0.00  0.00    +0.000 C 
BRANCH  13  14
ATOM     14  N   UNL     1       2.881   2.892  18.850  0.00  0.00    +0.000 N 
ATOM     15  C   UNL     1       2.354   3.502  17.655  0.00  0.00    +0.000 C 
ATOM     16  C   UNL     1       3.554   3.526  16.727  0.00  0.00    +0.000 C 
ATOM     17  C   UNL     1       4.739   3.692  17.671  0.00  0.00    +0.000 C 
ATOM     18  C   UNL     1       4.259   3.035  18.944  0.00  0.00    +0.000 C 
ATOM     19  O   UNL     1       4.959   2.735  19.894  0.00  0.00    +0.000 OA
ENDBRANCH  13  14
ENDBRANCH  12  13
ENDBRANCH  11  12
ENDBRANCH   9  11
ENDBRANCH   4   7
BRANCH   1  20
ATOM     20  N   UNL     1       0.092  11.969  19.115  0.00  0.00    +0.000 N 
ATOM     21  H   UNL     1       0.674  12.750  18.822  0.00  0.00    +0.000 HD
BRANCH  20  22
ATOM     22  S   UNL     1      -1.338  12.377  19.899  0.00  0.00    +0.000 S 
ATOM     23  O   UNL     1      -1.369  13.818  20.049  0.00  0.00    +0.000 OA
ATOM     24  O   UNL     1      -1.444  11.510  21.053  0.00  0.00    +0.000 OA
BRANCH  22  31
ATOM     25  C   UNL     1      -2.747  10.439  15.227  0.00  0.00    +0.000 C 
ATOM     26  C   UNL     1      -3.180  10.988  16.555  0.00  0.00    +0.000 A 
ATOM     27  C   UNL     1      -4.534  11.113  16.868  0.00  0.00    +0.000 A 
ATOM     28  C   UNL     1      -4.934  11.636  18.100  0.00  0.00    +0.000 A 
ATOM     29  C   UNL     1      -3.991  12.047  19.057  0.00  0.00    +0.000 A 
ATOM     30  C   UNL     1      -4.498  12.606  20.357  0.00  0.00    +0.000 C 
ATOM     31  C   UNL     1      -2.624  11.902  18.746  0.00  0.00    +0.000 A 
ATOM     32  C   UNL     1      -2.226  11.384  17.500  0.00  0.00    +0.000 A 
ENDBRANCH  22  31
ENDBRANCH  20  22
ENDBRANCH   1  20
TORSDOF 8
ENDMDL
