MODEL 1
REMARK VINA RESULT:      -8.3      0.000      0.000
REMARK  Name = 
REMARK  8 active torsions:
REMARK  status: ('A' for Active; 'I' for Inactive)
REMARK    1  A    between atoms: O_1  and  C_2
REMARK    2  A    between atoms: C_2  and  C_3
REMARK    3  A    between atoms: C_3  and  O_4
REMARK    4  A    between atoms: O_4  and  C_5
REMARK    5  A    between atoms: N_13  and  C_14
REMARK    6  A    between atoms: C_17  and  O_18
REMARK    7  A    between atoms: O_18  and  C_19
REMARK    8  A    between atoms: C_19  and  C_20
REMARK                            x       y       z     vdW  Elec       q    Type
REMARK                         _______ _______ _______ _____ _____    ______ ____
ROOT
ATOM      1  C   UNL     1       4.775   4.088  19.390  0.00  0.00    +0.000 A 
ATOM      2  N   UNL     1       5.173   2.861  19.033  0.00  0.00    +0.000 NA
ATOM      3  N   UNL     1       4.040   2.142  19.126  0.00  0.00    +0.000 N 
ATOM      4  C   UNL     1       2.960   2.864  19.536  0.00  0.00    +0.000 A 
ATOM      5  N   UNL     1       1.711   2.402  19.677  0.00  0.00    +0.000 NA
ATOM      6  C   UNL     1       0.882   3.378  20.067  0.00  0.00    +0.000 A 
ATOM      7  N   UNL     1       1.190   4.664  20.311  0.00  0.00    +0.000 NA
ATOM      8  C   UNL     1       2.470   5.109  20.149  0.00  0.00    +0.000 A 
ATOM      9  N   UNL     1       2.798   6.468  20.311  0.00  0.00    +0.000 N 
ATOM     10  C   UNL     1       3.414   4.156  19.746  0.00  0.00    +0.000 A 
ATOM     11  H   UNL     1       4.055   1.160  18.880  0.00  0.00    +0.000 HD
ATOM     12  H   UNL     1       3.776   6.658  20.111  0.00  0.00    +0.000 HD
ENDROOT
BRANCH   9  13
ATOM     13  C   UNL     1       1.946   7.580  20.164  0.00  0.00    +0.000 A 
ATOM     14  C   UNL     1       1.908   8.353  19.000  0.00  0.00    +0.000 A 
ATOM     15  C   UNL     1       1.154   9.520  18.921  0.00  0.00    +0.000 A 
ATOM     16  C   UNL     1       0.413   9.955  20.018  0.00  0.00    +0.000 A 
ATOM     17  C   UNL     1       0.375   9.151  21.164  0.00  0.00    +0.000 A 
ATOM     18 CL   UNL     1      -0.553   9.607  22.551  0.00  0.00    +0.000 Cl
ATOM     19  C   UNL     1       1.130   7.972  21.233  0.00  0.00    +0.000 A 
BRANCH  16  20
ATOM     20  O   UNL     1      -0.281  11.138  20.018  0.00  0.00    +0.000 OA
BRANCH  20  21
ATOM     21  C   UNL     1      -0.503  11.694  18.715  0.00  0.00    +0.000 C 
BRANCH  21  22
ATOM     22  C   UNL     1      -1.865  11.347  18.171  0.00  0.00    +0.000 A 
ATOM     23  C   UNL     1      -2.020  10.356  17.205  0.00  0.00    +0.000 A 
ATOM     24  C   UNL     1      -3.304  10.002  16.808  0.00  0.00    +0.000 A 
ATOM     25  C   UNL     1      -4.395  10.634  17.391  0.00  0.00    +0.000 A 
ATOM     26  C   UNL     1      -4.159  11.601  18.352  0.00  0.00    +0.000 A 
ATOM     27  N   UNL     1      -2.924  11.968  18.756  0.00  0.00    +0.000 NA
ENDBRANCH  21  22
ENDBRANCH  20  21
ENDBRANCH  16  20
ENDBRANCH   9  13
BRANCH   1  28
ATOM     28  O   UNL     1       5.668   5.103  19.395  0.00  0.00    +0.000 OA
BRANCH  28  29
ATOM     29  C   UNL     1       6.033   5.518  18.069  0.00  0.00    +0.000 C 
BRANCH  29  30
ATOM     30  C   UNL     1       7.543   5.406  17.885  0.00  0.00    +0.000 C 
BRANCH  30  31
ATOM     31  O   UNL     1       7.945   4.042  17.813  0.00  0.00    +0.000 OA
ATOM     32  H   UNL     1       8.127   3.851  16.876  0.00  0.00    +0.000 HD
ENDBRANCH  30  31
ENDBRANCH  29  30
ENDBRANCH  28  29
ENDBRANCH   1  28
TORSDOF 8
ENDMDL
MODEL 2
REMARK VINA RESULT:      -7.9      0.730      1.022
REMARK  Name = 
REMARK  8 active torsions:
REMARK  status: ('A' for Active; 'I' for Inactive)
REMARK    1  A    between atoms: O_1  and  C_2
REMARK    2  A    between atoms: C_2  and  C_3
REMARK    3  A    between atoms: C_3  and  O_4
REMARK    4  A    between atoms: O_4  and  C_5
REMARK    5  A    between atoms: N_13  and  C_14
REMARK    6  A    between atoms: C_17  and  O_18
REMARK    7  A    between atoms: O_18  and  C_19
REMARK    8  A    between atoms: C_19  and  C_20
REMARK                            x       y       z     vdW  Elec       q    Type
REMARK                         _______ _______ _______ _____ _____    ______ ____
ROOT
ATOM      1  C   UNL     1       4.600   4.229  18.805  0.00  0.00    +0.000 A 
ATOM      2  N   UNL     1       4.949   2.968  18.520  0.00  0.00    +0.000 NA
ATOM      3  N   UNL     1       3.925   2.255  19.024  0.00  0.00    +0.000 N 
ATOM      4  C   UNL     1       2.964   3.016  19.618  0.00  0.00    +0.000 A 
ATOM      5  N   UNL     1       1.828   2.563  20.165  0.00  0.00    +0.000 NA
ATOM      6  C   UNL     1       1.088   3.575  20.636  0.00  0.00    +0.000 A 
ATOM      7  N   UNL     1       1.384   4.886  20.608  0.00  0.00    +0.000 NA
ATOM      8  C   UNL     1       2.544   5.319  20.035  0.00  0.00    +0.000 A 
ATOM      9  N   UNL     1       2.832   6.692  19.912  0.00  0.00    +0.000 N 
ATOM     10  C   UNL     1       3.389   4.330  19.516  0.00  0.00    +0.000 A 
ATOM     11  H   UNL     1       3.923   1.248  18.918  0.00  0.00    +0.000 HD
ATOM     12  H   UNL     1       3.705   6.863  19.422  0.00  0.00    +0.000 HD
ENDROOT
BRANCH   9  13
ATOM     13  C   UNL     1       1.915   7.760  19.861  0.00  0.00    +0.000 A 
ATOM     14  C   UNL     1       1.720   8.533  18.713  0.00  0.00    +0.000 A 
ATOM     15  C   UNL     1       0.905   9.661  18.720  0.00  0.00    +0.000 A 
ATOM     16  C   UNL     1       0.259  10.054  19.890  0.00  0.00    +0.000 A 
ATOM     17  C   UNL     1       0.377   9.246  21.027  0.00  0.00    +0.000 A 
ATOM     18 CL   UNL     1      -0.427   9.651  22.504  0.00  0.00    +0.000 Cl
ATOM     19  C   UNL     1       1.193   8.107  21.010  0.00  0.00    +0.000 A 
BRANCH  16  20
ATOM     20  O   UNL     1      -0.490  11.201  19.970  0.00  0.00    +0.000 OA
BRANCH  20  21
ATOM     21  C   UNL     1      -0.738  11.836  18.707  0.00  0.00    +0.000 C 
BRANCH  21  22
ATOM     22  C   UNL     1      -2.149  11.616  18.226  0.00  0.00    +0.000 A 
ATOM     23  C   UNL     1      -3.238  11.912  19.042  0.00  0.00    +0.000 A 
ATOM     24  C   UNL     1      -4.520  11.787  18.519  0.00  0.00    +0.000 A 
ATOM     25  C   UNL     1      -4.680  11.386  17.199  0.00  0.00    +0.000 A 
ATOM     26  C   UNL     1      -3.547  11.122  16.449  0.00  0.00    +0.000 A 
ATOM     27  N   UNL     1      -2.291  11.231  16.930  0.00  0.00    +0.000 NA
ENDBRANCH  21  22
ENDBRANCH  20  21
ENDBRANCH  16  20
ENDBRANCH   9  13
BRANCH   1  28
ATOM     28  O   UNL     1       5.405   5.245  18.421  0.00  0.00    +0.000 OA
BRANCH  28  29
ATOM     29  C   UNL     1       6.510   5.438  19.317  0.00  0.00    +0.000 C 
BRANCH  29  30
ATOM     30  C   UNL     1       7.826   5.337  18.553  0.00  0.00    +0.000 C 
BRANCH  30  31
ATOM     31  O   UNL     1       7.918   4.093  17.865  0.00  0.00    +0.000 OA
ATOM     32  H   UNL     1       8.790   3.718  18.079  0.00  0.00    +0.000 HD
ENDBRANCH  30  31
ENDBRANCH  29  30
ENDBRANCH  28  29
ENDBRANCH   1  28
TORSDOF 8
ENDMDL
MODEL 3
REMARK VINA RESULT:      -7.8      1.767      1.955
REMARK  Name = 
REMARK  8 active torsions:
REMARK  status: ('A' for Active; 'I' for Inactive)
REMARK    1  A    between atoms: O_1  and  C_2
REMARK    2  A    between atoms: C_2  and  C_3
REMARK    3  A    between atoms: C_3  and  O_4
REMARK    4  A    between atoms: O_4  and  C_5
REMARK    5  A    between atoms: N_13  and  C_14
REMARK    6  A    between atoms: C_17  and  O_18
REMARK    7  A    between atoms: O_18  and  C_19
REMARK    8  A    between atoms: C_19  and  C_20
REMARK                            x       y       z     vdW  Elec       q    Type
REMARK                         _______ _______ _______ _____ _____    ______ ____
ROOT
ATOM      1  C   UNL     1       5.471   5.100  16.814  0.00  0.00    +0.000 A 
ATOM      2  N   UNL     1       5.974   4.031  16.184  0.00  0.00    +0.000 NA
ATOM      3  N   UNL     1       5.034   3.092  16.396  0.00  0.00    +0.000 N 
ATOM      4  C   UNL     1       3.977   3.527  17.138  0.00  0.00    +0.000 A 
ATOM      5  N   UNL     1       2.895   2.808  17.461  0.00  0.00    +0.000 NA
ATOM      6  C   UNL     1       2.030   3.542  18.173  0.00  0.00    +0.000 A 
ATOM      7  N   UNL     1       2.165   4.824  18.554  0.00  0.00    +0.000 NA
ATOM      8  C   UNL     1       3.276   5.535  18.201  0.00  0.00    +0.000 A 
ATOM      9  N   UNL     1       3.399   6.903  18.510  0.00  0.00    +0.000 N 
ATOM     10  C   UNL     1       4.243   4.848  17.456  0.00  0.00    +0.000 A 
ATOM     11  H   UNL     1       5.155   2.171  15.994  0.00  0.00    +0.000 HD
ATOM     12  H   UNL     1       4.254   7.309  18.142  0.00  0.00    +0.000 HD
ENDROOT
BRANCH   9  13
ATOM     13  C   UNL     1       2.361   7.829  18.731  0.00  0.00    +0.000 A 
ATOM     14  C   UNL     1       1.858   8.654  17.722  0.00  0.00    +0.000 A 
ATOM     15  C   UNL     1       0.922   9.650  17.988  0.00  0.00    +0.000 A 
ATOM     16  C   UNL     1       0.463   9.854  19.287  0.00  0.00    +0.000 A 
ATOM     17  C   UNL     1       0.893   8.984  20.297  0.00  0.00    +0.000 A 
ATOM     18 CL   UNL     1       0.337   9.152  21.926  0.00  0.00    +0.000 Cl
ATOM     19  C   UNL     1       1.829   7.978  20.019  0.00  0.00    +0.000 A 
BRANCH  16  20
ATOM     20  O   UNL     1      -0.397  10.871  19.615  0.00  0.00    +0.000 OA
BRANCH  20  21
ATOM     21  C   UNL     1      -0.701  11.762  18.533  0.00  0.00    +0.000 C 
BRANCH  21  22
ATOM     22  C   UNL     1      -2.139  11.653  18.093  0.00  0.00    +0.000 A 
ATOM     23  C   UNL     1      -2.468  11.145  16.839  0.00  0.00    +0.000 A 
ATOM     24  C   UNL     1      -3.809  10.972  16.517  0.00  0.00    +0.000 A 
ATOM     25  C   UNL     1      -4.781  11.296  17.455  0.00  0.00    +0.000 A 
ATOM     26  C   UNL     1      -4.373  11.785  18.684  0.00  0.00    +0.000 A 
ATOM     27  N   UNL     1      -3.079  11.967  19.023  0.00  0.00    +0.000 NA
ENDBRANCH  21  22
ENDBRANCH  20  21
ENDBRANCH  16  20
ENDBRANCH   9  13
BRANCH   1  28
ATOM     28  O   UNL     1       6.155   6.267  16.796  0.00  0.00    +0.000 OA
BRANCH  28  29
ATOM     29  C   UNL     1       7.062   6.388  17.903  0.00  0.00    +0.000 C 
BRANCH  29  30
ATOM     30  C   UNL     1       7.793   7.725  17.835  0.00  0.00    +0.000 C 
BRANCH  30  31
ATOM     31  O   UNL     1       8.678   7.876  18.941  0.00  0.00    +0.000 OA
ATOM     32  H   UNL     1       8.688   7.024  19.411  0.00  0.00    +0.000 HD
ENDBRANCH  30  31
ENDBRANCH  29  30
ENDBRANCH  28  29
ENDBRANCH   1  28
TORSDOF 8
ENDMDL
MODEL 4
REMARK VINA RESULT:      -7.7      2.661      8.806
REMARK  Name = 
REMARK  8 active torsions:
REMARK  status: ('A' for Active; 'I' for Inactive)
REMARK    1  A    between atoms: O_1  and  C_2
REMARK    2  A    between atoms: C_2  and  C_3
REMARK    3  A    between atoms: C_3  and  O_4
REMARK    4  A    between atoms: O_4  and  C_5
REMARK    5  A    between atoms: N_13  and  C_14
REMARK    6  A    between atoms: C_17  and  O_18
REMARK    7  A    between atoms: O_18  and  C_19
REMARK    8  A    between atoms: C_19  and  C_20
REMARK                            x       y       z     vdW  Elec       q    Type
REMARK                         _______ _______ _______ _____ _____    ______ ____
ROOT
ATOM      1  C   UNL     1      -1.056  11.712  21.047  0.00  0.00    +0.000 A 
ATOM      2  N   UNL     1      -2.142  12.486  21.159  0.00  0.00    +0.000 NA
ATOM      3  N   UNL     1      -2.734  12.343  19.959  0.00  0.00    +0.000 N 
ATOM      4  C   UNL     1      -2.058  11.525  19.104  0.00  0.00    +0.000 A 
ATOM      5  N   UNL     1      -2.444  11.187  17.868  0.00  0.00    +0.000 NA
ATOM      6  C   UNL     1      -1.568  10.343  17.308  0.00  0.00    +0.000 A 
ATOM      7  N   UNL     1      -0.433   9.866  17.847  0.00  0.00    +0.000 NA
ATOM      8  C   UNL     1      -0.069  10.221  19.114  0.00  0.00    +0.000 A 
ATOM      9  N   UNL     1       1.066   9.664  19.734  0.00  0.00    +0.000 N 
ATOM     10  C   UNL     1      -0.924  11.107  19.782  0.00  0.00    +0.000 A 
ATOM     11  H   UNL     1      -3.612  12.814  19.780  0.00  0.00    +0.000 HD
ATOM     12  H   UNL     1       1.182   9.984  20.690  0.00  0.00    +0.000 HD
ENDROOT
BRANCH   9  13
ATOM     13  C   UNL     1       1.674   8.424  19.455  0.00  0.00    +0.000 A 
ATOM     14  C   UNL     1       2.323   8.157  18.246  0.00  0.00    +0.000 A 
ATOM     15  C   UNL     1       2.806   6.888  17.941  0.00  0.00    +0.000 A 
ATOM     16  C   UNL     1       2.647   5.838  18.842  0.00  0.00    +0.000 A 
ATOM     17  C   UNL     1       2.073   6.106  20.091  0.00  0.00    +0.000 A 
ATOM     18 CL   UNL     1       1.877   4.862  21.276  0.00  0.00    +0.000 Cl
ATOM     19  C   UNL     1       1.596   7.389  20.396  0.00  0.00    +0.000 A 
BRANCH  16  20
ATOM     20  O   UNL     1       3.032   4.553  18.556  0.00  0.00    +0.000 OA
BRANCH  20  21
ATOM     21  C   UNL     1       4.359   4.222  18.991  0.00  0.00    +0.000 C 
BRANCH  21  22
ATOM     22  C   UNL     1       5.351   4.239  17.858  0.00  0.00    +0.000 A 
ATOM     23  C   UNL     1       4.932   4.110  16.536  0.00  0.00    +0.000 A 
ATOM     24  C   UNL     1       5.873   4.230  15.520  0.00  0.00    +0.000 A 
ATOM     25  C   UNL     1       7.198   4.489  15.847  0.00  0.00    +0.000 A 
ATOM     26  C   UNL     1       7.533   4.616  17.184  0.00  0.00    +0.000 A 
ATOM     27  N   UNL     1       6.643   4.500  18.192  0.00  0.00    +0.000 NA
ENDBRANCH  21  22
ENDBRANCH  20  21
ENDBRANCH  16  20
ENDBRANCH   9  13
BRANCH   1  28
ATOM     28  O   UNL     1      -0.211  11.594  22.096  0.00  0.00    +0.000 OA
BRANCH  28  29
ATOM     29  C   UNL     1      -0.768  10.812  23.163  0.00  0.00    +0.000 C 
BRANCH  29  30
ATOM     30  C   UNL     1      -0.059   9.464  23.248  0.00  0.00    +0.000 C 
BRANCH  30  31
ATOM     31  O   UNL     1      -0.832   8.445  22.621  0.00  0.00    +0.000 OA
ATOM     32  H   UNL     1      -0.507   7.595  22.966  0.00  0.00    +0.000 HD
ENDBRANCH  30  31
ENDBRANCH  29  30
ENDBRANCH  28  29
ENDBRANCH   1  28
TORSDOF 8
ENDMDL
MODEL 5
REMARK VINA RESULT:      -7.7      1.865      2.291
REMARK  Name = 
REMARK  8 active torsions:
REMARK  status: ('A' for Active; 'I' for Inactive)
REMARK    1  A    between atoms: O_1  and  C_2
REMARK    2  A    between atoms: C_2  and  C_3
REMARK    3  A    between atoms: C_3  and  O_4
REMARK    4  A    between atoms: O_4  and  C_5
REMARK    5  A    between atoms: N_13  and  C_14
REMARK    6  A    between atoms: C_17  and  O_18
REMARK    7  A    between atoms: O_18  and  C_19
REMARK    8  A    between atoms: C_19  and  C_20
REMARK                            x       y       z     vdW  Elec       q    Type
REMARK                         _______ _______ _______ _____ _____    ______ ____
ROOT
ATOM      1  C   UNL     1       6.054   5.492  17.033  0.00  0.00    +0.000 A 
ATOM      2  N   UNL     1       6.708   4.555  16.334  0.00  0.00    +0.000 NA
ATOM      3  N   UNL     1       5.785   3.585  16.203  0.00  0.00    +0.000 N 
ATOM      4  C   UNL     1       4.594   3.872  16.799  0.00  0.00    +0.000 A 
ATOM      5  N   UNL     1       3.502   3.097  16.787  0.00  0.00    +0.000 NA
ATOM      6  C   UNL     1       2.492   3.686  17.440  0.00  0.00    +0.000 A 
ATOM      7  N   UNL     1       2.502   4.883  18.054  0.00  0.00    +0.000 NA
ATOM      8  C   UNL     1       3.628   5.655  18.040  0.00  0.00    +0.000 A 
ATOM      9  N   UNL     1       3.635   6.948  18.596  0.00  0.00    +0.000 N 
ATOM     10  C   UNL     1       4.742   5.119  17.382  0.00  0.00    +0.000 A 
ATOM     11  H   UNL     1       6.016   2.749  15.679  0.00  0.00    +0.000 HD
ATOM     12  H   UNL     1       4.524   7.421  18.469  0.00  0.00    +0.000 HD
ENDROOT
BRANCH   9  13
ATOM     13  C   UNL     1       2.536   7.811  18.775  0.00  0.00    +0.000 A 
ATOM     14  C   UNL     1       2.060   8.647  17.761  0.00  0.00    +0.000 A 
ATOM     15  C   UNL     1       1.056   9.582  17.996  0.00  0.00    +0.000 A 
ATOM     16  C   UNL     1       0.498   9.714  19.265  0.00  0.00    +0.000 A 
ATOM     17  C   UNL     1       0.905   8.829  20.272  0.00  0.00    +0.000 A 
ATOM     18 CL   UNL     1       0.231   8.908  21.863  0.00  0.00    +0.000 Cl
ATOM     19  C   UNL     1       1.911   7.884  20.027  0.00  0.00    +0.000 A 
BRANCH  16  20
ATOM     20  O   UNL     1      -0.435  10.672  19.567  0.00  0.00    +0.000 OA
BRANCH  20  21
ATOM     21  C   UNL     1      -0.728  11.573  18.490  0.00  0.00    +0.000 C 
BRANCH  21  22
ATOM     22  C   UNL     1      -2.133  11.405  17.972  0.00  0.00    +0.000 A 
ATOM     23  C   UNL     1      -3.216  11.964  18.644  0.00  0.00    +0.000 A 
ATOM     24  C   UNL     1      -4.480  11.867  18.075  0.00  0.00    +0.000 A 
ATOM     25  C   UNL     1      -4.628  11.228  16.850  0.00  0.00    +0.000 A 
ATOM     26  C   UNL     1      -3.500  10.708  16.239  0.00  0.00    +0.000 A 
ATOM     27  N   UNL     1      -2.261  10.785  16.768  0.00  0.00    +0.000 NA
ENDBRANCH  21  22
ENDBRANCH  20  21
ENDBRANCH  16  20
ENDBRANCH   9  13
BRANCH   1  28
ATOM     28  O   UNL     1       6.680   6.650  17.343  0.00  0.00    +0.000 OA
BRANCH  28  29
ATOM     29  C   UNL     1       7.685   6.477  18.354  0.00  0.00    +0.000 C 
BRANCH  29  30
ATOM     30  C   UNL     1       7.175   5.538  19.441  0.00  0.00    +0.000 C 
BRANCH  30  31
ATOM     31  O   UNL     1       8.110   5.448  20.513  0.00  0.00    +0.000 OA
ATOM     32  H   UNL     1       7.952   6.217  21.088  0.00  0.00    +0.000 HD
ENDBRANCH  30  31
ENDBRANCH  29  30
ENDBRANCH  28  29
ENDBRANCH   1  28
TORSDOF 8
ENDMDL
MODEL 6
REMARK VINA RESULT:      -7.7      1.121      1.477
REMARK  Name = 
REMARK  8 active torsions:
REMARK  status: ('A' for Active; 'I' for Inactive)
REMARK    1  A    between atoms: O_1  and  C_2
REMARK    2  A    between atoms: C_2  and  C_3
REMARK    3  A    between atoms: C_3  and  O_4
REMARK    4  A    between atoms: O_4  and  C_5
REMARK    5  A    between atoms: N_13  and  C_14
REMARK    6  A    between atoms: C_17  and  O_18
REMARK    7  A    between atoms: O_18  and  C_19
REMARK    8  A    between atoms: C_19  and  C_20
REMARK                            x       y       z     vdW  Elec       q    Type
REMARK                         _______ _______ _______ _____ _____    ______ ____
ROOT
ATOM      1  C   UNL     1       4.903   3.887  19.465  0.00  0.00    +0.000 A 
ATOM      2  N   UNL     1       5.274   2.612  19.294  0.00  0.00    +0.000 NA
ATOM      3  N   UNL     1       4.116   1.944  19.445  0.00  0.00    +0.000 N 
ATOM      4  C   UNL     1       3.047   2.745  19.714  0.00  0.00    +0.000 A 
ATOM      5  N   UNL     1       1.780   2.340  19.872  0.00  0.00    +0.000 NA
ATOM      6  C   UNL     1       0.970   3.383  20.095  0.00  0.00    +0.000 A 
ATOM      7  N   UNL     1       1.311   4.682  20.171  0.00  0.00    +0.000 NA
ATOM      8  C   UNL     1       2.609   5.065  19.995  0.00  0.00    +0.000 A 
ATOM      9  N   UNL     1       2.975   6.425  19.979  0.00  0.00    +0.000 N 
ATOM     10  C   UNL     1       3.535   4.041  19.760  0.00  0.00    +0.000 A 
ATOM     11  H   UNL     1       4.107   0.937  19.337  0.00  0.00    +0.000 HD
ATOM     12  H   UNL     1       3.964   6.558  19.790  0.00  0.00    +0.000 HD
ENDROOT
BRANCH   9  13
ATOM     13  C   UNL     1       2.163   7.528  19.650  0.00  0.00    +0.000 A 
ATOM     14  C   UNL     1       2.114   8.072  18.364  0.00  0.00    +0.000 A 
ATOM     15  C   UNL     1       1.405   9.238  18.090  0.00  0.00    +0.000 A 
ATOM     16  C   UNL     1       0.723   9.903  19.106  0.00  0.00    +0.000 A 
ATOM     17  C   UNL     1       0.694   9.328  20.383  0.00  0.00    +0.000 A 
ATOM     18 CL   UNL     1      -0.164  10.077  21.685  0.00  0.00    +0.000 Cl
ATOM     19  C   UNL     1       1.403   8.149  20.650  0.00  0.00    +0.000 A 
BRANCH  16  20
ATOM     20  O   UNL     1       0.077  11.096  18.904  0.00  0.00    +0.000 OA
BRANCH  20  21
ATOM     21  C   UNL     1      -1.094  11.004  18.080  0.00  0.00    +0.000 C 
BRANCH  21  22
ATOM     22  C   UNL     1      -2.292  11.657  18.717  0.00  0.00    +0.000 A 
ATOM     23  C   UNL     1      -3.574  11.450  18.213  0.00  0.00    +0.000 A 
ATOM     24  C   UNL     1      -4.657  11.994  18.893  0.00  0.00    +0.000 A 
ATOM     25  C   UNL     1      -4.436  12.713  20.061  0.00  0.00    +0.000 A 
ATOM     26  C   UNL     1      -3.134  12.865  20.503  0.00  0.00    +0.000 A 
ATOM     27  N   UNL     1      -2.062  12.352  19.863  0.00  0.00    +0.000 NA
ENDBRANCH  21  22
ENDBRANCH  20  21
ENDBRANCH  16  20
ENDBRANCH   9  13
BRANCH   1  28
ATOM     28  O   UNL     1       5.827   4.869  19.361  0.00  0.00    +0.000 OA
BRANCH  28  29
ATOM     29  C   UNL     1       6.317   5.021  18.020  0.00  0.00    +0.000 C 
BRANCH  29  30
ATOM     30  C   UNL     1       5.355   5.881  17.207  0.00  0.00    +0.000 C 
BRANCH  30  31
ATOM     31  O   UNL     1       6.064   6.689  16.271  0.00  0.00    +0.000 OA
ATOM     32  H   UNL     1       6.214   7.549  16.700  0.00  0.00    +0.000 HD
ENDBRANCH  30  31
ENDBRANCH  29  30
ENDBRANCH  28  29
ENDBRANCH   1  28
TORSDOF 8
ENDMDL
MODEL 7
REMARK VINA RESULT:      -7.6      1.150      1.169
REMARK  Name = 
REMARK  8 active torsions:
REMARK  status: ('A' for Active; 'I' for Inactive)
REMARK    1  A    between atoms: O_1  and  C_2
REMARK    2  A    between atoms: C_2  and  C_3
REMARK    3  A    between atoms: C_3  and  O_4
REMARK    4  A    between atoms: O_4  and  C_5
REMARK    5  A    between atoms: N_13  and  C_14
REMARK    6  A    between atoms: C_17  and  O_18
REMARK    7  A    between atoms: O_18  and  C_19
REMARK    8  A    between atoms: C_19  and  C_20
REMARK                            x       y       z     vdW  Elec       q    Type
REMARK                         _______ _______ _______ _____ _____    ______ ____
ROOT
ATOM      1  C   UNL     1       3.922   3.347  17.873  0.00  0.00    +0.000 A 
ATOM      2  N   UNL     1       3.992   2.026  17.668  0.00  0.00    +0.000 NA
ATOM      3  N   UNL     1       3.117   1.539  18.566  0.00  0.00    +0.000 N 
ATOM      4  C   UNL     1       2.517   2.496  19.327  0.00  0.00    +0.000 A 
ATOM      5  N   UNL     1       1.585   2.285  20.266  0.00  0.00    +0.000 NA
ATOM      6  C   UNL     1       1.182   3.443  20.806  0.00  0.00    +0.000 A 
ATOM      7  N   UNL     1       1.613   4.680  20.505  0.00  0.00    +0.000 NA
ATOM      8  C   UNL     1       2.557   4.864  19.536  0.00  0.00    +0.000 A 
ATOM      9  N   UNL     1       2.957   6.155  19.139  0.00  0.00    +0.000 N 
ATOM     10  C   UNL     1       3.045   3.708  18.914  0.00  0.00    +0.000 A 
ATOM     11  H   UNL     1       2.952   0.540  18.607  0.00  0.00    +0.000 HD
ATOM     12  H   UNL     1       3.627   6.136  18.377  0.00  0.00    +0.000 HD
ENDROOT
BRANCH   9  13
ATOM     13  C   UNL     1       2.218   7.350  19.239  0.00  0.00    +0.000 A 
ATOM     14  C   UNL     1       2.060   8.231  18.165  0.00  0.00    +0.000 A 
ATOM     15  C   UNL     1       1.436   9.466  18.318  0.00  0.00    +0.000 A 
ATOM     16  C   UNL     1       0.952   9.861  19.563  0.00  0.00    +0.000 A 
ATOM     17  C   UNL     1       1.028   8.957  20.631  0.00  0.00    +0.000 A 
ATOM     18 CL   UNL     1       0.414   9.363  22.196  0.00  0.00    +0.000 Cl
ATOM     19  C   UNL     1       1.650   7.712  20.468  0.00  0.00    +0.000 A 
BRANCH  16  20
ATOM     20  O   UNL     1       0.401  11.097  19.783  0.00  0.00    +0.000 OA
BRANCH  20  21
ATOM     21  C   UNL     1      -0.062  11.759  18.598  0.00  0.00    +0.000 C 
BRANCH  21  22
ATOM     22  C   UNL     1      -1.505  11.444  18.296  0.00  0.00    +0.000 A 
ATOM     23  C   UNL     1      -1.845  10.442  17.391  0.00  0.00    +0.000 A 
ATOM     24  C   UNL     1      -3.187  10.122  17.221  0.00  0.00    +0.000 A 
ATOM     25  C   UNL     1      -4.148  10.795  17.964  0.00  0.00    +0.000 A 
ATOM     26  C   UNL     1      -3.728  11.771  18.852  0.00  0.00    +0.000 A 
ATOM     27  N   UNL     1      -2.434  12.106  19.036  0.00  0.00    +0.000 NA
ENDBRANCH  21  22
ENDBRANCH  20  21
ENDBRANCH  16  20
ENDBRANCH   9  13
BRANCH   1  28
ATOM     28  O   UNL     1       4.671   4.179  17.116  0.00  0.00    +0.000 OA
BRANCH  28  29
ATOM     29  C   UNL     1       5.913   4.527  17.747  0.00  0.00    +0.000 C 
BRANCH  29  30
ATOM     30  C   UNL     1       6.325   5.940  17.346  0.00  0.00    +0.000 C 
BRANCH  30  31
ATOM     31  O   UNL     1       6.875   5.953  16.032  0.00  0.00    +0.000 OA
ATOM     32  H   UNL     1       6.360   5.319  15.505  0.00  0.00    +0.000 HD
ENDBRANCH  30  31
ENDBRANCH  29  30
ENDBRANCH  28  29
ENDBRANCH   1  28
TORSDOF 8
ENDMDL
MODEL 8
REMARK VINA RESULT:      -7.6      1.800      2.801
REMARK  Name = 
REMARK  8 active torsions:
REMARK  status: ('A' for Active; 'I' for Inactive)
REMARK    1  A    between atoms: O_1  and  C_2
REMARK    2  A    between atoms: C_2  and  C_3
REMARK    3  A    between atoms: C_3  and  O_4
REMARK    4  A    between atoms: O_4  and  C_5
REMARK    5  A    between atoms: N_13  and  C_14
REMARK    6  A    between atoms: C_17  and  O_18
REMARK    7  A    between atoms: O_18  and  C_19
REMARK    8  A    between atoms: C_19  and  C_20
REMARK                            x       y       z     vdW  Elec       q    Type
REMARK                         _______ _______ _______ _____ _____    ______ ____
ROOT
ATOM      1  C   UNL     1       4.823   4.257  19.366  0.00  0.00    +0.000 A 
ATOM      2  N   UNL     1       5.242   3.025  19.051  0.00  0.00    +0.000 NA
ATOM      3  N   UNL     1       4.133   2.282  19.221  0.00  0.00    +0.000 N 
ATOM      4  C   UNL     1       3.050   2.995  19.637  0.00  0.00    +0.000 A 
ATOM      5  N   UNL     1       1.820   2.508  19.846  0.00  0.00    +0.000 NA
ATOM      6  C   UNL     1       0.979   3.480  20.222  0.00  0.00    +0.000 A 
ATOM      7  N   UNL     1       1.260   4.783  20.395  0.00  0.00    +0.000 NA
ATOM      8  C   UNL     1       2.521   5.253  20.164  0.00  0.00    +0.000 A 
ATOM      9  N   UNL     1       2.817   6.626  20.250  0.00  0.00    +0.000 N 
ATOM     10  C   UNL     1       3.475   4.307  19.770  0.00  0.00    +0.000 A 
ATOM     11  H   UNL     1       4.166   1.290  19.019  0.00  0.00    +0.000 HD
ATOM     12  H   UNL     1       3.781   6.832  20.005  0.00  0.00    +0.000 HD
ENDROOT
BRANCH   9  13
ATOM     13  C   UNL     1       1.930   7.708  20.084  0.00  0.00    +0.000 A 
ATOM     14  C   UNL     1       1.799   8.399  18.876  0.00  0.00    +0.000 A 
ATOM     15  C   UNL     1       1.013   9.542  18.769  0.00  0.00    +0.000 A 
ATOM     16  C   UNL     1       0.331  10.035  19.879  0.00  0.00    +0.000 A 
ATOM     17  C   UNL     1       0.385   9.310  21.076  0.00  0.00    +0.000 A 
ATOM     18 CL   UNL     1      -0.465   9.840  22.486  0.00  0.00    +0.000 Cl
ATOM     19  C   UNL     1       1.173   8.155  21.175  0.00  0.00    +0.000 A 
BRANCH  16  20
ATOM     20  O   UNL     1      -0.391  11.200  19.845  0.00  0.00    +0.000 OA
BRANCH  20  21
ATOM     21  C   UNL     1      -0.395  11.857  18.570  0.00  0.00    +0.000 C 
BRANCH  21  22
ATOM     22  C   UNL     1       0.331  13.177  18.607  0.00  0.00    +0.000 A 
ATOM     23  C   UNL     1      -0.304  14.332  19.059  0.00  0.00    +0.000 A 
ATOM     24  C   UNL     1       0.435  15.503  19.168  0.00  0.00    +0.000 A 
ATOM     25  C   UNL     1       1.785  15.490  18.839  0.00  0.00    +0.000 A 
ATOM     26  C   UNL     1       2.345  14.300  18.409  0.00  0.00    +0.000 A 
ATOM     27  N   UNL     1       1.652  13.148  18.290  0.00  0.00    +0.000 NA
ENDBRANCH  21  22
ENDBRANCH  20  21
ENDBRANCH  16  20
ENDBRANCH   9  13
BRANCH   1  28
ATOM     28  O   UNL     1       5.688   5.294  19.290  0.00  0.00    +0.000 OA
BRANCH  28  29
ATOM     29  C   UNL     1       6.564   5.196  18.156  0.00  0.00    +0.000 C 
BRANCH  29  30
ATOM     30  C   UNL     1       7.152   6.565  17.831  0.00  0.00    +0.000 C 
BRANCH  30  31
ATOM     31  O   UNL     1       7.606   6.614  16.481  0.00  0.00    +0.000 OA
ATOM     32  H   UNL     1       7.691   7.554  16.247  0.00  0.00    +0.000 HD
ENDBRANCH  30  31
ENDBRANCH  29  30
ENDBRANCH  28  29
ENDBRANCH   1  28
TORSDOF 8
ENDMDL
MODEL 9
REMARK VINA RESULT:      -7.5      2.153      2.825
REMARK  Name = 
REMARK  8 active torsions:
REMARK  status: ('A' for Active; 'I' for Inactive)
REMARK    1  A    between atoms: O_1  and  C_2
REMARK    2  A    between atoms: C_2  and  C_3
REMARK    3  A    between atoms: C_3  and  O_4
REMARK    4  A    between atoms: O_4  and  C_5
REMARK    5  A    between atoms: N_13  and  C_14
REMARK    6  A    between atoms: C_17  and  O_18
REMARK    7  A    between atoms: O_18  and  C_19
REMARK    8  A    between atoms: C_19  and  C_20
REMARK                            x       y       z     vdW  Elec       q    Type
REMARK                         _______ _______ _______ _____ _____    ______ ____
ROOT
ATOM      1  C   UNL     1       4.826   3.721  19.474  0.00  0.00    +0.000 A 
ATOM      2  N   UNL     1       5.159   2.437  19.290  0.00  0.00    +0.000 NA
ATOM      3  N   UNL     1       3.973   1.808  19.375  0.00  0.00    +0.000 N 
ATOM      4  C   UNL     1       2.922   2.641  19.613  0.00  0.00    +0.000 A 
ATOM      5  N   UNL     1       1.636   2.279  19.706  0.00  0.00    +0.000 NA
ATOM      6  C   UNL     1       0.854   3.345  19.916  0.00  0.00    +0.000 A 
ATOM      7  N   UNL     1       1.236   4.629  20.037  0.00  0.00    +0.000 NA
ATOM      8  C   UNL     1       2.554   4.969  19.928  0.00  0.00    +0.000 A 
ATOM      9  N   UNL     1       2.967   6.314  19.959  0.00  0.00    +0.000 N 
ATOM     10  C   UNL     1       3.452   3.917  19.711  0.00  0.00    +0.000 A 
ATOM     11  H   UNL     1       3.934   0.804  19.243  0.00  0.00    +0.000 HD
ATOM     12  H   UNL     1       3.968   6.416  19.817  0.00  0.00    +0.000 HD
ENDROOT
BRANCH   9  13
ATOM     13  C   UNL     1       2.211   7.453  19.620  0.00  0.00    +0.000 A 
ATOM     14  C   UNL     1       2.185   7.985  18.328  0.00  0.00    +0.000 A 
ATOM     15  C   UNL     1       1.534   9.182  18.042  0.00  0.00    +0.000 A 
ATOM     16  C   UNL     1       0.888   9.890  19.052  0.00  0.00    +0.000 A 
ATOM     17  C   UNL     1       0.833   9.331  20.335  0.00  0.00    +0.000 A 
ATOM     18 CL   UNL     1       0.017  10.135  21.631  0.00  0.00    +0.000 Cl
ATOM     19  C   UNL     1       1.484   8.122  20.614  0.00  0.00    +0.000 A 
BRANCH  16  20
ATOM     20  O   UNL     1       0.301  11.111  18.839  0.00  0.00    +0.000 OA
BRANCH  20  21
ATOM     21  C   UNL     1       1.226  12.204  18.746  0.00  0.00    +0.000 C 
BRANCH  21  22
ATOM     22  C   UNL     1       0.808  13.378  19.594  0.00  0.00    +0.000 A 
ATOM     23  C   UNL     1       1.149  13.444  20.943  0.00  0.00    +0.000 A 
ATOM     24  C   UNL     1       0.828  14.591  21.659  0.00  0.00    +0.000 A 
ATOM     25  C   UNL     1       0.191  15.642  21.011  0.00  0.00    +0.000 A 
ATOM     26  C   UNL     1      -0.104  15.504  19.666  0.00  0.00    +0.000 A 
ATOM     27  N   UNL     1       0.192  14.402  18.946  0.00  0.00    +0.000 NA
ENDBRANCH  21  22
ENDBRANCH  20  21
ENDBRANCH  16  20
ENDBRANCH   9  13
BRANCH   1  28
ATOM     28  O   UNL     1       5.788   4.670  19.434  0.00  0.00    +0.000 OA
BRANCH  28  29
ATOM     29  C   UNL     1       6.136   5.042  18.091  0.00  0.00    +0.000 C 
BRANCH  29  30
ATOM     30  C   UNL     1       7.631   4.844  17.865  0.00  0.00    +0.000 C 
BRANCH  30  31
ATOM     31  O   UNL     1       7.888   4.395  16.538  0.00  0.00    +0.000 OA
ATOM     32  H   UNL     1       7.023   4.271  16.111  0.00  0.00    +0.000 HD
ENDBRANCH  30  31
ENDBRANCH  29  30
ENDBRANCH  28  29
ENDBRANCH   1  28
TORSDOF 8
ENDMDL
