MODEL 1
REMARK VINA RESULT:      -7.7      0.000      0.000
REMARK  Name = 
REMARK  5 active torsions:
REMARK  status: ('A' for Active; 'I' for Inactive)
REMARK    1  A    between atoms: C_1  and  C_2
REMARK    2  A    between atoms: C_2  and  N_3
REMARK    3  A    between atoms: C_4  and  C_6
REMARK    4  A    between atoms: C_9  and  N_10
REMARK    5  A    between atoms: N_16  and  C_17
REMARK                            x       y       z     vdW  Elec       q    Type
REMARK                         _______ _______ _______ _____ _____    ______ ____
ROOT
ATOM      1  N   UNL     1       1.705   8.458  19.547  0.00  0.00    +0.000 N 
ATOM      2  C   UNL     1       1.352   9.656  18.778  0.00  0.00    +0.000 C 
ATOM      3  C   UNL     1      -0.084  10.049  19.182  0.00  0.00    +0.000 C 
ATOM      4  N   UNL     1      -0.223  10.198  20.647  0.00  0.00    +0.000 N 
ATOM      5  C   UNL     1      -0.976  11.260  21.106  0.00  0.00    +0.000 C 
ATOM      6  O   UNL     1      -1.508  12.031  20.302  0.00  0.00    +0.000 OA
ATOM      7  N   UNL     1      -1.049  11.407  22.473  0.00  0.00    +0.000 N 
ATOM      8  C   UNL     1       0.259   9.038  21.421  0.00  0.00    +0.000 C 
ATOM      9  C   UNL     1       1.696   8.664  20.999  0.00  0.00    +0.000 C 
ATOM     10  H   UNL     1      -0.327  10.969  23.015  0.00  0.00    +0.000 HD
ENDROOT
BRANCH   1  14
ATOM     11  C   UNL     1       3.833   5.424  17.654  0.00  0.00    +0.000 A 
ATOM     12  C   UNL     1       3.869   6.752  17.257  0.00  0.00    +0.000 A 
ATOM     13  N   UNL     1       3.174   7.746  17.873  0.00  0.00    +0.000 NA
ATOM     14  C   UNL     1       2.421   7.443  18.959  0.00  0.00    +0.000 A 
ATOM     15  C   UNL     1       2.339   6.106  19.405  0.00  0.00    +0.000 A 
ATOM     16 CL   UNL     1       1.280   5.583  20.676  0.00  0.00    +0.000 Cl
ATOM     17  C   UNL     1       3.055   5.100  18.759  0.00  0.00    +0.000 A 
BRANCH  11  19
ATOM     18  N   UNL     1       5.610   4.896  16.082  0.00  0.00    +0.000 N 
ATOM     19  C   UNL     1       4.635   4.414  16.932  0.00  0.00    +0.000 C 
ATOM     20  O   UNL     1       4.412   3.224  17.113  0.00  0.00    +0.000 OA
ATOM     21  H   UNL     1       5.874   5.872  16.112  0.00  0.00    +0.000 HD
BRANCH  18  23
ATOM     22  C   UNL     1       6.002   3.965  13.839  0.00  0.00    +0.000 C 
ATOM     23  C   UNL     1       6.438   4.007  15.291  0.00  0.00    +0.000 C 
ENDBRANCH  18  23
ENDBRANCH  11  19
ENDBRANCH   1  14
BRANCH   7  24
ATOM     24  C   UNL     1      -1.810  12.397  23.144  0.00  0.00    +0.000 A 
ATOM     25  C   UNL     1      -1.301  13.660  23.456  0.00  0.00    +0.000 A 
ATOM     26  C   UNL     1      -2.063  14.589  24.164  0.00  0.00    +0.000 A 
ATOM     27  C   UNL     1      -3.359  14.271  24.550  0.00  0.00    +0.000 A 
ATOM     28  C   UNL     1      -3.894  13.028  24.218  0.00  0.00    +0.000 A 
ATOM     29  C   UNL     1      -3.126  12.095  23.510  0.00  0.00    +0.000 A 
ENDBRANCH   7  24
TORSDOF 4
ENDMDL
MODEL 2
REMARK VINA RESULT:      -7.2      2.694     10.502
REMARK  Name = 
REMARK  5 active torsions:
REMARK  status: ('A' for Active; 'I' for Inactive)
REMARK    1  A    between atoms: C_1  and  C_2
REMARK    2  A    between atoms: C_2  and  N_3
REMARK    3  A    between atoms: C_4  and  C_6
REMARK    4  A    between atoms: C_9  and  N_10
REMARK    5  A    between atoms: N_16  and  C_17
REMARK                            x       y       z     vdW  Elec       q    Type
REMARK                         _______ _______ _______ _____ _____    ______ ____
ROOT
ATOM      1  N   UNL     1       0.552  10.061  19.490  0.00  0.00    +0.000 N 
ATOM      2  C   UNL     1       1.113   9.249  20.576  0.00  0.00    +0.000 C 
ATOM      3  C   UNL     1       1.396   7.848  19.996  0.00  0.00    +0.000 C 
ATOM      4  N   UNL     1       2.239   7.914  18.782  0.00  0.00    +0.000 N 
ATOM      5  C   UNL     1       3.235   6.967  18.651  0.00  0.00    +0.000 C 
ATOM      6  O   UNL     1       3.386   6.107  19.523  0.00  0.00    +0.000 OA
ATOM      7  N   UNL     1       4.038   7.079  17.538  0.00  0.00    +0.000 N 
ATOM      8  C   UNL     1       1.735   8.836  17.746  0.00  0.00    +0.000 C 
ATOM      9  C   UNL     1       1.460  10.230  18.350  0.00  0.00    +0.000 C 
ATOM     10  H   UNL     1       4.069   7.978  17.091  0.00  0.00    +0.000 HD
ENDROOT
BRANCH   1  14
ATOM     11  C   UNL     1      -2.566  12.673  20.366  0.00  0.00    +0.000 A 
ATOM     12  C   UNL     1      -1.438  12.527  21.160  0.00  0.00    +0.000 A 
ATOM     13  N   UNL     1      -0.418  11.674  20.877  0.00  0.00    +0.000 NA
ATOM     14  C   UNL     1      -0.476  10.937  19.740  0.00  0.00    +0.000 A 
ATOM     15  C   UNL     1      -1.603  11.038  18.896  0.00  0.00    +0.000 A 
ATOM     16 CL   UNL     1      -1.856  10.025  17.510  0.00  0.00    +0.000 Cl
ATOM     17  C   UNL     1      -2.642  11.916  19.205  0.00  0.00    +0.000 A 
BRANCH  11  19
ATOM     18  N   UNL     1      -4.724  13.699  19.924  0.00  0.00    +0.000 N 
ATOM     19  C   UNL     1      -3.618  13.639  20.747  0.00  0.00    +0.000 C 
ATOM     20  O   UNL     1      -3.473  14.325  21.751  0.00  0.00    +0.000 OA
ATOM     21  H   UNL     1      -4.876  12.986  19.223  0.00  0.00    +0.000 HD
BRANCH  18  23
ATOM     22  C   UNL     1      -6.914  14.008  20.999  0.00  0.00    +0.000 C 
ATOM     23  C   UNL     1      -5.807  14.631  20.172  0.00  0.00    +0.000 C 
ENDBRANCH  18  23
ENDBRANCH  11  19
ENDBRANCH   1  14
BRANCH   7  24
ATOM     24  C   UNL     1       5.079   6.182  17.193  0.00  0.00    +0.000 A 
ATOM     25  C   UNL     1       4.877   5.068  16.374  0.00  0.00    +0.000 A 
ATOM     26  C   UNL     1       5.915   4.178  16.100  0.00  0.00    +0.000 A 
ATOM     27  C   UNL     1       7.181   4.406  16.627  0.00  0.00    +0.000 A 
ATOM     28  C   UNL     1       7.407   5.531  17.419  0.00  0.00    +0.000 A 
ATOM     29  C   UNL     1       6.361   6.421  17.696  0.00  0.00    +0.000 A 
ENDBRANCH   7  24
TORSDOF 4
ENDMDL
MODEL 3
REMARK VINA RESULT:      -7.2      2.805     10.437
REMARK  Name = 
REMARK  5 active torsions:
REMARK  status: ('A' for Active; 'I' for Inactive)
REMARK    1  A    between atoms: C_1  and  C_2
REMARK    2  A    between atoms: C_2  and  N_3
REMARK    3  A    between atoms: C_4  and  C_6
REMARK    4  A    between atoms: C_9  and  N_10
REMARK    5  A    between atoms: N_16  and  C_17
REMARK                            x       y       z     vdW  Elec       q    Type
REMARK                         _______ _______ _______ _____ _____    ______ ____
ROOT
ATOM      1  N   UNL     1       0.548   9.999  19.549  0.00  0.00    +0.000 N 
ATOM      2  C   UNL     1       1.097   9.183  20.638  0.00  0.00    +0.000 C 
ATOM      3  C   UNL     1       1.387   7.785  20.056  0.00  0.00    +0.000 C 
ATOM      4  N   UNL     1       2.243   7.855  18.852  0.00  0.00    +0.000 N 
ATOM      5  C   UNL     1       3.242   6.909  18.729  0.00  0.00    +0.000 C 
ATOM      6  O   UNL     1       3.383   6.046  19.600  0.00  0.00    +0.000 OA
ATOM      7  N   UNL     1       4.056   7.025  17.625  0.00  0.00    +0.000 N 
ATOM      8  C   UNL     1       1.751   8.781  17.814  0.00  0.00    +0.000 C 
ATOM      9  C   UNL     1       1.468  10.173  18.420  0.00  0.00    +0.000 C 
ATOM     10  H   UNL     1       4.092   7.926  17.182  0.00  0.00    +0.000 HD
ENDROOT
BRANCH   1  14
ATOM     11  C   UNL     1      -2.582  12.606  20.399  0.00  0.00    +0.000 A 
ATOM     12  C   UNL     1      -1.475  12.439  21.218  0.00  0.00    +0.000 A 
ATOM     13  N   UNL     1      -0.451  11.587  20.944  0.00  0.00    +0.000 NA
ATOM     14  C   UNL     1      -0.483  10.875  19.791  0.00  0.00    +0.000 A 
ATOM     15  C   UNL     1      -1.587  10.996  18.921  0.00  0.00    +0.000 A 
ATOM     16 CL   UNL     1      -1.809  10.013  17.509  0.00  0.00    +0.000 Cl
ATOM     17  C   UNL     1      -2.631  11.872  19.221  0.00  0.00    +0.000 A 
BRANCH  11  19
ATOM     18  N   UNL     1      -4.687  13.705  19.884  0.00  0.00    +0.000 N 
ATOM     19  C   UNL     1      -3.640  13.567  20.773  0.00  0.00    +0.000 C 
ATOM     20  O   UNL     1      -3.550  14.184  21.827  0.00  0.00    +0.000 OA
ATOM     21  H   UNL     1      -4.804  13.042  19.129  0.00  0.00    +0.000 HD
BRANCH  18  23
ATOM     22  C   UNL     1      -6.607  14.868  18.879  0.00  0.00    +0.000 C 
ATOM     23  C   UNL     1      -5.768  14.642  20.121  0.00  0.00    +0.000 C 
ENDBRANCH  18  23
ENDBRANCH  11  19
ENDBRANCH   1  14
BRANCH   7  24
ATOM     24  C   UNL     1       5.101   6.129  17.289  0.00  0.00    +0.000 A 
ATOM     25  C   UNL     1       6.405   6.274  17.769  0.00  0.00    +0.000 A 
ATOM     26  C   UNL     1       7.419   5.402  17.374  0.00  0.00    +0.000 A 
ATOM     27  C   UNL     1       7.133   4.355  16.506  0.00  0.00    +0.000 A 
ATOM     28  C   UNL     1       5.830   4.177  16.044  0.00  0.00    +0.000 A 
ATOM     29  C   UNL     1       4.814   5.056  16.440  0.00  0.00    +0.000 A 
ENDBRANCH   7  24
TORSDOF 4
ENDMDL
MODEL 4
REMARK VINA RESULT:      -7.2      1.110      1.456
REMARK  Name = 
REMARK  5 active torsions:
REMARK  status: ('A' for Active; 'I' for Inactive)
REMARK    1  A    between atoms: C_1  and  C_2
REMARK    2  A    between atoms: C_2  and  N_3
REMARK    3  A    between atoms: C_4  and  C_6
REMARK    4  A    between atoms: C_9  and  N_10
REMARK    5  A    between atoms: N_16  and  C_17
REMARK                            x       y       z     vdW  Elec       q    Type
REMARK                         _______ _______ _______ _____ _____    ______ ____
ROOT
ATOM      1  N   UNL     1       1.761   8.026  19.742  0.00  0.00    +0.000 N 
ATOM      2  C   UNL     1       1.267   7.575  21.047  0.00  0.00    +0.000 C 
ATOM      3  C   UNL     1       1.329   8.787  22.000  0.00  0.00    +0.000 C 
ATOM      4  N   UNL     1       0.617   9.960  21.447  0.00  0.00    +0.000 N 
ATOM      5  C   UNL     1      -0.152  10.703  22.320  0.00  0.00    +0.000 C 
ATOM      6  O   UNL     1      -0.215  10.383  23.510  0.00  0.00    +0.000 OA
ATOM      7  N   UNL     1      -0.844  11.760  21.772  0.00  0.00    +0.000 N 
ATOM      8  C   UNL     1       1.029  10.327  20.077  0.00  0.00    +0.000 C 
ATOM      9  C   UNL     1       0.958   9.099  19.144  0.00  0.00    +0.000 C 
ATOM     10  H   UNL     1      -1.008  11.729  20.782  0.00  0.00    +0.000 HD
ENDROOT
BRANCH   1  14
ATOM     11  C   UNL     1       4.151   5.606  17.344  0.00  0.00    +0.000 A 
ATOM     12  C   UNL     1       4.104   6.988  17.238  0.00  0.00    +0.000 A 
ATOM     13  N   UNL     1       3.323   7.782  18.019  0.00  0.00    +0.000 NA
ATOM     14  C   UNL     1       2.564   7.207  18.984  0.00  0.00    +0.000 A 
ATOM     15  C   UNL     1       2.564   5.804  19.134  0.00  0.00    +0.000 A 
ATOM     16 CL   UNL     1       1.509   4.956  20.220  0.00  0.00    +0.000 Cl
ATOM     17  C   UNL     1       3.367   5.005  18.321  0.00  0.00    +0.000 A 
BRANCH  11  19
ATOM     18  N   UNL     1       5.616   5.511  15.407  0.00  0.00    +0.000 N 
ATOM     19  C   UNL     1       5.042   4.827  16.459  0.00  0.00    +0.000 C 
ATOM     20  O   UNL     1       5.233   3.639  16.690  0.00  0.00    +0.000 OA
ATOM     21  H   UNL     1       5.573   6.521  15.373  0.00  0.00    +0.000 HD
BRANCH  18  23
ATOM     22  C   UNL     1       5.698   3.974  13.488  0.00  0.00    +0.000 C 
ATOM     23  C   UNL     1       6.480   4.848  14.450  0.00  0.00    +0.000 C 
ENDBRANCH  18  23
ENDBRANCH  11  19
ENDBRANCH   1  14
BRANCH   7  24
ATOM     24  C   UNL     1      -1.645  12.672  22.503  0.00  0.00    +0.000 A 
ATOM     25  C   UNL     1      -1.120  13.806  23.130  0.00  0.00    +0.000 A 
ATOM     26  C   UNL     1      -1.932  14.652  23.884  0.00  0.00    +0.000 A 
ATOM     27  C   UNL     1      -3.291  14.386  24.001  0.00  0.00    +0.000 A 
ATOM     28  C   UNL     1      -3.836  13.278  23.355  0.00  0.00    +0.000 A 
ATOM     29  C   UNL     1      -3.018  12.427  22.601  0.00  0.00    +0.000 A 
ENDBRANCH   7  24
TORSDOF 4
ENDMDL
MODEL 5
REMARK VINA RESULT:      -7.1      2.540     10.479
REMARK  Name = 
REMARK  5 active torsions:
REMARK  status: ('A' for Active; 'I' for Inactive)
REMARK    1  A    between atoms: C_1  and  C_2
REMARK    2  A    between atoms: C_2  and  N_3
REMARK    3  A    between atoms: C_4  and  C_6
REMARK    4  A    between atoms: C_9  and  N_10
REMARK    5  A    between atoms: N_16  and  C_17
REMARK                            x       y       z     vdW  Elec       q    Type
REMARK                         _______ _______ _______ _____ _____    ______ ____
ROOT
ATOM      1  N   UNL     1       0.576   9.966  19.566  0.00  0.00    +0.000 N 
ATOM      2  C   UNL     1       1.107   9.125  20.644  0.00  0.00    +0.000 C 
ATOM      3  C   UNL     1       1.403   7.739  20.036  0.00  0.00    +0.000 C 
ATOM      4  N   UNL     1       2.277   7.833  18.846  0.00  0.00    +0.000 N 
ATOM      5  C   UNL     1       3.275   6.888  18.717  0.00  0.00    +0.000 C 
ATOM      6  O   UNL     1       3.401   6.006  19.570  0.00  0.00    +0.000 OA
ATOM      7  N   UNL     1       4.106   7.027  17.628  0.00  0.00    +0.000 N 
ATOM      8  C   UNL     1       1.802   8.784  17.821  0.00  0.00    +0.000 C 
ATOM      9  C   UNL     1       1.513  10.162  18.454  0.00  0.00    +0.000 C 
ATOM     10  H   UNL     1       4.150   7.937  17.205  0.00  0.00    +0.000 HD
ENDROOT
BRANCH   1  14
ATOM     11  C   UNL     1      -2.560  12.561  20.428  0.00  0.00    +0.000 A 
ATOM     12  C   UNL     1      -1.461  12.381  21.254  0.00  0.00    +0.000 A 
ATOM     13  N   UNL     1      -0.434  11.533  20.976  0.00  0.00    +0.000 NA
ATOM     14  C   UNL     1      -0.457  10.838  19.812  0.00  0.00    +0.000 A 
ATOM     15  C   UNL     1      -1.554  10.974  18.934  0.00  0.00    +0.000 A 
ATOM     16 CL   UNL     1      -1.763  10.012  17.505  0.00  0.00    +0.000 Cl
ATOM     17  C   UNL     1      -2.599  11.845  19.238  0.00  0.00    +0.000 A 
BRANCH  11  19
ATOM     18  N   UNL     1      -3.396  14.843  20.490  0.00  0.00    +0.000 N 
ATOM     19  C   UNL     1      -3.621  13.518  20.806  0.00  0.00    +0.000 C 
ATOM     20  O   UNL     1      -4.630  13.109  21.367  0.00  0.00    +0.000 OA
ATOM     21  H   UNL     1      -2.641  15.096  19.867  0.00  0.00    +0.000 HD
BRANCH  18  23
ATOM     22  C   UNL     1      -4.125  16.401  22.248  0.00  0.00    +0.000 C 
ATOM     23  C   UNL     1      -4.346  15.880  20.841  0.00  0.00    +0.000 C 
ENDBRANCH  18  23
ENDBRANCH  11  19
ENDBRANCH   1  14
BRANCH   7  24
ATOM     24  C   UNL     1       5.154   6.136  17.287  0.00  0.00    +0.000 A 
ATOM     25  C   UNL     1       6.433   6.224  17.843  0.00  0.00    +0.000 A 
ATOM     26  C   UNL     1       7.453   5.362  17.444  0.00  0.00    +0.000 A 
ATOM     27  C   UNL     1       7.198   4.380  16.494  0.00  0.00    +0.000 A 
ATOM     28  C   UNL     1       5.919   4.257  15.954  0.00  0.00    +0.000 A 
ATOM     29  C   UNL     1       4.896   5.127  16.354  0.00  0.00    +0.000 A 
ENDBRANCH   7  24
TORSDOF 4
ENDMDL
MODEL 6
REMARK VINA RESULT:      -7.1      2.118     10.546
REMARK  Name = 
REMARK  5 active torsions:
REMARK  status: ('A' for Active; 'I' for Inactive)
REMARK    1  A    between atoms: C_1  and  C_2
REMARK    2  A    between atoms: C_2  and  N_3
REMARK    3  A    between atoms: C_4  and  C_6
REMARK    4  A    between atoms: C_9  and  N_10
REMARK    5  A    between atoms: N_16  and  C_17
REMARK                            x       y       z     vdW  Elec       q    Type
REMARK                         _______ _______ _______ _____ _____    ______ ____
ROOT
ATOM      1  N   UNL     1       0.709   9.821  20.475  0.00  0.00    +0.000 N 
ATOM      2  C   UNL     1       1.344   8.848  21.370  0.00  0.00    +0.000 C 
ATOM      3  C   UNL     1       1.506   7.537  20.574  0.00  0.00    +0.000 C 
ATOM      4  N   UNL     1       2.220   7.752  19.297  0.00  0.00    +0.000 N 
ATOM      5  C   UNL     1       3.156   6.806  18.928  0.00  0.00    +0.000 C 
ATOM      6  O   UNL     1       3.360   5.827  19.651  0.00  0.00    +0.000 OA
ATOM      7  N   UNL     1       3.843   7.054  17.761  0.00  0.00    +0.000 N 
ATOM      8  C   UNL     1       1.652   8.826  18.460  0.00  0.00    +0.000 C 
ATOM      9  C   UNL     1       1.500  10.127  19.278  0.00  0.00    +0.000 C 
ATOM     10  H   UNL     1       3.866   8.006  17.442  0.00  0.00    +0.000 HD
ENDROOT
BRANCH   1  14
ATOM     11  C   UNL     1      -2.215  12.345  22.022  0.00  0.00    +0.000 A 
ATOM     12  C   UNL     1      -1.211  11.772  22.787  0.00  0.00    +0.000 A 
ATOM     13  N   UNL     1      -0.254  10.946  22.285  0.00  0.00    +0.000 NA
ATOM     14  C   UNL     1      -0.250  10.682  20.955  0.00  0.00    +0.000 A 
ATOM     15  C   UNL     1      -1.252  11.230  20.127  0.00  0.00    +0.000 A 
ATOM     16 CL   UNL     1      -1.437  10.827  18.450  0.00  0.00    +0.000 Cl
ATOM     17  C   UNL     1      -2.227  12.072  20.660  0.00  0.00    +0.000 A 
BRANCH  11  19
ATOM     18  N   UNL     1      -4.315  12.641  23.210  0.00  0.00    +0.000 N 
ATOM     19  C   UNL     1      -3.204  13.243  22.653  0.00  0.00    +0.000 C 
ATOM     20  O   UNL     1      -3.004  14.452  22.661  0.00  0.00    +0.000 OA
ATOM     21  H   UNL     1      -4.338  11.639  23.340  0.00  0.00    +0.000 HD
BRANCH  18  23
ATOM     22  C   UNL     1      -6.668  12.637  23.925  0.00  0.00    +0.000 C 
ATOM     23  C   UNL     1      -5.372  13.418  23.827  0.00  0.00    +0.000 C 
ENDBRANCH  18  23
ENDBRANCH  11  19
ENDBRANCH   1  14
BRANCH   7  24
ATOM     24  C   UNL     1       4.804   6.186  17.184  0.00  0.00    +0.000 A 
ATOM     25  C   UNL     1       6.162   6.505  17.108  0.00  0.00    +0.000 A 
ATOM     26  C   UNL     1       7.069   5.648  16.485  0.00  0.00    +0.000 A 
ATOM     27  C   UNL     1       6.629   4.444  15.949  0.00  0.00    +0.000 A 
ATOM     28  C   UNL     1       5.282   4.096  16.046  0.00  0.00    +0.000 A 
ATOM     29  C   UNL     1       4.372   4.960  16.669  0.00  0.00    +0.000 A 
ENDBRANCH   7  24
TORSDOF 4
ENDMDL
MODEL 7
REMARK VINA RESULT:      -7.0      2.755     10.710
REMARK  Name = 
REMARK  5 active torsions:
REMARK  status: ('A' for Active; 'I' for Inactive)
REMARK    1  A    between atoms: C_1  and  C_2
REMARK    2  A    between atoms: C_2  and  N_3
REMARK    3  A    between atoms: C_4  and  C_6
REMARK    4  A    between atoms: C_9  and  N_10
REMARK    5  A    between atoms: N_16  and  C_17
REMARK                            x       y       z     vdW  Elec       q    Type
REMARK                         _______ _______ _______ _____ _____    ______ ____
ROOT
ATOM      1  N   UNL     1      -0.231  10.684  21.321  0.00  0.00    +0.000 N 
ATOM      2  C   UNL     1      -0.362  10.687  19.860  0.00  0.00    +0.000 C 
ATOM      3  C   UNL     1       0.983  10.199  19.283  0.00  0.00    +0.000 C 
ATOM      4  N   UNL     1       1.390   8.899  19.858  0.00  0.00    +0.000 N 
ATOM      5  C   UNL     1       1.934   7.967  18.996  0.00  0.00    +0.000 C 
ATOM      6  O   UNL     1       2.072   8.242  17.801  0.00  0.00    +0.000 OA
ATOM      7  N   UNL     1       2.260   6.748  19.545  0.00  0.00    +0.000 N 
ATOM      8  C   UNL     1       1.391   8.864  21.334  0.00  0.00    +0.000 C 
ATOM      9  C   UNL     1       0.037   9.357  21.887  0.00  0.00    +0.000 C 
ATOM     10  H   UNL     1       1.803   6.502  20.405  0.00  0.00    +0.000 HD
ENDROOT
BRANCH   1  14
ATOM     11  C   UNL     1      -2.004  13.727  23.537  0.00  0.00    +0.000 A 
ATOM     12  C   UNL     1      -2.500  12.433  23.471  0.00  0.00    +0.000 A 
ATOM     13  N   UNL     1      -1.924  11.437  22.747  0.00  0.00    +0.000 NA
ATOM     14  C   UNL     1      -0.779  11.698  22.069  0.00  0.00    +0.000 A 
ATOM     15  C   UNL     1      -0.231  12.998  22.092  0.00  0.00    +0.000 A 
ATOM     16 CL   UNL     1       1.130  13.482  21.131  0.00  0.00    +0.000 Cl
ATOM     17  C   UNL     1      -0.839  14.009  22.836  0.00  0.00    +0.000 A 
BRANCH  11  19
ATOM     18  N   UNL     1      -3.898  15.210  23.884  0.00  0.00    +0.000 N 
ATOM     19  C   UNL     1      -2.692  14.741  24.363  0.00  0.00    +0.000 C 
ATOM     20  O   UNL     1      -2.180  15.113  25.412  0.00  0.00    +0.000 OA
ATOM     21  H   UNL     1      -4.359  14.737  23.118  0.00  0.00    +0.000 HD
BRANCH  18  23
ATOM     22  C   UNL     1      -5.963  16.546  23.895  0.00  0.00    +0.000 C 
ATOM     23  C   UNL     1      -4.650  16.232  24.586  0.00  0.00    +0.000 C 
ENDBRANCH  18  23
ENDBRANCH  11  19
ENDBRANCH   1  14
BRANCH   7  24
ATOM     24  C   UNL     1       2.874   5.680  18.845  0.00  0.00    +0.000 A 
ATOM     25  C   UNL     1       4.258   5.484  18.827  0.00  0.00    +0.000 A 
ATOM     26  C   UNL     1       4.829   4.452  18.083  0.00  0.00    +0.000 A 
ATOM     27  C   UNL     1       4.017   3.584  17.364  0.00  0.00    +0.000 A 
ATOM     28  C   UNL     1       2.633   3.745  17.398  0.00  0.00    +0.000 A 
ATOM     29  C   UNL     1       2.061   4.785  18.143  0.00  0.00    +0.000 A 
ENDBRANCH   7  24
TORSDOF 4
ENDMDL
MODEL 8
REMARK VINA RESULT:      -6.9      2.382     10.586
REMARK  Name = 
REMARK  5 active torsions:
REMARK  status: ('A' for Active; 'I' for Inactive)
REMARK    1  A    between atoms: C_1  and  C_2
REMARK    2  A    between atoms: C_2  and  N_3
REMARK    3  A    between atoms: C_4  and  C_6
REMARK    4  A    between atoms: C_9  and  N_10
REMARK    5  A    between atoms: N_16  and  C_17
REMARK                            x       y       z     vdW  Elec       q    Type
REMARK                         _______ _______ _______ _____ _____    ______ ____
ROOT
ATOM      1  N   UNL     1       0.544  10.306  19.654  0.00  0.00    +0.000 N 
ATOM      2  C   UNL     1       1.104   9.452  20.707  0.00  0.00    +0.000 C 
ATOM      3  C   UNL     1       1.322   8.055  20.090  0.00  0.00    +0.000 C 
ATOM      4  N   UNL     1       2.134   8.118  18.856  0.00  0.00    +0.000 N 
ATOM      5  C   UNL     1       3.093   7.141  18.678  0.00  0.00    +0.000 C 
ATOM      6  O   UNL     1       3.236   6.258  19.528  0.00  0.00    +0.000 OA
ATOM      7  N   UNL     1       3.870   7.249  17.546  0.00  0.00    +0.000 N 
ATOM      8  C   UNL     1       1.637   9.080  17.853  0.00  0.00    +0.000 C 
ATOM      9  C   UNL     1       1.426  10.469  18.494  0.00  0.00    +0.000 C 
ATOM     10  H   UNL     1       3.921   8.156  17.117  0.00  0.00    +0.000 HD
ENDROOT
BRANCH   1  14
ATOM     11  C   UNL     1      -2.446  13.016  20.671  0.00  0.00    +0.000 A 
ATOM     12  C   UNL     1      -1.246  12.902  21.356  0.00  0.00    +0.000 A 
ATOM     13  N   UNL     1      -0.266  12.017  21.026  0.00  0.00    +0.000 NA
ATOM     14  C   UNL     1      -0.446  11.212  19.950  0.00  0.00    +0.000 A 
ATOM     15  C   UNL     1      -1.652  11.277  19.219  0.00  0.00    +0.000 A 
ATOM     16 CL   UNL     1      -2.053  10.184  17.933  0.00  0.00    +0.000 Cl
ATOM     17  C   UNL     1      -2.646  12.188  19.574  0.00  0.00    +0.000 A 
BRANCH  11  19
ATOM     18  N   UNL     1      -3.088  14.838  22.145  0.00  0.00    +0.000 N 
ATOM     19  C   UNL     1      -3.446  14.018  21.094  0.00  0.00    +0.000 C 
ATOM     20  O   UNL     1      -4.520  14.083  20.509  0.00  0.00    +0.000 OA
ATOM     21  H   UNL     1      -2.129  14.867  22.464  0.00  0.00    +0.000 HD
BRANCH  18  23
ATOM     22  C   UNL     1      -4.792  15.314  23.855  0.00  0.00    +0.000 C 
ATOM     23  C   UNL     1      -3.997  15.837  22.674  0.00  0.00    +0.000 C 
ENDBRANCH  18  23
ENDBRANCH  11  19
ENDBRANCH   1  14
BRANCH   7  24
ATOM     24  C   UNL     1       4.869   6.324  17.155  0.00  0.00    +0.000 A 
ATOM     25  C   UNL     1       4.571   5.049  16.667  0.00  0.00    +0.000 A 
ATOM     26  C   UNL     1       5.583   4.148  16.341  0.00  0.00    +0.000 A 
ATOM     27  C   UNL     1       6.915   4.521  16.480  0.00  0.00    +0.000 A 
ATOM     28  C   UNL     1       7.230   5.801  16.934  0.00  0.00    +0.000 A 
ATOM     29  C   UNL     1       6.211   6.704  17.264  0.00  0.00    +0.000 A 
ENDBRANCH   7  24
TORSDOF 4
ENDMDL
MODEL 9
REMARK VINA RESULT:      -6.9      2.110     10.589
REMARK  Name = 
REMARK  5 active torsions:
REMARK  status: ('A' for Active; 'I' for Inactive)
REMARK    1  A    between atoms: C_1  and  C_2
REMARK    2  A    between atoms: C_2  and  N_3
REMARK    3  A    between atoms: C_4  and  C_6
REMARK    4  A    between atoms: C_9  and  N_10
REMARK    5  A    between atoms: N_16  and  C_17
REMARK                            x       y       z     vdW  Elec       q    Type
REMARK                         _______ _______ _______ _____ _____    ______ ____
ROOT
ATOM      1  N   UNL     1       0.732   9.605  20.659  0.00  0.00    +0.000 N 
ATOM      2  C   UNL     1       1.367   8.580  21.494  0.00  0.00    +0.000 C 
ATOM      3  C   UNL     1       1.513   7.313  20.626  0.00  0.00    +0.000 C 
ATOM      4  N   UNL     1       2.217   7.592  19.356  0.00  0.00    +0.000 N 
ATOM      5  C   UNL     1       3.143   6.662  18.928  0.00  0.00    +0.000 C 
ATOM      6  O   UNL     1       3.346   5.644  19.594  0.00  0.00    +0.000 OA
ATOM      7  N   UNL     1       3.821   6.968  17.769  0.00  0.00    +0.000 N 
ATOM      8  C   UNL     1       1.649   8.715  18.584  0.00  0.00    +0.000 C 
ATOM      9  C   UNL     1       1.514   9.970  19.473  0.00  0.00    +0.000 C 
ATOM     10  H   UNL     1       3.849   7.936  17.503  0.00  0.00    +0.000 HD
ENDROOT
BRANCH   1  14
ATOM     11  C   UNL     1      -2.180  12.051  22.349  0.00  0.00    +0.000 A 
ATOM     12  C   UNL     1      -1.341  11.230  23.087  0.00  0.00    +0.000 A 
ATOM     13  N   UNL     1      -0.389  10.429  22.539  0.00  0.00    +0.000 NA
ATOM     14  C   UNL     1      -0.216  10.444  21.194  0.00  0.00    +0.000 A 
ATOM     15  C   UNL     1      -1.046  11.254  20.389  0.00  0.00    +0.000 A 
ATOM     16 CL   UNL     1      -1.023  11.225  18.654  0.00  0.00    +0.000 Cl
ATOM     17  C   UNL     1      -2.020  12.066  20.969  0.00  0.00    +0.000 A 
BRANCH  11  19
ATOM     18  N   UNL     1      -3.007  14.264  22.919  0.00  0.00    +0.000 N 
ATOM     19  C   UNL     1      -3.176  12.899  23.035  0.00  0.00    +0.000 C 
ATOM     20  O   UNL     1      -4.089  12.373  23.660  0.00  0.00    +0.000 OA
ATOM     21  H   UNL     1      -2.354  14.639  22.244  0.00  0.00    +0.000 HD
BRANCH  18  23
ATOM     22  C   UNL     1      -3.406  15.576  24.960  0.00  0.00    +0.000 C 
ATOM     23  C   UNL     1      -3.898  15.200  23.576  0.00  0.00    +0.000 C 
ENDBRANCH  18  23
ENDBRANCH  11  19
ENDBRANCH   1  14
BRANCH   7  24
ATOM     24  C   UNL     1       4.770   6.127  17.137  0.00  0.00    +0.000 A 
ATOM     25  C   UNL     1       4.432   4.894  16.574  0.00  0.00    +0.000 A 
ATOM     26  C   UNL     1       5.404   4.070  16.007  0.00  0.00    +0.000 A 
ATOM     27  C   UNL     1       6.730   4.483  15.976  0.00  0.00    +0.000 A 
ATOM     28  C   UNL     1       7.079   5.725  16.503  0.00  0.00    +0.000 A 
ATOM     29  C   UNL     1       6.102   6.550  17.075  0.00  0.00    +0.000 A 
ENDBRANCH   7  24
TORSDOF 4
ENDMDL
