MODEL 1
REMARK VINA RESULT:      -9.2      0.000      0.000
REMARK  Name = 
REMARK  5 active torsions:
REMARK  status: ('A' for Active; 'I' for Inactive)
REMARK    1  A    between atoms: C_2  and  C_28
REMARK    2  A    between atoms: N_3  and  C_4
REMARK    3  A    between atoms: C_8  and  C_9
REMARK    4  A    between atoms: N_11  and  C_12
REMARK    5  A    between atoms: C_16  and  C_17
REMARK                            x       y       z     vdW  Elec       q    Type
REMARK                         _______ _______ _______ _____ _____    ______ ____
ROOT
ATOM      1  C   UNL     1       8.656   9.815  18.556  0.00  0.00    +0.000 A 
ATOM      2  C   UNL     1       7.843   9.498  17.493  0.00  0.00    +0.000 A 
ATOM      3  N   UNL     1       7.631   8.151  17.600  0.00  0.00    +0.000 N 
ATOM      4  N   UNL     1       6.964   7.389  16.695  0.00  0.00    +0.000 NA
ATOM      5  C   UNL     1       6.989   6.128  16.988  0.00  0.00    +0.000 A 
ATOM      6  C   UNL     1       7.592   5.520  18.207  0.00  0.00    +0.000 A 
ATOM      7  C   UNL     1       8.225   6.350  19.047  0.00  0.00    +0.000 A 
ATOM      8  C   UNL     1       8.288   7.726  18.738  0.00  0.00    +0.000 A 
ATOM      9  N   UNL     1       8.906   8.721  19.331  0.00  0.00    +0.000 NA
ENDROOT
BRANCH   5  10
ATOM     10  C   UNL     1       6.422   5.188  16.041  0.00  0.00    +0.000 A 
ATOM     11  C   UNL     1       6.991   4.785  14.846  0.00  0.00    +0.000 A 
ATOM     12  N   UNL     1       6.139   3.873  14.305  0.00  0.00    +0.000 N 
ATOM     13  N   UNL     1       5.039   3.663  15.034  0.00  0.00    +0.000 NA
ATOM     14  C   UNL     1       5.180   4.460  16.109  0.00  0.00    +0.000 A 
BRANCH  14  15
ATOM     15  C   UNL     1       4.119   4.509  17.126  0.00  0.00    +0.000 A 
ATOM     16  C   UNL     1       3.657   5.749  17.602  0.00  0.00    +0.000 A 
ATOM     17  C   UNL     1       2.643   5.813  18.563  0.00  0.00    +0.000 A 
ATOM     18  C   UNL     1       2.083   4.637  19.047  0.00  0.00    +0.000 A 
ATOM     19  F   UNL     1       1.103   4.697  19.959  0.00  0.00    +0.000 F 
ATOM     20  C   UNL     1       2.530   3.401  18.605  0.00  0.00    +0.000 A 
ATOM     21  C   UNL     1       3.559   3.337  17.662  0.00  0.00    +0.000 A 
ENDBRANCH  14  15
BRANCH  12  22
ATOM     22  C   UNL     1       6.401   3.196  13.053  0.00  0.00    +0.000 C 
ATOM     23  C   UNL     1       5.415   3.261  11.899  0.00  0.00    +0.000 C 
ATOM     24  C   UNL     1       6.717   3.973  11.785  0.00  0.00    +0.000 C 
ENDBRANCH  12  22
ENDBRANCH   5  10
BRANCH   1  27
ATOM     25  O   UNL     1      10.903  11.089  17.251  0.00  0.00    +0.000 OA
ATOM     26  C   UNL     1      10.240  11.615  18.136  0.00  0.00    +0.000 C 
ATOM     27  N   UNL     1       9.155  11.071  18.794  0.00  0.00    +0.000 N 
ATOM     28  H   UNL     1       8.644  11.629  19.465  0.00  0.00    +0.000 HD
BRANCH  26  29
ATOM     29  C   UNL     1      10.632  12.984  18.559  0.00  0.00    +0.000 A 
ATOM     30  C   UNL     1      10.296  14.059  17.729  0.00  0.00    +0.000 A 
ATOM     31  C   UNL     1      10.659  15.335  18.122  0.00  0.00    +0.000 A 
ATOM     32  N   UNL     1      11.315  15.605  19.271  0.00  0.00    +0.000 NA
ATOM     33  C   UNL     1      11.618  14.551  20.062  0.00  0.00    +0.000 A 
ATOM     34  C   UNL     1      11.306  13.242  19.749  0.00  0.00    +0.000 A 
ATOM     35  F   UNL     1      11.656  12.258  20.591  0.00  0.00    +0.000 F 
ENDBRANCH  26  29
ENDBRANCH   1  27
TORSDOF 5
ENDMDL
MODEL 2
REMARK VINA RESULT:      -9.1      1.185      1.518
REMARK  Name = 
REMARK  5 active torsions:
REMARK  status: ('A' for Active; 'I' for Inactive)
REMARK    1  A    between atoms: C_2  and  C_28
REMARK    2  A    between atoms: N_3  and  C_4
REMARK    3  A    between atoms: C_8  and  C_9
REMARK    4  A    between atoms: N_11  and  C_12
REMARK    5  A    between atoms: C_16  and  C_17
REMARK                            x       y       z     vdW  Elec       q    Type
REMARK                         _______ _______ _______ _____ _____    ______ ____
ROOT
ATOM      1  C   UNL     1       8.781  10.002  18.403  0.00  0.00    +0.000 A 
ATOM      2  C   UNL     1       7.938   9.658  17.372  0.00  0.00    +0.000 A 
ATOM      3  N   UNL     1       7.687   8.326  17.549  0.00  0.00    +0.000 N 
ATOM      4  N   UNL     1       6.980   7.541  16.696  0.00  0.00    +0.000 NA
ATOM      5  C   UNL     1       6.973   6.296  17.051  0.00  0.00    +0.000 A 
ATOM      6  C   UNL     1       7.581   5.730  18.287  0.00  0.00    +0.000 A 
ATOM      7  C   UNL     1       8.256   6.580  19.073  0.00  0.00    +0.000 A 
ATOM      8  C   UNL     1       8.354   7.936  18.695  0.00  0.00    +0.000 A 
ATOM      9  N   UNL     1       9.014   8.940  19.226  0.00  0.00    +0.000 NA
ENDROOT
BRANCH   5  10
ATOM     10  C   UNL     1       6.359   5.329  16.162  0.00  0.00    +0.000 A 
ATOM     11  C   UNL     1       6.885   4.860  14.972  0.00  0.00    +0.000 A 
ATOM     12  N   UNL     1       5.998   3.946  14.495  0.00  0.00    +0.000 N 
ATOM     13  N   UNL     1       4.915   3.794  15.261  0.00  0.00    +0.000 NA
ATOM     14  C   UNL     1       5.103   4.635  16.295  0.00  0.00    +0.000 A 
BRANCH  14  15
ATOM     15  C   UNL     1       4.072   4.753  17.337  0.00  0.00    +0.000 A 
ATOM     16  C   UNL     1       3.203   3.678  17.593  0.00  0.00    +0.000 A 
ATOM     17  C   UNL     1       2.223   3.772  18.586  0.00  0.00    +0.000 A 
ATOM     18  C   UNL     1       2.110   4.940  19.330  0.00  0.00    +0.000 A 
ATOM     19  F   UNL     1       1.178   5.027  20.288  0.00  0.00    +0.000 F 
ATOM     20  C   UNL     1       2.944   6.021  19.086  0.00  0.00    +0.000 A 
ATOM     21  C   UNL     1       3.908   5.935  18.079  0.00  0.00    +0.000 A 
ENDBRANCH  14  15
BRANCH  12  22
ATOM     22  C   UNL     1       6.211   3.209  13.267  0.00  0.00    +0.000 C 
ATOM     23  C   UNL     1       5.299   3.396  12.066  0.00  0.00    +0.000 C 
ATOM     24  C   UNL     1       6.698   3.899  12.004  0.00  0.00    +0.000 C 
ENDBRANCH  12  22
ENDBRANCH   5  10
BRANCH   1  27
ATOM     25  O   UNL     1       7.906  12.473  17.177  0.00  0.00    +0.000 OA
ATOM     26  C   UNL     1       8.856  12.391  17.945  0.00  0.00    +0.000 C 
ATOM     27  N   UNL     1       9.323  11.252  18.570  0.00  0.00    +0.000 N 
ATOM     28  H   UNL     1      10.079  11.320  19.238  0.00  0.00    +0.000 HD
BRANCH  26  29
ATOM     29  C   UNL     1       9.599  13.643  18.247  0.00  0.00    +0.000 A 
ATOM     30  C   UNL     1       9.217  14.389  19.367  0.00  0.00    +0.000 A 
ATOM     31  C   UNL     1       9.907  15.553  19.651  0.00  0.00    +0.000 A 
ATOM     32  N   UNL     1      10.940  16.009  18.910  0.00  0.00    +0.000 NA
ATOM     33  C   UNL     1      11.299  15.264  17.840  0.00  0.00    +0.000 A 
ATOM     34  C   UNL     1      10.663  14.094  17.472  0.00  0.00    +0.000 A 
ATOM     35  F   UNL     1      11.081  13.425  16.387  0.00  0.00    +0.000 F 
ENDBRANCH  26  29
ENDBRANCH   1  27
TORSDOF 5
ENDMDL
MODEL 3
REMARK VINA RESULT:      -8.9      1.157      1.382
REMARK  Name = 
REMARK  5 active torsions:
REMARK  status: ('A' for Active; 'I' for Inactive)
REMARK    1  A    between atoms: C_2  and  C_28
REMARK    2  A    between atoms: N_3  and  C_4
REMARK    3  A    between atoms: C_8  and  C_9
REMARK    4  A    between atoms: N_11  and  C_12
REMARK    5  A    between atoms: C_16  and  C_17
REMARK                            x       y       z     vdW  Elec       q    Type
REMARK                         _______ _______ _______ _____ _____    ______ ____
ROOT
ATOM      1  C   UNL     1       8.921  10.427  18.367  0.00  0.00    +0.000 A 
ATOM      2  C   UNL     1       8.028  10.029  17.400  0.00  0.00    +0.000 A 
ATOM      3  N   UNL     1       7.802   8.704  17.650  0.00  0.00    +0.000 N 
ATOM      4  N   UNL     1       7.060   7.876  16.872  0.00  0.00    +0.000 NA
ATOM      5  C   UNL     1       7.084   6.648  17.283  0.00  0.00    +0.000 A 
ATOM      6  C   UNL     1       7.763   6.144  18.509  0.00  0.00    +0.000 A 
ATOM      7  C   UNL     1       8.469   7.035  19.219  0.00  0.00    +0.000 A 
ATOM      8  C   UNL     1       8.533   8.374  18.775  0.00  0.00    +0.000 A 
ATOM      9  N   UNL     1       9.208   9.406  19.224  0.00  0.00    +0.000 NA
ENDROOT
BRANCH   5  10
ATOM     10  C   UNL     1       6.435   5.636  16.473  0.00  0.00    +0.000 A 
ATOM     11  C   UNL     1       6.906   5.112  15.283  0.00  0.00    +0.000 A 
ATOM     12  N   UNL     1       6.004   4.172  14.894  0.00  0.00    +0.000 N 
ATOM     13  N   UNL     1       4.960   4.053  15.719  0.00  0.00    +0.000 NA
ATOM     14  C   UNL     1       5.192   4.943  16.700  0.00  0.00    +0.000 A 
BRANCH  14  15
ATOM     15  C   UNL     1       4.211   5.108  17.783  0.00  0.00    +0.000 A 
ATOM     16  C   UNL     1       3.492   6.310  17.905  0.00  0.00    +0.000 A 
ATOM     17  C   UNL     1       2.549   6.480  18.925  0.00  0.00    +0.000 A 
ATOM     18  C   UNL     1       2.319   5.446  19.823  0.00  0.00    +0.000 A 
ATOM     19  F   UNL     1       1.408   5.603  20.793  0.00  0.00    +0.000 F 
ATOM     20  C   UNL     1       3.026   4.256  19.735  0.00  0.00    +0.000 A 
ATOM     21  C   UNL     1       3.983   4.096  18.730  0.00  0.00    +0.000 A 
ENDBRANCH  14  15
BRANCH  12  22
ATOM     22  C   UNL     1       6.162   3.376  13.695  0.00  0.00    +0.000 C 
ATOM     23  C   UNL     1       5.255   3.574  12.491  0.00  0.00    +0.000 C 
ATOM     24  C   UNL     1       6.683   3.987  12.404  0.00  0.00    +0.000 C 
ENDBRANCH  12  22
ENDBRANCH   5  10
BRANCH   1  27
ATOM     25  O   UNL     1      11.712  11.133  18.665  0.00  0.00    +0.000 OA
ATOM     26  C   UNL     1      10.804  11.952  18.597  0.00  0.00    +0.000 C 
ATOM     27  N   UNL     1       9.457  11.688  18.448  0.00  0.00    +0.000 N 
ATOM     28  H   UNL     1       8.805  12.453  18.338  0.00  0.00    +0.000 HD
BRANCH  26  29
ATOM     29  C   UNL     1      11.174  13.389  18.685  0.00  0.00    +0.000 A 
ATOM     30  C   UNL     1      11.353  13.953  19.952  0.00  0.00    +0.000 A 
ATOM     31  C   UNL     1      11.698  15.290  20.037  0.00  0.00    +0.000 A 
ATOM     32  N   UNL     1      11.882  16.084  18.960  0.00  0.00    +0.000 NA
ATOM     33  C   UNL     1      11.715  15.512  17.746  0.00  0.00    +0.000 A 
ATOM     34  C   UNL     1      11.361  14.189  17.563  0.00  0.00    +0.000 A 
ATOM     35  F   UNL     1      11.207  13.710  16.319  0.00  0.00    +0.000 F 
ENDBRANCH  26  29
ENDBRANCH   1  27
TORSDOF 5
ENDMDL
MODEL 4
REMARK VINA RESULT:      -8.9      0.912      1.209
REMARK  Name = 
REMARK  5 active torsions:
REMARK  status: ('A' for Active; 'I' for Inactive)
REMARK    1  A    between atoms: C_2  and  C_28
REMARK    2  A    between atoms: N_3  and  C_4
REMARK    3  A    between atoms: C_8  and  C_9
REMARK    4  A    between atoms: N_11  and  C_12
REMARK    5  A    between atoms: C_16  and  C_17
REMARK                            x       y       z     vdW  Elec       q    Type
REMARK                         _______ _______ _______ _____ _____    ______ ____
ROOT
ATOM      1  C   UNL     1       8.604   9.669  18.583  0.00  0.00    +0.000 A 
ATOM      2  C   UNL     1       7.789   9.425  17.502  0.00  0.00    +0.000 A 
ATOM      3  N   UNL     1       7.577   8.075  17.517  0.00  0.00    +0.000 N 
ATOM      4  N   UNL     1       6.910   7.377  16.563  0.00  0.00    +0.000 NA
ATOM      5  C   UNL     1       6.935   6.098  16.769  0.00  0.00    +0.000 A 
ATOM      6  C   UNL     1       7.540   5.408  17.941  0.00  0.00    +0.000 A 
ATOM      7  C   UNL     1       8.175   6.178  18.835  0.00  0.00    +0.000 A 
ATOM      8  C   UNL     1       8.237   7.572  18.622  0.00  0.00    +0.000 A 
ATOM      9  N   UNL     1       8.856   8.525  19.280  0.00  0.00    +0.000 NA
ENDROOT
BRANCH   5  10
ATOM     10  C   UNL     1       6.366   5.226  15.760  0.00  0.00    +0.000 A 
ATOM     11  C   UNL     1       6.853   5.026  14.481  0.00  0.00    +0.000 A 
ATOM     12  N   UNL     1       6.037   4.105  13.901  0.00  0.00    +0.000 N 
ATOM     13  N   UNL     1       5.034   3.702  14.685  0.00  0.00    +0.000 NA
ATOM     14  C   UNL     1       5.205   4.376  15.837  0.00  0.00    +0.000 A 
BRANCH  14  15
ATOM     15  C   UNL     1       4.244   4.198  16.936  0.00  0.00    +0.000 A 
ATOM     16  C   UNL     1       3.573   5.312  17.471  0.00  0.00    +0.000 A 
ATOM     17  C   UNL     1       2.650   5.159  18.511  0.00  0.00    +0.000 A 
ATOM     18  C   UNL     1       2.391   3.892  19.016  0.00  0.00    +0.000 A 
ATOM     19  F   UNL     1       1.499   3.742  20.004  0.00  0.00    +0.000 F 
ATOM     20  C   UNL     1       3.051   2.778  18.517  0.00  0.00    +0.000 A 
ATOM     21  C   UNL     1       3.989   2.934  17.494  0.00  0.00    +0.000 A 
ENDBRANCH  14  15
BRANCH  12  22
ATOM     22  C   UNL     1       6.239   3.610  12.555  0.00  0.00    +0.000 C 
ATOM     23  C   UNL     1       5.845   2.195  12.166  0.00  0.00    +0.000 C 
ATOM     24  C   UNL     1       5.066   3.343  11.626  0.00  0.00    +0.000 C 
ENDBRANCH  12  22
ENDBRANCH   5  10
BRANCH   1  27
ATOM     25  O   UNL     1      10.870  11.016  17.387  0.00  0.00    +0.000 OA
ATOM     26  C   UNL     1      10.197  11.486  18.296  0.00  0.00    +0.000 C 
ATOM     27  N   UNL     1       9.104  10.906  18.907  0.00  0.00    +0.000 N 
ATOM     28  H   UNL     1       8.587  11.422  19.606  0.00  0.00    +0.000 HD
BRANCH  26  29
ATOM     29  C   UNL     1      10.588  12.825  18.811  0.00  0.00    +0.000 A 
ATOM     30  C   UNL     1      10.576  13.035  20.194  0.00  0.00    +0.000 A 
ATOM     31  C   UNL     1      10.941  14.280  20.675  0.00  0.00    +0.000 A 
ATOM     32  N   UNL     1      11.318  15.306  19.883  0.00  0.00    +0.000 NA
ATOM     33  C   UNL     1      11.334  15.075  18.551  0.00  0.00    +0.000 A 
ATOM     34  C   UNL     1      10.977  13.869  17.978  0.00  0.00    +0.000 A 
ATOM     35  F   UNL     1      11.012  13.734  16.644  0.00  0.00    +0.000 F 
ENDBRANCH  26  29
ENDBRANCH   1  27
TORSDOF 5
ENDMDL
MODEL 5
REMARK VINA RESULT:      -8.9      5.011      7.754
REMARK  Name = 
REMARK  5 active torsions:
REMARK  status: ('A' for Active; 'I' for Inactive)
REMARK    1  A    between atoms: C_2  and  C_28
REMARK    2  A    between atoms: N_3  and  C_4
REMARK    3  A    between atoms: C_8  and  C_9
REMARK    4  A    between atoms: N_11  and  C_12
REMARK    5  A    between atoms: C_16  and  C_17
REMARK                            x       y       z     vdW  Elec       q    Type
REMARK                         _______ _______ _______ _____ _____    ______ ____
ROOT
ATOM      1  C   UNL     1       1.390   8.639  19.733  0.00  0.00    +0.000 A 
ATOM      2  C   UNL     1       2.000   8.654  18.500  0.00  0.00    +0.000 A 
ATOM      3  N   UNL     1       2.685   7.473  18.430  0.00  0.00    +0.000 N 
ATOM      4  N   UNL     1       3.521   7.111  17.424  0.00  0.00    +0.000 NA
ATOM      5  C   UNL     1       4.117   5.983  17.649  0.00  0.00    +0.000 A 
ATOM      6  C   UNL     1       3.897   5.091  18.821  0.00  0.00    +0.000 A 
ATOM      7  C   UNL     1       3.050   5.529  19.763  0.00  0.00    +0.000 A 
ATOM      8  C   UNL     1       2.427   6.785  19.600  0.00  0.00    +0.000 A 
ATOM      9  N   UNL     1       1.640   7.473  20.394  0.00  0.00    +0.000 NA
ENDROOT
BRANCH   5  10
ATOM     10  C   UNL     1       5.130   5.540  16.712  0.00  0.00    +0.000 A 
ATOM     11  C   UNL     1       4.970   4.588  15.721  0.00  0.00    +0.000 A 
ATOM     12  N   UNL     1       6.158   4.519  15.061  0.00  0.00    +0.000 N 
ATOM     13  N   UNL     1       7.097   5.329  15.555  0.00  0.00    +0.000 NA
ATOM     14  C   UNL     1       6.499   5.970  16.575  0.00  0.00    +0.000 A 
BRANCH  14  15
ATOM     15  C   UNL     1       7.263   6.934  17.381  0.00  0.00    +0.000 A 
ATOM     16  C   UNL     1       7.341   8.280  16.982  0.00  0.00    +0.000 A 
ATOM     17  C   UNL     1       8.058   9.211  17.742  0.00  0.00    +0.000 A 
ATOM     18  C   UNL     1       8.694   8.800  18.906  0.00  0.00    +0.000 A 
ATOM     19  F   UNL     1       9.371   9.693  19.641  0.00  0.00    +0.000 F 
ATOM     20  C   UNL     1       8.646   7.475  19.314  0.00  0.00    +0.000 A 
ATOM     21  C   UNL     1       7.949   6.541  18.543  0.00  0.00    +0.000 A 
ENDBRANCH  14  15
BRANCH  12  22
ATOM     22  C   UNL     1       6.380   3.643  13.930  0.00  0.00    +0.000 C 
ATOM     23  C   UNL     1       5.407   3.599  12.763  0.00  0.00    +0.000 C 
ATOM     24  C   UNL     1       6.756   4.196  12.565  0.00  0.00    +0.000 C 
ENDBRANCH  12  22
ENDBRANCH   5  10
BRANCH   1  27
ATOM     25  O   UNL     1       1.554   9.820  22.370  0.00  0.00    +0.000 OA
ATOM     26  C   UNL     1       0.764  10.183  21.507  0.00  0.00    +0.000 C 
ATOM     27  N   UNL     1       0.636   9.673  20.231  0.00  0.00    +0.000 N 
ATOM     28  H   UNL     1      -0.011  10.100  19.582  0.00  0.00    +0.000 HD
BRANCH  26  29
ATOM     29  C   UNL     1      -0.164  11.290  21.855  0.00  0.00    +0.000 A 
ATOM     30  C   UNL     1      -0.049  12.498  21.160  0.00  0.00    +0.000 A 
ATOM     31  C   UNL     1      -0.912  13.530  21.481  0.00  0.00    +0.000 A 
ATOM     32  N   UNL     1      -1.872  13.434  22.427  0.00  0.00    +0.000 NA
ATOM     33  C   UNL     1      -1.972  12.252  23.077  0.00  0.00    +0.000 A 
ATOM     34  C   UNL     1      -1.149  11.170  22.831  0.00  0.00    +0.000 A 
ATOM     35  F   UNL     1      -1.314  10.039  23.533  0.00  0.00    +0.000 F 
ENDBRANCH  26  29
ENDBRANCH   1  27
TORSDOF 5
ENDMDL
MODEL 6
REMARK VINA RESULT:      -8.9      6.449      7.685
REMARK  Name = 
REMARK  5 active torsions:
REMARK  status: ('A' for Active; 'I' for Inactive)
REMARK    1  A    between atoms: C_2  and  C_28
REMARK    2  A    between atoms: N_3  and  C_4
REMARK    3  A    between atoms: C_8  and  C_9
REMARK    4  A    between atoms: N_11  and  C_12
REMARK    5  A    between atoms: C_16  and  C_17
REMARK                            x       y       z     vdW  Elec       q    Type
REMARK                         _______ _______ _______ _____ _____    ______ ____
ROOT
ATOM      1  C   UNL     1       0.270  11.364  19.273  0.00  0.00    +0.000 A 
ATOM      2  C   UNL     1       0.817  10.724  18.186  0.00  0.00    +0.000 A 
ATOM      3  N   UNL     1       1.278   9.532  18.672  0.00  0.00    +0.000 N 
ATOM      4  N   UNL     1       1.991   8.620  17.963  0.00  0.00    +0.000 NA
ATOM      5  C   UNL     1       2.388   7.622  18.687  0.00  0.00    +0.000 A 
ATOM      6  C   UNL     1       2.067   7.395  20.124  0.00  0.00    +0.000 A 
ATOM      7  C   UNL     1       1.353   8.347  20.741  0.00  0.00    +0.000 A 
ATOM      8  C   UNL     1       0.956   9.490  20.015  0.00  0.00    +0.000 A 
ATOM      9  N   UNL     1       0.339  10.586  20.391  0.00  0.00    +0.000 NA
ENDROOT
BRANCH   5  10
ATOM     10  C   UNL     1       3.264   6.637  18.083  0.00  0.00    +0.000 A 
ATOM     11  C   UNL     1       4.159   6.859  17.053  0.00  0.00    +0.000 A 
ATOM     12  N   UNL     1       4.793   5.676  16.835  0.00  0.00    +0.000 N 
ATOM     13  N   UNL     1       4.368   4.683  17.622  0.00  0.00    +0.000 NA
ATOM     14  C   UNL     1       3.424   5.241  18.401  0.00  0.00    +0.000 A 
BRANCH  14  15
ATOM     15  C   UNL     1       2.706   4.414  19.382  0.00  0.00    +0.000 A 
ATOM     16  C   UNL     1       3.341   4.027  20.575  0.00  0.00    +0.000 A 
ATOM     17  C   UNL     1       2.669   3.247  21.523  0.00  0.00    +0.000 A 
ATOM     18  C   UNL     1       1.358   2.857  21.284  0.00  0.00    +0.000 A 
ATOM     19  F   UNL     1       0.710   2.120  22.195  0.00  0.00    +0.000 F 
ATOM     20  C   UNL     1       0.713   3.212  20.108  0.00  0.00    +0.000 A 
ATOM     21  C   UNL     1       1.392   3.972  19.152  0.00  0.00    +0.000 A 
ENDBRANCH  14  15
BRANCH  12  22
ATOM     22  C   UNL     1       5.831   5.510  15.840  0.00  0.00    +0.000 C 
ATOM     23  C   UNL     1       6.473   4.156  15.586  0.00  0.00    +0.000 C 
ATOM     24  C   UNL     1       5.577   4.744  14.552  0.00  0.00    +0.000 C 
ENDBRANCH  12  22
ENDBRANCH   5  10
BRANCH   1  27
ATOM     25  O   UNL     1       1.521  13.831  20.123  0.00  0.00    +0.000 OA
ATOM     26  C   UNL     1       0.388  13.763  19.664  0.00  0.00    +0.000 C 
ATOM     27  N   UNL     1      -0.267  12.627  19.233  0.00  0.00    +0.000 N 
ATOM     28  H   UNL     1      -1.182  12.705  18.810  0.00  0.00    +0.000 HD
BRANCH  26  29
ATOM     29  C   UNL     1      -0.380  15.031  19.552  0.00  0.00    +0.000 A 
ATOM     30  C   UNL     1      -0.071  15.905  18.505  0.00  0.00    +0.000 A 
ATOM     31  C   UNL     1      -0.784  17.086  18.398  0.00  0.00    +0.000 A 
ATOM     32  N   UNL     1      -1.773  17.440  19.246  0.00  0.00    +0.000 NA
ATOM     33  C   UNL     1      -2.061  16.573  20.244  0.00  0.00    +0.000 A 
ATOM     34  C   UNL     1      -1.397  15.377  20.436  0.00  0.00    +0.000 A 
ATOM     35  F   UNL     1      -1.744  14.583  21.460  0.00  0.00    +0.000 F 
ENDBRANCH  26  29
ENDBRANCH   1  27
TORSDOF 5
ENDMDL
MODEL 7
REMARK VINA RESULT:      -8.9      5.070      7.698
REMARK  Name = 
REMARK  5 active torsions:
REMARK  status: ('A' for Active; 'I' for Inactive)
REMARK    1  A    between atoms: C_2  and  C_28
REMARK    2  A    between atoms: N_3  and  C_4
REMARK    3  A    between atoms: C_8  and  C_9
REMARK    4  A    between atoms: N_11  and  C_12
REMARK    5  A    between atoms: C_16  and  C_17
REMARK                            x       y       z     vdW  Elec       q    Type
REMARK                         _______ _______ _______ _____ _____    ______ ____
ROOT
ATOM      1  C   UNL     1       1.409   8.547  19.822  0.00  0.00    +0.000 A 
ATOM      2  C   UNL     1       2.006   8.579  18.584  0.00  0.00    +0.000 A 
ATOM      3  N   UNL     1       2.694   7.401  18.492  0.00  0.00    +0.000 N 
ATOM      4  N   UNL     1       3.521   7.053  17.473  0.00  0.00    +0.000 NA
ATOM      5  C   UNL     1       4.121   5.925  17.678  0.00  0.00    +0.000 A 
ATOM      6  C   UNL     1       3.916   5.018  18.842  0.00  0.00    +0.000 A 
ATOM      7  C   UNL     1       3.077   5.441  19.798  0.00  0.00    +0.000 A 
ATOM      8  C   UNL     1       2.449   6.697  19.656  0.00  0.00    +0.000 A 
ATOM      9  N   UNL     1       1.668   7.373  20.466  0.00  0.00    +0.000 NA
ENDROOT
BRANCH   5  10
ATOM     10  C   UNL     1       5.127   5.495  16.726  0.00  0.00    +0.000 A 
ATOM     11  C   UNL     1       4.964   4.544  15.735  0.00  0.00    +0.000 A 
ATOM     12  N   UNL     1       6.142   4.491  15.058  0.00  0.00    +0.000 N 
ATOM     13  N   UNL     1       7.080   5.310  15.542  0.00  0.00    +0.000 NA
ATOM     14  C   UNL     1       6.488   5.942  16.572  0.00  0.00    +0.000 A 
BRANCH  14  15
ATOM     15  C   UNL     1       7.252   6.912  17.369  0.00  0.00    +0.000 A 
ATOM     16  C   UNL     1       7.331   8.255  16.959  0.00  0.00    +0.000 A 
ATOM     17  C   UNL     1       8.047   9.192  17.711  0.00  0.00    +0.000 A 
ATOM     18  C   UNL     1       8.684   8.791  18.879  0.00  0.00    +0.000 A 
ATOM     19  F   UNL     1       9.360   9.690  19.606  0.00  0.00    +0.000 F 
ATOM     20  C   UNL     1       8.635   7.469  19.298  0.00  0.00    +0.000 A 
ATOM     21  C   UNL     1       7.938   6.529  18.534  0.00  0.00    +0.000 A 
ENDBRANCH  14  15
BRANCH  12  22
ATOM     22  C   UNL     1       6.359   3.621  13.921  0.00  0.00    +0.000 C 
ATOM     23  C   UNL     1       5.379   3.582  12.760  0.00  0.00    +0.000 C 
ATOM     24  C   UNL     1       6.727   4.180  12.557  0.00  0.00    +0.000 C 
ENDBRANCH  12  22
ENDBRANCH   5  10
BRANCH   1  27
ATOM     25  O   UNL     1       1.507   9.611  22.512  0.00  0.00    +0.000 OA
ATOM     26  C   UNL     1       0.752  10.025  21.641  0.00  0.00    +0.000 C 
ATOM     27  N   UNL     1       0.657   9.572  20.340  0.00  0.00    +0.000 N 
ATOM     28  H   UNL     1       0.039  10.039  19.690  0.00  0.00    +0.000 HD
BRANCH  26  29
ATOM     29  C   UNL     1      -0.168  11.133  22.007  0.00  0.00    +0.000 A 
ATOM     30  C   UNL     1      -1.208  10.865  22.903  0.00  0.00    +0.000 A 
ATOM     31  C   UNL     1      -2.066  11.895  23.246  0.00  0.00    +0.000 A 
ATOM     32  N   UNL     1      -1.950  13.153  22.771  0.00  0.00    +0.000 NA
ATOM     33  C   UNL     1      -0.930  13.391  21.915  0.00  0.00    +0.000 A 
ATOM     34  C   UNL     1      -0.030  12.424  21.507  0.00  0.00    +0.000 A 
ATOM     35  F   UNL     1       0.946  12.749  20.646  0.00  0.00    +0.000 F 
ENDBRANCH  26  29
ENDBRANCH   1  27
TORSDOF 5
ENDMDL
MODEL 8
REMARK VINA RESULT:      -8.8      1.225      1.402
REMARK  Name = 
REMARK  5 active torsions:
REMARK  status: ('A' for Active; 'I' for Inactive)
REMARK    1  A    between atoms: C_2  and  C_28
REMARK    2  A    between atoms: N_3  and  C_4
REMARK    3  A    between atoms: C_8  and  C_9
REMARK    4  A    between atoms: N_11  and  C_12
REMARK    5  A    between atoms: C_16  and  C_17
REMARK                            x       y       z     vdW  Elec       q    Type
REMARK                         _______ _______ _______ _____ _____    ______ ____
ROOT
ATOM      1  C   UNL     1       8.721   9.523  18.593  0.00  0.00    +0.000 A 
ATOM      2  C   UNL     1       7.927   9.310  17.490  0.00  0.00    +0.000 A 
ATOM      3  N   UNL     1       7.637   7.974  17.517  0.00  0.00    +0.000 N 
ATOM      4  N   UNL     1       6.960   7.300  16.552  0.00  0.00    +0.000 NA
ATOM      5  C   UNL     1       6.904   6.026  16.777  0.00  0.00    +0.000 A 
ATOM      6  C   UNL     1       7.431   5.321  17.978  0.00  0.00    +0.000 A 
ATOM      7  C   UNL     1       8.081   6.068  18.881  0.00  0.00    +0.000 A 
ATOM      8  C   UNL     1       8.231   7.452  18.650  0.00  0.00    +0.000 A 
ATOM      9  N   UNL     1       8.883   8.378  19.314  0.00  0.00    +0.000 NA
ENDROOT
BRANCH   5  10
ATOM     10  C   UNL     1       6.317   5.172  15.763  0.00  0.00    +0.000 A 
ATOM     11  C   UNL     1       6.787   4.987  14.475  0.00  0.00    +0.000 A 
ATOM     12  N   UNL     1       5.959   4.079  13.892  0.00  0.00    +0.000 N 
ATOM     13  N   UNL     1       4.963   3.671  14.683  0.00  0.00    +0.000 NA
ATOM     14  C   UNL     1       5.153   4.327  15.843  0.00  0.00    +0.000 A 
BRANCH  14  15
ATOM     15  C   UNL     1       4.205   4.139  16.951  0.00  0.00    +0.000 A 
ATOM     16  C   UNL     1       3.523   5.244  17.489  0.00  0.00    +0.000 A 
ATOM     17  C   UNL     1       2.612   5.081  18.538  0.00  0.00    +0.000 A 
ATOM     18  C   UNL     1       2.376   3.811  19.050  0.00  0.00    +0.000 A 
ATOM     19  F   UNL     1       1.495   3.652  20.046  0.00  0.00    +0.000 F 
ATOM     20  C   UNL     1       3.047   2.706  18.547  0.00  0.00    +0.000 A 
ATOM     21  C   UNL     1       3.973   2.873  17.514  0.00  0.00    +0.000 A 
ENDBRANCH  14  15
BRANCH  12  22
ATOM     22  C   UNL     1       6.141   3.604  12.537  0.00  0.00    +0.000 C 
ATOM     23  C   UNL     1       5.749   2.191  12.137  0.00  0.00    +0.000 C 
ATOM     24  C   UNL     1       4.954   3.340  11.625  0.00  0.00    +0.000 C 
ENDBRANCH  12  22
ENDBRANCH   5  10
BRANCH   1  27
ATOM     25  O   UNL     1       9.133  10.620  21.240  0.00  0.00    +0.000 OA
ATOM     26  C   UNL     1       9.441  11.198  20.205  0.00  0.00    +0.000 C 
ATOM     27  N   UNL     1       9.281  10.734  18.915  0.00  0.00    +0.000 N 
ATOM     28  H   UNL     1       9.636  11.277  18.139  0.00  0.00    +0.000 HD
BRANCH  26  29
ATOM     29  C   UNL     1      10.053  12.547  20.334  0.00  0.00    +0.000 A 
ATOM     30  C   UNL     1       9.370  13.519  21.072  0.00  0.00    +0.000 A 
ATOM     31  C   UNL     1       9.937  14.774  21.195  0.00  0.00    +0.000 A 
ATOM     32  N   UNL     1      11.124  15.115  20.649  0.00  0.00    +0.000 NA
ATOM     33  C   UNL     1      11.772  14.154  19.950  0.00  0.00    +0.000 A 
ATOM     34  C   UNL     1      11.279  12.877  19.765  0.00  0.00    +0.000 A 
ATOM     35  F   UNL     1      11.986  11.991  19.048  0.00  0.00    +0.000 F 
ENDBRANCH  26  29
ENDBRANCH   1  27
TORSDOF 5
ENDMDL
MODEL 9
REMARK VINA RESULT:      -8.8      1.143      1.602
REMARK  Name = 
REMARK  5 active torsions:
REMARK  status: ('A' for Active; 'I' for Inactive)
REMARK    1  A    between atoms: C_2  and  C_28
REMARK    2  A    between atoms: N_3  and  C_4
REMARK    3  A    between atoms: C_8  and  C_9
REMARK    4  A    between atoms: N_11  and  C_12
REMARK    5  A    between atoms: C_16  and  C_17
REMARK                            x       y       z     vdW  Elec       q    Type
REMARK                         _______ _______ _______ _____ _____    ______ ____
ROOT
ATOM      1  C   UNL     1       8.781   9.300  18.624  0.00  0.00    +0.000 A 
ATOM      2  C   UNL     1       8.025   9.123  17.489  0.00  0.00    +0.000 A 
ATOM      3  N   UNL     1       7.653   7.808  17.512  0.00  0.00    +0.000 N 
ATOM      4  N   UNL     1       6.980   7.166  16.524  0.00  0.00    +0.000 NA
ATOM      5  C   UNL     1       6.837   5.900  16.755  0.00  0.00    +0.000 A 
ATOM      6  C   UNL     1       7.268   5.176  17.984  0.00  0.00    +0.000 A 
ATOM      7  C   UNL     1       7.922   5.892  18.909  0.00  0.00    +0.000 A 
ATOM      8  C   UNL     1       8.165   7.262  18.674  0.00  0.00    +0.000 A 
ATOM      9  N   UNL     1       8.842   8.154  19.360  0.00  0.00    +0.000 NA
ENDROOT
BRANCH   5  10
ATOM     10  C   UNL     1       6.245   5.072  15.722  0.00  0.00    +0.000 A 
ATOM     11  C   UNL     1       6.707   4.922  14.427  0.00  0.00    +0.000 A 
ATOM     12  N   UNL     1       5.876   4.029  13.826  0.00  0.00    +0.000 N 
ATOM     13  N   UNL     1       4.886   3.599  14.612  0.00  0.00    +0.000 NA
ATOM     14  C   UNL     1       5.082   4.225  15.787  0.00  0.00    +0.000 A 
BRANCH  14  15
ATOM     15  C   UNL     1       4.141   4.007  16.896  0.00  0.00    +0.000 A 
ATOM     16  C   UNL     1       3.913   2.706  17.381  0.00  0.00    +0.000 A 
ATOM     17  C   UNL     1       3.028   2.483  18.440  0.00  0.00    +0.000 A 
ATOM     18  C   UNL     1       2.370   3.559  19.022  0.00  0.00    +0.000 A 
ATOM     19  F   UNL     1       1.530   3.348  20.044  0.00  0.00    +0.000 F 
ATOM     20  C   UNL     1       2.565   4.850  18.553  0.00  0.00    +0.000 A 
ATOM     21  C   UNL     1       3.433   5.070  17.480  0.00  0.00    +0.000 A 
ENDBRANCH  14  15
BRANCH  12  22
ATOM     22  C   UNL     1       6.050   3.590  12.457  0.00  0.00    +0.000 C 
ATOM     23  C   UNL     1       5.705   2.172  12.033  0.00  0.00    +0.000 C 
ATOM     24  C   UNL     1       4.857   3.301  11.561  0.00  0.00    +0.000 C 
ENDBRANCH  12  22
ENDBRANCH   5  10
BRANCH   1  27
ATOM     25  O   UNL     1       8.244  11.934  17.553  0.00  0.00    +0.000 OA
ATOM     26  C   UNL     1       9.095  11.703  18.402  0.00  0.00    +0.000 C 
ATOM     27  N   UNL     1       9.399  10.478  18.962  0.00  0.00    +0.000 N 
ATOM     28  H   UNL     1      10.081  10.422  19.706  0.00  0.00    +0.000 HD
BRANCH  26  29
ATOM     29  C   UNL     1       9.898  12.854  18.894  0.00  0.00    +0.000 A 
ATOM     30  C   UNL     1       9.858  13.157  20.259  0.00  0.00    +0.000 A 
ATOM     31  C   UNL     1      10.604  14.227  20.720  0.00  0.00    +0.000 A 
ATOM     32  N   UNL     1      11.381  14.993  19.925  0.00  0.00    +0.000 NA
ATOM     33  C   UNL     1      11.413  14.673  18.611  0.00  0.00    +0.000 A 
ATOM     34  C   UNL     1      10.694  13.630  18.058  0.00  0.00    +0.000 A 
ATOM     35  F   UNL     1      10.779  13.391  16.741  0.00  0.00    +0.000 F 
ENDBRANCH  26  29
ENDBRANCH   1  27
TORSDOF 5
ENDMDL
