MODEL 1
REMARK VINA RESULT:      -7.3      0.000      0.000
REMARK  Name = 
REMARK  8 active torsions:
REMARK  status: ('A' for Active; 'I' for Inactive)
REMARK    1  A    between atoms: C_1  and  O_2
REMARK    2  A    between atoms: O_2  and  C_3
REMARK    3  A    between atoms: C_6  and  C_7
REMARK    4  A    between atoms: C_8  and  C_9
REMARK    5  A    between atoms: C_12  and  N_13
REMARK    6  A    between atoms: C_14  and  C_15
REMARK    7  A    between atoms: C_21  and  O_22
REMARK    8  A    between atoms: O_22  and  C_23
REMARK                            x       y       z     vdW  Elec       q    Type
REMARK                         _______ _______ _______ _____ _____    ______ ____
ROOT
ATOM      1  C   UNL     1       3.186   6.330  18.688  0.00  0.00    +0.000 A 
ATOM      2  C   UNL     1       2.612   5.853  19.909  0.00  0.00    +0.000 A 
ATOM      3  C   UNL     1       2.837   4.586  20.654  0.00  0.00    +0.000 C 
ATOM      4  N   UNL     1       1.753   6.731  20.434  0.00  0.00    +0.000 NA
ATOM      5  N   UNL     1       1.801   7.804  19.608  0.00  0.00    +0.000 N 
ATOM      6  C   UNL     1       1.083   9.014  19.784  0.00  0.00    +0.000 A 
ATOM      7  C   UNL     1       1.215   9.959  18.832  0.00  0.00    +0.000 A 
ATOM      8  C   UNL     1       2.116   9.652  17.697  0.00  0.00    +0.000 A 
ATOM      9  N   UNL     1       2.787   8.551  17.532  0.00  0.00    +0.000 NA
ATOM     10  C   UNL     1       2.636   7.592  18.508  0.00  0.00    +0.000 A 
ENDROOT
BRANCH   1  14
ATOM     11  C   UNL     1       5.996   4.719  15.884  0.00  0.00    +0.000 A 
ATOM     12  C   UNL     1       4.792   4.053  16.148  0.00  0.00    +0.000 A 
ATOM     13  C   UNL     1       3.878   4.561  17.075  0.00  0.00    +0.000 A 
ATOM     14  C   UNL     1       4.173   5.714  17.808  0.00  0.00    +0.000 A 
ATOM     15  C   UNL     1       5.432   6.295  17.629  0.00  0.00    +0.000 A 
ATOM     16  C   UNL     1       6.340   5.832  16.662  0.00  0.00    +0.000 A 
BRANCH  11  18
ATOM     17  C   UNL     1       6.225   3.911  13.668  0.00  0.00    +0.000 C 
ATOM     18  O   UNL     1       6.843   4.291  14.897  0.00  0.00    +0.000 OA
ENDBRANCH  11  18
BRANCH  16  19
ATOM     19  O   UNL     1       7.460   6.616  16.608  0.00  0.00    +0.000 OA
ATOM     20  C   UNL     1       7.596   7.694  17.518  0.00  0.00    +0.000 C 
ENDBRANCH  16  19
ENDBRANCH   1  14
BRANCH   6  21
ATOM     21  N   UNL     1       0.302   9.116  20.937  0.00  0.00    +0.000 N 
ATOM     22  H   UNL     1       0.109   8.195  21.345  0.00  0.00    +0.000 HD
ATOM     23  H   UNL     1      -0.519   9.714  20.880  0.00  0.00    +0.000 HD
ENDBRANCH   6  21
BRANCH   7  24
ATOM     24  C   UNL     1       0.458  11.273  18.930  0.00  0.00    +0.000 C 
ATOM     25  N   UNL     1      -0.169  12.364  19.011  0.00  0.00    +0.000 NA
ENDBRANCH   7  24
TORSDOF 5
ENDMDL
MODEL 2
REMARK VINA RESULT:      -6.8      1.286      2.248
REMARK  Name = 
REMARK  8 active torsions:
REMARK  status: ('A' for Active; 'I' for Inactive)
REMARK    1  A    between atoms: C_1  and  O_2
REMARK    2  A    between atoms: O_2  and  C_3
REMARK    3  A    between atoms: C_6  and  C_7
REMARK    4  A    between atoms: C_8  and  C_9
REMARK    5  A    between atoms: C_12  and  N_13
REMARK    6  A    between atoms: C_14  and  C_15
REMARK    7  A    between atoms: C_21  and  O_22
REMARK    8  A    between atoms: O_22  and  C_23
REMARK                            x       y       z     vdW  Elec       q    Type
REMARK                         _______ _______ _______ _____ _____    ______ ____
ROOT
ATOM      1  C   UNL     1       2.628   6.715  18.869  0.00  0.00    +0.000 A 
ATOM      2  C   UNL     1       2.128   6.336  20.156  0.00  0.00    +0.000 A 
ATOM      3  C   UNL     1       2.289   5.073  20.923  0.00  0.00    +0.000 C 
ATOM      4  N   UNL     1       1.422   7.316  20.725  0.00  0.00    +0.000 NA
ATOM      5  N   UNL     1       1.503   8.356  19.859  0.00  0.00    +0.000 N 
ATOM      6  C   UNL     1       0.937   9.640  20.056  0.00  0.00    +0.000 A 
ATOM      7  C   UNL     1       1.075  10.539  19.061  0.00  0.00    +0.000 A 
ATOM      8  C   UNL     1       1.824  10.105  17.858  0.00  0.00    +0.000 A 
ATOM      9  N   UNL     1       2.356   8.933  17.673  0.00  0.00    +0.000 NA
ATOM     10  C   UNL     1       2.199   8.024  18.694  0.00  0.00    +0.000 A 
ENDROOT
BRANCH   1  14
ATOM     11  C   UNL     1       5.238   4.458  16.330  0.00  0.00    +0.000 A 
ATOM     12  C   UNL     1       5.299   5.857  16.350  0.00  0.00    +0.000 A 
ATOM     13  C   UNL     1       4.440   6.603  17.162  0.00  0.00    +0.000 A 
ATOM     14  C   UNL     1       3.454   5.971  17.924  0.00  0.00    +0.000 A 
ATOM     15  C   UNL     1       3.317   4.586  17.793  0.00  0.00    +0.000 A 
ATOM     16  C   UNL     1       4.208   3.814  17.028  0.00  0.00    +0.000 A 
BRANCH  11  18
ATOM     17  C   UNL     1       6.176   3.937  14.217  0.00  0.00    +0.000 C 
ATOM     18  O   UNL     1       6.150   3.717  15.627  0.00  0.00    +0.000 OA
ENDBRANCH  11  18
BRANCH  16  19
ATOM     19  O   UNL     1       3.932   2.478  17.131  0.00  0.00    +0.000 OA
ATOM     20  C   UNL     1       3.131   2.015  18.205  0.00  0.00    +0.000 C 
ENDBRANCH  16  19
ENDBRANCH   1  14
BRANCH   6  21
ATOM     21  N   UNL     1       0.287   9.859  21.272  0.00  0.00    +0.000 N 
ATOM     22  H   UNL     1      -0.662   9.469  21.267  0.00  0.00    +0.000 HD
ATOM     23  H   UNL     1       0.337  10.800  21.653  0.00  0.00    +0.000 HD
ENDBRANCH   6  21
BRANCH   7  24
ATOM     24  C   UNL     1       0.475  11.930  19.179  0.00  0.00    +0.000 C 
ATOM     25  N   UNL     1      -0.024  13.084  19.279  0.00  0.00    +0.000 NA
ENDBRANCH   7  24
TORSDOF 5
ENDMDL
MODEL 3
REMARK VINA RESULT:      -6.7      3.831      7.107
REMARK  Name = 
REMARK  8 active torsions:
REMARK  status: ('A' for Active; 'I' for Inactive)
REMARK    1  A    between atoms: C_1  and  O_2
REMARK    2  A    between atoms: O_2  and  C_3
REMARK    3  A    between atoms: C_6  and  C_7
REMARK    4  A    between atoms: C_8  and  C_9
REMARK    5  A    between atoms: C_12  and  N_13
REMARK    6  A    between atoms: C_14  and  C_15
REMARK    7  A    between atoms: C_21  and  O_22
REMARK    8  A    between atoms: O_22  and  C_23
REMARK                            x       y       z     vdW  Elec       q    Type
REMARK                         _______ _______ _______ _____ _____    ______ ____
ROOT
ATOM      1  C   UNL     1       2.528   6.670  19.055  0.00  0.00    +0.000 A 
ATOM      2  C   UNL     1       2.271   5.367  19.591  0.00  0.00    +0.000 A 
ATOM      3  C   UNL     1       1.338   4.929  20.663  0.00  0.00    +0.000 C 
ATOM      4  N   UNL     1       3.001   4.426  18.987  0.00  0.00    +0.000 NA
ATOM      5  N   UNL     1       3.688   5.082  18.020  0.00  0.00    +0.000 N 
ATOM      6  C   UNL     1       4.570   4.484  17.085  0.00  0.00    +0.000 A 
ATOM      7  C   UNL     1       5.208   5.302  16.223  0.00  0.00    +0.000 A 
ATOM      8  C   UNL     1       4.911   6.750  16.321  0.00  0.00    +0.000 A 
ATOM      9  N   UNL     1       4.095   7.305  17.167  0.00  0.00    +0.000 NA
ATOM     10  C   UNL     1       3.458   6.459  18.046  0.00  0.00    +0.000 A 
ENDROOT
BRANCH   1  14
ATOM     11  C   UNL     1       0.542  10.316  20.109  0.00  0.00    +0.000 A 
ATOM     12  C   UNL     1       0.806  10.011  18.767  0.00  0.00    +0.000 A 
ATOM     13  C   UNL     1       1.469   8.832  18.415  0.00  0.00    +0.000 A 
ATOM     14  C   UNL     1       1.943   7.961  19.399  0.00  0.00    +0.000 A 
ATOM     15  C   UNL     1       1.790   8.342  20.736  0.00  0.00    +0.000 A 
ATOM     16  C   UNL     1       1.076   9.492  21.109  0.00  0.00    +0.000 A 
BRANCH  11  18
ATOM     17  C   UNL     1      -1.375  11.637  19.668  0.00  0.00    +0.000 C 
ATOM     18  O   UNL     1      -0.206  11.409  20.456  0.00  0.00    +0.000 OA
ENDBRANCH  11  18
BRANCH  16  19
ATOM     19  O   UNL     1       0.977   9.604  22.469  0.00  0.00    +0.000 OA
ATOM     20  C   UNL     1      -0.289   9.451  23.088  0.00  0.00    +0.000 C 
ENDBRANCH  16  19
ENDBRANCH   1  14
BRANCH   6  21
ATOM     21  N   UNL     1       4.697   3.095  17.142  0.00  0.00    +0.000 N 
ATOM     22  H   UNL     1       5.557   2.815  17.627  0.00  0.00    +0.000 HD
ATOM     23  H   UNL     1       4.535   2.586  16.277  0.00  0.00    +0.000 HD
ENDBRANCH   6  21
BRANCH   7  24
ATOM     24  C   UNL     1       6.193   4.746  15.208  0.00  0.00    +0.000 C 
ATOM     25  N   UNL     1       7.010   4.284  14.365  0.00  0.00    +0.000 NA
ENDBRANCH   7  24
TORSDOF 5
ENDMDL
MODEL 4
REMARK VINA RESULT:      -6.7      3.590      6.941
REMARK  Name = 
REMARK  8 active torsions:
REMARK  status: ('A' for Active; 'I' for Inactive)
REMARK    1  A    between atoms: C_1  and  O_2
REMARK    2  A    between atoms: O_2  and  C_3
REMARK    3  A    between atoms: C_6  and  C_7
REMARK    4  A    between atoms: C_8  and  C_9
REMARK    5  A    between atoms: C_12  and  N_13
REMARK    6  A    between atoms: C_14  and  C_15
REMARK    7  A    between atoms: C_21  and  O_22
REMARK    8  A    between atoms: O_22  and  C_23
REMARK                            x       y       z     vdW  Elec       q    Type
REMARK                         _______ _______ _______ _____ _____    ______ ____
ROOT
ATOM      1  C   UNL     1       2.466   6.384  19.342  0.00  0.00    +0.000 A 
ATOM      2  C   UNL     1       2.191   4.999  19.575  0.00  0.00    +0.000 A 
ATOM      3  C   UNL     1       1.184   4.347  20.453  0.00  0.00    +0.000 C 
ATOM      4  N   UNL     1       2.986   4.203  18.854  0.00  0.00    +0.000 NA
ATOM      5  N   UNL     1       3.736   5.046  18.102  0.00  0.00    +0.000 N 
ATOM      6  C   UNL     1       4.702   4.656  17.141  0.00  0.00    +0.000 A 
ATOM      7  C   UNL     1       5.392   5.635  16.522  0.00  0.00    +0.000 A 
ATOM      8  C   UNL     1       5.061   7.031  16.890  0.00  0.00    +0.000 A 
ATOM      9  N   UNL     1       4.168   7.399  17.761  0.00  0.00    +0.000 NA
ATOM     10  C   UNL     1       3.479   6.389  18.391  0.00  0.00    +0.000 A 
ENDROOT
BRANCH   1  14
ATOM     11  C   UNL     1       0.880  10.012  20.977  0.00  0.00    +0.000 A 
ATOM     12  C   UNL     1       1.055   8.882  21.787  0.00  0.00    +0.000 A 
ATOM     13  C   UNL     1       1.555   7.689  21.258  0.00  0.00    +0.000 A 
ATOM     14  C   UNL     1       1.831   7.576  19.893  0.00  0.00    +0.000 A 
ATOM     15  C   UNL     1       1.528   8.668  19.074  0.00  0.00    +0.000 A 
ATOM     16  C   UNL     1       1.080   9.893  19.595  0.00  0.00    +0.000 A 
BRANCH  11  18
ATOM     17  C   UNL     1      -0.628  11.182  22.380  0.00  0.00    +0.000 C 
ATOM     18  O   UNL     1       0.501  11.216  21.508  0.00  0.00    +0.000 OA
ENDBRANCH  11  18
BRANCH  16  19
ATOM     19  O   UNL     1       0.945  10.837  18.615  0.00  0.00    +0.000 OA
ATOM     20  C   UNL     1       1.923  11.857  18.493  0.00  0.00    +0.000 C 
ENDBRANCH  16  19
ENDBRANCH   1  14
BRANCH   6  21
ATOM     21  N   UNL     1       4.851   3.285  16.922  0.00  0.00    +0.000 N 
ATOM     22  H   UNL     1       5.724   2.931  17.328  0.00  0.00    +0.000 HD
ATOM     23  H   UNL     1       4.679   2.953  15.977  0.00  0.00    +0.000 HD
ENDBRANCH   6  21
BRANCH   7  24
ATOM     24  C   UNL     1       6.466   5.303  15.499  0.00  0.00    +0.000 C 
ATOM     25  N   UNL     1       7.357   5.027  14.651  0.00  0.00    +0.000 NA
ENDBRANCH   7  24
TORSDOF 5
ENDMDL
MODEL 5
REMARK VINA RESULT:      -6.3      2.542      3.940
REMARK  Name = 
REMARK  8 active torsions:
REMARK  status: ('A' for Active; 'I' for Inactive)
REMARK    1  A    between atoms: C_1  and  O_2
REMARK    2  A    between atoms: O_2  and  C_3
REMARK    3  A    between atoms: C_6  and  C_7
REMARK    4  A    between atoms: C_8  and  C_9
REMARK    5  A    between atoms: C_12  and  N_13
REMARK    6  A    between atoms: C_14  and  C_15
REMARK    7  A    between atoms: C_21  and  O_22
REMARK    8  A    between atoms: O_22  and  C_23
REMARK                            x       y       z     vdW  Elec       q    Type
REMARK                         _______ _______ _______ _____ _____    ______ ____
ROOT
ATOM      1  C   UNL     1       2.092   7.484  19.607  0.00  0.00    +0.000 A 
ATOM      2  C   UNL     1       2.210   8.323  18.453  0.00  0.00    +0.000 A 
ATOM      3  C   UNL     1       2.795   8.049  17.113  0.00  0.00    +0.000 C 
ATOM      4  N   UNL     1       1.681   9.532  18.658  0.00  0.00    +0.000 NA
ATOM      5  N   UNL     1       1.161   9.479  19.909  0.00  0.00    +0.000 N 
ATOM      6  C   UNL     1       0.454  10.525  20.553  0.00  0.00    +0.000 A 
ATOM      7  C   UNL     1       0.052  10.313  21.822  0.00  0.00    +0.000 A 
ATOM      8  C   UNL     1       0.370   8.995  22.419  0.00  0.00    +0.000 A 
ATOM      9  N   UNL     1       1.007   8.026  21.833  0.00  0.00    +0.000 NA
ATOM     10  C   UNL     1       1.419   8.260  20.541  0.00  0.00    +0.000 A 
ENDROOT
BRANCH   1  14
ATOM     11  C   UNL     1       3.286   3.380  19.903  0.00  0.00    +0.000 A 
ATOM     12  C   UNL     1       1.985   3.771  20.248  0.00  0.00    +0.000 A 
ATOM     13  C   UNL     1       1.592   5.110  20.172  0.00  0.00    +0.000 A 
ATOM     14  C   UNL     1       2.508   6.101  19.812  0.00  0.00    +0.000 A 
ATOM     15  C   UNL     1       3.835   5.715  19.598  0.00  0.00    +0.000 A 
ATOM     16  C   UNL     1       4.235   4.369  19.613  0.00  0.00    +0.000 A 
BRANCH  11  18
ATOM     17  C   UNL     1       3.552   1.427  18.589  0.00  0.00    +0.000 C 
ATOM     18  O   UNL     1       3.645   2.060  19.865  0.00  0.00    +0.000 OA
ENDBRANCH  11  18
BRANCH  16  19
ATOM     19  O   UNL     1       5.556   4.233  19.282  0.00  0.00    +0.000 OA
ATOM     20  C   UNL     1       6.333   5.393  19.040  0.00  0.00    +0.000 C 
ENDBRANCH  16  19
ENDBRANCH   1  14
BRANCH   6  21
ATOM     21  N   UNL     1       0.237  11.686  19.809  0.00  0.00    +0.000 N 
ATOM     22  H   UNL     1       0.477  12.528  20.344  0.00  0.00    +0.000 HD
ATOM     23  H   UNL     1      -0.652  11.756  19.321  0.00  0.00    +0.000 HD
ENDBRANCH   6  21
BRANCH   7  24
ATOM     24  C   UNL     1      -0.687  11.393  22.595  0.00  0.00    +0.000 C 
ATOM     25  N   UNL     1      -1.300  12.289  23.237  0.00  0.00    +0.000 NA
ENDBRANCH   7  24
TORSDOF 5
ENDMDL
MODEL 6
REMARK VINA RESULT:      -6.3      2.072      2.929
REMARK  Name = 
REMARK  8 active torsions:
REMARK  status: ('A' for Active; 'I' for Inactive)
REMARK    1  A    between atoms: C_1  and  O_2
REMARK    2  A    between atoms: O_2  and  C_3
REMARK    3  A    between atoms: C_6  and  C_7
REMARK    4  A    between atoms: C_8  and  C_9
REMARK    5  A    between atoms: C_12  and  N_13
REMARK    6  A    between atoms: C_14  and  C_15
REMARK    7  A    between atoms: C_21  and  O_22
REMARK    8  A    between atoms: O_22  and  C_23
REMARK                            x       y       z     vdW  Elec       q    Type
REMARK                         _______ _______ _______ _____ _____    ______ ____
ROOT
ATOM      1  C   UNL     1       4.028   4.220  17.682  0.00  0.00    +0.000 A 
ATOM      2  C   UNL     1       3.451   3.009  18.184  0.00  0.00    +0.000 A 
ATOM      3  C   UNL     1       3.762   1.588  17.875  0.00  0.00    +0.000 C 
ATOM      4  N   UNL     1       2.493   3.248  19.084  0.00  0.00    +0.000 NA
ATOM      5  N   UNL     1       2.475   4.596  19.227  0.00  0.00    +0.000 N 
ATOM      6  C   UNL     1       1.642   5.320  20.116  0.00  0.00    +0.000 A 
ATOM      7  C   UNL     1       1.724   6.665  20.088  0.00  0.00    +0.000 A 
ATOM      8  C   UNL     1       2.695   7.262  19.142  0.00  0.00    +0.000 A 
ATOM      9  N   UNL     1       3.472   6.606  18.332  0.00  0.00    +0.000 NA
ATOM     10  C   UNL     1       3.370   5.234  18.365  0.00  0.00    +0.000 A 
ENDROOT
BRANCH   1  14
ATOM     11  C   UNL     1       7.029   5.054  14.741  0.00  0.00    +0.000 A 
ATOM     12  C   UNL     1       6.098   4.027  14.537  0.00  0.00    +0.000 A 
ATOM     13  C   UNL     1       5.126   3.736  15.499  0.00  0.00    +0.000 A 
ATOM     14  C   UNL     1       5.102   4.420  16.717  0.00  0.00    +0.000 A 
ATOM     15  C   UNL     1       6.117   5.351  16.961  0.00  0.00    +0.000 A 
ATOM     16  C   UNL     1       7.066   5.698  15.985  0.00  0.00    +0.000 A 
BRANCH  11  18
ATOM     17  C   UNL     1       7.618   4.931  12.450  0.00  0.00    +0.000 C 
ATOM     18  O   UNL     1       7.908   5.421  13.759  0.00  0.00    +0.000 OA
ENDBRANCH  11  18
BRANCH  16  19
ATOM     19  O   UNL     1       7.894   6.696  16.421  0.00  0.00    +0.000 OA
ATOM     20  C   UNL     1       7.509   7.478  17.539  0.00  0.00    +0.000 C 
ENDBRANCH  16  19
ENDBRANCH   1  14
BRANCH   6  21
ATOM     21  N   UNL     1       0.807   4.568  20.946  0.00  0.00    +0.000 N 
ATOM     22  H   UNL     1       1.345   3.936  21.549  0.00  0.00    +0.000 HD
ATOM     23  H   UNL     1       0.006   4.124  20.505  0.00  0.00    +0.000 HD
ENDBRANCH   6  21
BRANCH   7  24
ATOM     24  C   UNL     1       0.845   7.518  20.988  0.00  0.00    +0.000 C 
ATOM     25  N   UNL     1       0.115   8.225  21.735  0.00  0.00    +0.000 NA
ENDBRANCH   7  24
TORSDOF 5
ENDMDL
MODEL 7
REMARK VINA RESULT:      -6.1      3.652      6.935
REMARK  Name = 
REMARK  8 active torsions:
REMARK  status: ('A' for Active; 'I' for Inactive)
REMARK    1  A    between atoms: C_1  and  O_2
REMARK    2  A    between atoms: O_2  and  C_3
REMARK    3  A    between atoms: C_6  and  C_7
REMARK    4  A    between atoms: C_8  and  C_9
REMARK    5  A    between atoms: C_12  and  N_13
REMARK    6  A    between atoms: C_14  and  C_15
REMARK    7  A    between atoms: C_21  and  O_22
REMARK    8  A    between atoms: O_22  and  C_23
REMARK                            x       y       z     vdW  Elec       q    Type
REMARK                         _______ _______ _______ _____ _____    ______ ____
ROOT
ATOM      1  C   UNL     1       2.961   5.505  18.501  0.00  0.00    +0.000 A 
ATOM      2  C   UNL     1       2.800   4.084  18.560  0.00  0.00    +0.000 A 
ATOM      3  C   UNL     1       1.850   3.250  19.343  0.00  0.00    +0.000 C 
ATOM      4  N   UNL     1       3.655   3.449  17.753  0.00  0.00    +0.000 NA
ATOM      5  N   UNL     1       4.333   4.436  17.117  0.00  0.00    +0.000 N 
ATOM      6  C   UNL     1       5.326   4.246  16.123  0.00  0.00    +0.000 A 
ATOM      7  C   UNL     1       5.933   5.345  15.634  0.00  0.00    +0.000 A 
ATOM      8  C   UNL     1       5.491   6.654  16.168  0.00  0.00    +0.000 A 
ATOM      9  N   UNL     1       4.574   6.839  17.070  0.00  0.00    +0.000 NA
ATOM     10  C   UNL     1       3.969   5.707  17.566  0.00  0.00    +0.000 A 
ENDROOT
BRANCH   1  14
ATOM     11  C   UNL     1       1.095   8.748  20.587  0.00  0.00    +0.000 A 
ATOM     12  C   UNL     1       1.242   7.497  21.200  0.00  0.00    +0.000 A 
ATOM     13  C   UNL     1       1.833   6.428  20.521  0.00  0.00    +0.000 A 
ATOM     14  C   UNL     1       2.233   6.564  19.189  0.00  0.00    +0.000 A 
ATOM     15  C   UNL     1       1.962   7.777  18.548  0.00  0.00    +0.000 A 
ATOM     16  C   UNL     1       1.422   8.880  19.230  0.00  0.00    +0.000 A 
BRANCH  11  18
ATOM     17  C   UNL     1       0.279   9.589  22.645  0.00  0.00    +0.000 C 
ATOM     18  O   UNL     1       0.623   9.829  21.281  0.00  0.00    +0.000 OA
ENDBRANCH  11  18
BRANCH  16  19
ATOM     19  O   UNL     1       1.337   9.980  18.421  0.00  0.00    +0.000 OA
ATOM     20  C   UNL     1       0.084  10.620  18.249  0.00  0.00    +0.000 C 
ENDBRANCH  16  19
ENDBRANCH   1  14
BRANCH   6  21
ATOM     21  N   UNL     1       5.584   2.928  15.739  0.00  0.00    +0.000 N 
ATOM     22  H   UNL     1       6.314   2.502  16.321  0.00  0.00    +0.000 HD
ATOM     23  H   UNL     1       5.708   2.759  14.744  0.00  0.00    +0.000 HD
ENDBRANCH   6  21
BRANCH   7  24
ATOM     24  C   UNL     1       7.029   5.228  14.587  0.00  0.00    +0.000 C 
ATOM     25  N   UNL     1       7.938   5.131  13.719  0.00  0.00    +0.000 NA
ENDBRANCH   7  24
TORSDOF 5
ENDMDL
MODEL 8
REMARK VINA RESULT:      -6.1      4.434      7.423
REMARK  Name = 
REMARK  8 active torsions:
REMARK  status: ('A' for Active; 'I' for Inactive)
REMARK    1  A    between atoms: C_1  and  O_2
REMARK    2  A    between atoms: O_2  and  C_3
REMARK    3  A    between atoms: C_6  and  C_7
REMARK    4  A    between atoms: C_8  and  C_9
REMARK    5  A    between atoms: C_12  and  N_13
REMARK    6  A    between atoms: C_14  and  C_15
REMARK    7  A    between atoms: C_21  and  O_22
REMARK    8  A    between atoms: O_22  and  C_23
REMARK                            x       y       z     vdW  Elec       q    Type
REMARK                         _______ _______ _______ _____ _____    ______ ____
ROOT
ATOM      1  C   UNL     1       5.764   5.821  17.144  0.00  0.00    +0.000 A 
ATOM      2  C   UNL     1       6.954   6.617  17.118  0.00  0.00    +0.000 A 
ATOM      3  C   UNL     1       7.512   7.558  18.125  0.00  0.00    +0.000 C 
ATOM      4  N   UNL     1       7.649   6.439  15.991  0.00  0.00    +0.000 NA
ATOM      5  N   UNL     1       6.966   5.490  15.304  0.00  0.00    +0.000 N 
ATOM      6  C   UNL     1       7.349   4.940  14.055  0.00  0.00    +0.000 A 
ATOM      7  C   UNL     1       6.518   4.039  13.493  0.00  0.00    +0.000 A 
ATOM      8  C   UNL     1       5.289   3.693  14.244  0.00  0.00    +0.000 A 
ATOM      9  N   UNL     1       4.936   4.184  15.395  0.00  0.00    +0.000 NA
ATOM     10  C   UNL     1       5.789   5.108  15.952  0.00  0.00    +0.000 A 
ENDROOT
BRANCH   1  14
ATOM     11  C   UNL     1       2.601   5.264  19.979  0.00  0.00    +0.000 A 
ATOM     12  C   UNL     1       2.706   6.459  19.255  0.00  0.00    +0.000 A 
ATOM     13  C   UNL     1       3.745   6.656  18.341  0.00  0.00    +0.000 A 
ATOM     14  C   UNL     1       4.742   5.691  18.176  0.00  0.00    +0.000 A 
ATOM     15  C   UNL     1       4.698   4.562  19.000  0.00  0.00    +0.000 A 
ATOM     16  C   UNL     1       3.631   4.319  19.881  0.00  0.00    +0.000 A 
BRANCH  11  18
ATOM     17  C   UNL     1       0.696   3.920  20.402  0.00  0.00    +0.000 C 
ATOM     18  O   UNL     1       1.526   5.016  20.789  0.00  0.00    +0.000 OA
ENDBRANCH  11  18
BRANCH  16  19
ATOM     19  O   UNL     1       3.761   3.109  20.506  0.00  0.00    +0.000 OA
ATOM     20  C   UNL     1       4.434   2.053  19.841  0.00  0.00    +0.000 C 
ENDBRANCH  16  19
ENDBRANCH   1  14
BRANCH   6  21
ATOM     21  N   UNL     1       8.560   5.383  13.520  0.00  0.00    +0.000 N 
ATOM     22  H   UNL     1       8.412   6.017  12.727  0.00  0.00    +0.000 HD
ATOM     23  H   UNL     1       9.268   4.674  13.346  0.00  0.00    +0.000 HD
ENDBRANCH   6  21
BRANCH   7  24
ATOM     24  C   UNL     1       6.839   3.421  12.142  0.00  0.00    +0.000 C 
ATOM     25  N   UNL     1       7.106   2.909  11.021  0.00  0.00    +0.000 NA
ENDBRANCH   7  24
TORSDOF 5
ENDMDL
MODEL 9
REMARK VINA RESULT:      -6.0      4.422      8.197
REMARK  Name = 
REMARK  8 active torsions:
REMARK  status: ('A' for Active; 'I' for Inactive)
REMARK    1  A    between atoms: C_1  and  O_2
REMARK    2  A    between atoms: O_2  and  C_3
REMARK    3  A    between atoms: C_6  and  C_7
REMARK    4  A    between atoms: C_8  and  C_9
REMARK    5  A    between atoms: C_12  and  N_13
REMARK    6  A    between atoms: C_14  and  C_15
REMARK    7  A    between atoms: C_21  and  O_22
REMARK    8  A    between atoms: O_22  and  C_23
REMARK                            x       y       z     vdW  Elec       q    Type
REMARK                         _______ _______ _______ _____ _____    ______ ____
ROOT
ATOM      1  C   UNL     1       1.510   8.404  19.734  0.00  0.00    +0.000 A 
ATOM      2  C   UNL     1       2.118   8.779  18.493  0.00  0.00    +0.000 A 
ATOM      3  C   UNL     1       2.121  10.079  17.771  0.00  0.00    +0.000 C 
ATOM      4  N   UNL     1       2.794   7.767  17.942  0.00  0.00    +0.000 NA
ATOM      5  N   UNL     1       2.691   6.751  18.833  0.00  0.00    +0.000 N 
ATOM      6  C   UNL     1       3.290   5.473  18.699  0.00  0.00    +0.000 A 
ATOM      7  C   UNL     1       3.037   4.565  19.663  0.00  0.00    +0.000 A 
ATOM      8  C   UNL     1       2.171   4.995  20.785  0.00  0.00    +0.000 A 
ATOM      9  N   UNL     1       1.627   6.167  20.922  0.00  0.00    +0.000 NA
ATOM     10  C   UNL     1       1.886   7.081  19.926  0.00  0.00    +0.000 A 
ENDROOT
BRANCH   1  14
ATOM     11  C   UNL     1      -0.601  10.917  22.488  0.00  0.00    +0.000 A 
ATOM     12  C   UNL     1       0.019   9.740  22.928  0.00  0.00    +0.000 A 
ATOM     13  C   UNL     1       0.695   8.905  22.034  0.00  0.00    +0.000 A 
ATOM     14  C   UNL     1       0.712   9.191  20.667  0.00  0.00    +0.000 A 
ATOM     15  C   UNL     1      -0.021  10.296  20.223  0.00  0.00    +0.000 A 
ATOM     16  C   UNL     1      -0.657  11.179  21.112  0.00  0.00    +0.000 A 
BRANCH  11  18
ATOM     17  C   UNL     1      -2.591  11.841  23.380  0.00  0.00    +0.000 C 
ATOM     18  O   UNL     1      -1.164  11.797  23.371  0.00  0.00    +0.000 OA
ENDBRANCH  11  18
BRANCH  16  19
ATOM     19  O   UNL     1      -1.226  12.234  20.453  0.00  0.00    +0.000 OA
ATOM     20  C   UNL     1      -2.213  11.984  19.466  0.00  0.00    +0.000 C 
ENDBRANCH  16  19
ENDBRANCH   1  14
BRANCH   6  21
ATOM     21  N   UNL     1       4.093   5.272  17.575  0.00  0.00    +0.000 N 
ATOM     22  H   UNL     1       3.617   5.564  16.714  0.00  0.00    +0.000 HD
ATOM     23  H   UNL     1       4.552   4.368  17.498  0.00  0.00    +0.000 HD
ENDBRANCH   6  21
BRANCH   7  24
ATOM     24  C   UNL     1       3.617   3.162  19.582  0.00  0.00    +0.000 C 
ATOM     25  N   UNL     1       4.097   1.998  19.515  0.00  0.00    +0.000 NA
ENDBRANCH   7  24
TORSDOF 5
ENDMDL
