MODEL 1
REMARK VINA RESULT:      -7.5      0.000      0.000
REMARK  Name = 
REMARK  17 active torsions:
REMARK  status: ('A' for Active; 'I' for Inactive)
REMARK    1  A    between atoms: C_1  and  C_2
REMARK    2  A    between atoms: C_2  and  C_3
REMARK    3  A    between atoms: C_3  and  C_4
REMARK    4  A    between atoms: C_4  and  C_5
REMARK    5  A    between atoms: C_5  and  C_6
REMARK    6  A    between atoms: C_6  and  C_7
REMARK    7  A    between atoms: C_7  and  C_8
REMARK    8  A    between atoms: C_8  and  C_9
REMARK    9  A    between atoms: C_9  and  C_10
REMARK   10  A    between atoms: C_10  and  S_11
REMARK   11  A    between atoms: S_11  and  C_14
REMARK   12  A    between atoms: C_14  and  C_15
REMARK   13  A    between atoms: C_14  and  C_16
REMARK   14  A    between atoms: C_16  and  O_17
REMARK   15  A    between atoms: C_16  and  C_18
REMARK   16  A    between atoms: C_16  and  C_24
REMARK   17  A    between atoms: C_18  and  N_19
REMARK                            x       y       z     vdW  Elec       q    Type
REMARK                         _______ _______ _______ _____ _____    ______ ____
ROOT
ATOM      1  C   UNL     1       4.562   4.278  18.162  0.00  0.00    +0.000 C 
ENDROOT
BRANCH   1   2
ATOM      2  C   UNL     1       3.487   3.842  19.188  0.00  0.00    +0.000 A 
ATOM      3  C   UNL     1       3.135   4.645  20.293  0.00  0.00    +0.000 A 
ATOM      4  C   UNL     1       2.187   4.212  21.228  0.00  0.00    +0.000 A 
ATOM      5  C   UNL     1       1.580   2.970  21.078  0.00  0.00    +0.000 A 
ATOM      6  F   UNL     1       0.679   2.563  21.981  0.00  0.00    +0.000 F 
ATOM      7  C   UNL     1       1.909   2.150  20.017  0.00  0.00    +0.000 A 
ATOM      8  C   UNL     1       2.859   2.580  19.093  0.00  0.00    +0.000 A 
ATOM      9  F   UNL     1       3.186   1.732  18.109  0.00  0.00    +0.000 F 
ENDBRANCH   1   2
BRANCH   1  10
ATOM     10  C   UNL     1       5.234   5.594  18.684  0.00  0.00    +0.000 C 
ATOM     11  C   UNL     1       4.797   6.856  17.921  0.00  0.00    +0.000 C 
BRANCH  10  12
ATOM     12  S   UNL     1       7.051   5.592  18.668  0.00  0.00    +0.000 S 
ATOM     13  O   UNL     1       7.461   4.441  17.884  0.00  0.00    +0.000 OA
ATOM     14  O   UNL     1       7.507   5.706  20.045  0.00  0.00    +0.000 OA
BRANCH  12  15
ATOM     15  C   UNL     1       7.599   7.039  17.776  0.00  0.00    +0.000 C 
BRANCH  15  16
ATOM     16  C   UNL     1       8.427   7.963  18.673  0.00  0.00    +0.000 C 
BRANCH  16  17
ATOM     17  C   UNL     1       8.422   9.416  18.202  0.00  0.00    +0.000 C 
BRANCH  17  18
ATOM     18  C   UNL     1       9.286  10.319  19.081  0.00  0.00    +0.000 C 
BRANCH  18  19
ATOM     19  C   UNL     1      10.163  11.247  18.250  0.00  0.00    +0.000 C 
BRANCH  19  20
ATOM     20  C   UNL     1      11.443  11.582  19.013  0.00  0.00    +0.000 C 
BRANCH  20  21
ATOM     21  C   UNL     1      11.130  12.313  20.312  0.00  0.00    +0.000 C 
BRANCH  21  22
ATOM     22  C   UNL     1      10.570  13.705  20.030  0.00  0.00    +0.000 C 
BRANCH  22  24
ATOM     23  C   UNL     1      10.154  15.977  21.018  0.00  0.00    +0.000 C 
ATOM     24  C   UNL     1      10.465  14.521  21.316  0.00  0.00    +0.000 C 
ENDBRANCH  22  24
ENDBRANCH  21  22
ENDBRANCH  20  21
ENDBRANCH  19  20
ENDBRANCH  18  19
ENDBRANCH  17  18
ENDBRANCH  16  17
ENDBRANCH  15  16
ENDBRANCH  12  15
ENDBRANCH  10  12
ENDBRANCH   1  10
BRANCH   1  25
ATOM     25  O   UNL     1       5.578   3.260  18.171  0.00  0.00    +0.000 OA
ATOM     26  H   UNL     1       5.124   2.391  18.079  0.00  0.00    +0.000 HD
ENDBRANCH   1  25
BRANCH   1  27
ATOM     27  C   UNL     1       4.030   4.406  16.702  0.00  0.00    +0.000 C 
BRANCH  27  28
ATOM     28  N   UNL     1       5.049   4.487  15.668  0.00  0.00    +0.000 N 
ATOM     29  C   UNL     1       5.561   5.615  15.103  0.00  0.00    +0.000 A 
ATOM     30  N   UNL     1       6.623   5.305  14.398  0.00  0.00    +0.000 NA
ATOM     31  C   UNL     1       6.734   3.957  14.577  0.00  0.00    +0.000 A 
ATOM     32  N   UNL     1       5.776   3.402  15.328  0.00  0.00    +0.000 NA
ENDBRANCH  27  28
ENDBRANCH   1  27
TORSDOF 15
ENDMDL
MODEL 2
REMARK VINA RESULT:      -7.3      1.594      1.900
REMARK  Name = 
REMARK  17 active torsions:
REMARK  status: ('A' for Active; 'I' for Inactive)
REMARK    1  A    between atoms: C_1  and  C_2
REMARK    2  A    between atoms: C_2  and  C_3
REMARK    3  A    between atoms: C_3  and  C_4
REMARK    4  A    between atoms: C_4  and  C_5
REMARK    5  A    between atoms: C_5  and  C_6
REMARK    6  A    between atoms: C_6  and  C_7
REMARK    7  A    between atoms: C_7  and  C_8
REMARK    8  A    between atoms: C_8  and  C_9
REMARK    9  A    between atoms: C_9  and  C_10
REMARK   10  A    between atoms: C_10  and  S_11
REMARK   11  A    between atoms: S_11  and  C_14
REMARK   12  A    between atoms: C_14  and  C_15
REMARK   13  A    between atoms: C_14  and  C_16
REMARK   14  A    between atoms: C_16  and  O_17
REMARK   15  A    between atoms: C_16  and  C_18
REMARK   16  A    between atoms: C_16  and  C_24
REMARK   17  A    between atoms: C_18  and  N_19
REMARK                            x       y       z     vdW  Elec       q    Type
REMARK                         _______ _______ _______ _____ _____    ______ ____
ROOT
ATOM      1  C   UNL     1       5.110   4.313  17.417  0.00  0.00    +0.000 C 
ENDROOT
BRANCH   1   2
ATOM      2  C   UNL     1       3.744   3.676  17.770  0.00  0.00    +0.000 A 
ATOM      3  C   UNL     1       3.610   2.305  18.071  0.00  0.00    +0.000 A 
ATOM      4  C   UNL     1       2.357   1.745  18.350  0.00  0.00    +0.000 A 
ATOM      5  C   UNL     1       1.220   2.544  18.329  0.00  0.00    +0.000 A 
ATOM      6  F   UNL     1       0.025   1.997  18.592  0.00  0.00    +0.000 F 
ATOM      7  C   UNL     1       1.308   3.888  18.026  0.00  0.00    +0.000 A 
ATOM      8  C   UNL     1       2.555   4.440  17.739  0.00  0.00    +0.000 A 
ATOM      9  F   UNL     1       2.590   5.735  17.399  0.00  0.00    +0.000 F 
ENDBRANCH   1   2
BRANCH   1  10
ATOM     10  C   UNL     1       5.663   5.031  18.696  0.00  0.00    +0.000 C 
ATOM     11  C   UNL     1       4.925   6.336  19.040  0.00  0.00    +0.000 C 
BRANCH  10  12
ATOM     12  S   UNL     1       7.432   5.442  18.649  0.00  0.00    +0.000 S 
ATOM     13  O   UNL     1       8.067   4.458  17.791  0.00  0.00    +0.000 OA
ATOM     14  O   UNL     1       7.891   5.582  20.022  0.00  0.00    +0.000 OA
BRANCH  12  15
ATOM     15  C   UNL     1       7.612   7.021  17.835  0.00  0.00    +0.000 C 
BRANCH  15  16
ATOM     16  C   UNL     1       8.530   7.953  18.630  0.00  0.00    +0.000 C 
BRANCH  16  17
ATOM     17  C   UNL     1       8.431   9.412  18.186  0.00  0.00    +0.000 C 
BRANCH  17  18
ATOM     18  C   UNL     1       9.214  10.355  19.098  0.00  0.00    +0.000 C 
BRANCH  18  19
ATOM     19  C   UNL     1       9.658  11.613  18.362  0.00  0.00    +0.000 C 
BRANCH  19  20
ATOM     20  C   UNL     1      11.144  11.521  18.017  0.00  0.00    +0.000 C 
BRANCH  20  21
ATOM     21  C   UNL     1      11.916  12.696  18.605  0.00  0.00    +0.000 C 
BRANCH  21  22
ATOM     22  C   UNL     1      11.042  13.491  19.571  0.00  0.00    +0.000 C 
BRANCH  22  24
ATOM     23  C   UNL     1      10.720  15.982  19.568  0.00  0.00    +0.000 C 
ATOM     24  C   UNL     1      11.673  14.844  19.889  0.00  0.00    +0.000 C 
ENDBRANCH  22  24
ENDBRANCH  21  22
ENDBRANCH  20  21
ENDBRANCH  19  20
ENDBRANCH  18  19
ENDBRANCH  17  18
ENDBRANCH  16  17
ENDBRANCH  15  16
ENDBRANCH  12  15
ENDBRANCH  10  12
ENDBRANCH   1  10
BRANCH   1  25
ATOM     25  O   UNL     1       6.009   3.229  17.128  0.00  0.00    +0.000 OA
ATOM     26  H   UNL     1       5.499   2.391  17.220  0.00  0.00    +0.000 HD
ENDBRANCH   1  25
BRANCH   1  27
ATOM     27  C   UNL     1       5.072   5.245  16.167  0.00  0.00    +0.000 C 
BRANCH  27  28
ATOM     28  N   UNL     1       5.889   4.818  15.042  0.00  0.00    +0.000 N 
ATOM     29  C   UNL     1       5.501   4.046  13.989  0.00  0.00    +0.000 A 
ATOM     30  N   UNL     1       6.427   4.081  13.060  0.00  0.00    +0.000 NA
ATOM     31  C   UNL     1       7.370   4.913  13.590  0.00  0.00    +0.000 A 
ATOM     32  N   UNL     1       7.098   5.373  14.817  0.00  0.00    +0.000 NA
ENDBRANCH  27  28
ENDBRANCH   1  27
TORSDOF 15
ENDMDL
MODEL 3
REMARK VINA RESULT:      -7.2      3.250      4.651
REMARK  Name = 
REMARK  17 active torsions:
REMARK  status: ('A' for Active; 'I' for Inactive)
REMARK    1  A    between atoms: C_1  and  C_2
REMARK    2  A    between atoms: C_2  and  C_3
REMARK    3  A    between atoms: C_3  and  C_4
REMARK    4  A    between atoms: C_4  and  C_5
REMARK    5  A    between atoms: C_5  and  C_6
REMARK    6  A    between atoms: C_6  and  C_7
REMARK    7  A    between atoms: C_7  and  C_8
REMARK    8  A    between atoms: C_8  and  C_9
REMARK    9  A    between atoms: C_9  and  C_10
REMARK   10  A    between atoms: C_10  and  S_11
REMARK   11  A    between atoms: S_11  and  C_14
REMARK   12  A    between atoms: C_14  and  C_15
REMARK   13  A    between atoms: C_14  and  C_16
REMARK   14  A    between atoms: C_16  and  O_17
REMARK   15  A    between atoms: C_16  and  C_18
REMARK   16  A    between atoms: C_16  and  C_24
REMARK   17  A    between atoms: C_18  and  N_19
REMARK                            x       y       z     vdW  Elec       q    Type
REMARK                         _______ _______ _______ _____ _____    ______ ____
ROOT
ATOM      1  C   UNL     1       2.994   5.487  18.860  0.00  0.00    +0.000 C 
ENDROOT
BRANCH   1   2
ATOM      2  C   UNL     1       2.439   6.932  18.814  0.00  0.00    +0.000 A 
ATOM      3  C   UNL     1       2.587   7.757  17.679  0.00  0.00    +0.000 A 
ATOM      4  C   UNL     1       2.109   9.074  17.677  0.00  0.00    +0.000 A 
ATOM      5  C   UNL     1       1.482   9.587  18.806  0.00  0.00    +0.000 A 
ATOM      6  F   UNL     1       1.035  10.850  18.794  0.00  0.00    +0.000 F 
ATOM      7  C   UNL     1       1.331   8.815  19.940  0.00  0.00    +0.000 A 
ATOM      8  C   UNL     1       1.816   7.508  19.943  0.00  0.00    +0.000 A 
ATOM      9  F   UNL     1       1.695   6.811  21.080  0.00  0.00    +0.000 F 
ENDBRANCH   1   2
BRANCH   1  10
ATOM     10  C   UNL     1       3.553   5.130  17.439  0.00  0.00    +0.000 C 
ATOM     11  C   UNL     1       2.911   3.878  16.819  0.00  0.00    +0.000 C 
BRANCH  10  12
ATOM     12  S   UNL     1       5.350   4.876  17.358  0.00  0.00    +0.000 S 
ATOM     13  O   UNL     1       5.579   3.809  16.401  0.00  0.00    +0.000 OA
ATOM     14  O   UNL     1       5.838   4.720  18.719  0.00  0.00    +0.000 OA
BRANCH  12  15
ATOM     15  C   UNL     1       6.087   6.348  16.665  0.00  0.00    +0.000 C 
BRANCH  15  16
ATOM     16  C   UNL     1       6.352   7.398  17.747  0.00  0.00    +0.000 C 
BRANCH  16  17
ATOM     17  C   UNL     1       7.837   7.711  17.926  0.00  0.00    +0.000 C 
BRANCH  17  18
ATOM     18  C   UNL     1       8.159   9.182  17.672  0.00  0.00    +0.000 C 
BRANCH  18  19
ATOM     19  C   UNL     1       8.993   9.782  18.797  0.00  0.00    +0.000 C 
BRANCH  19  20
ATOM     20  C   UNL     1       9.431  11.198  18.427  0.00  0.00    +0.000 C 
BRANCH  20  21
ATOM     21  C   UNL     1      10.716  11.580  19.150  0.00  0.00    +0.000 C 
BRANCH  21  22
ATOM     22  C   UNL     1      10.452  11.826  20.633  0.00  0.00    +0.000 C 
BRANCH  22  24
ATOM     23  C   UNL     1      11.336  14.072  19.937  0.00  0.00    +0.000 C 
ATOM     24  C   UNL     1      10.499  13.317  20.955  0.00  0.00    +0.000 C 
ENDBRANCH  22  24
ENDBRANCH  21  22
ENDBRANCH  20  21
ENDBRANCH  19  20
ENDBRANCH  18  19
ENDBRANCH  17  18
ENDBRANCH  16  17
ENDBRANCH  15  16
ENDBRANCH  12  15
ENDBRANCH  10  12
ENDBRANCH   1  10
BRANCH   1  25
ATOM     25  O   UNL     1       4.118   5.504  19.756  0.00  0.00    +0.000 OA
ATOM     26  H   UNL     1       3.910   6.142  20.476  0.00  0.00    +0.000 HD
ENDBRANCH   1  25
BRANCH   1  27
ATOM     27  C   UNL     1       1.976   4.433  19.393  0.00  0.00    +0.000 C 
BRANCH  27  28
ATOM     28  N   UNL     1       2.460   3.580  20.466  0.00  0.00    +0.000 N 
ATOM     29  C   UNL     1       1.826   3.286  21.634  0.00  0.00    +0.000 A 
ATOM     30  N   UNL     1       2.451   2.300  22.233  0.00  0.00    +0.000 NA
ATOM     31  C   UNL     1       3.469   2.007  21.372  0.00  0.00    +0.000 A 
ATOM     32  N   UNL     1       3.533   2.783  20.283  0.00  0.00    +0.000 NA
ENDBRANCH  27  28
ENDBRANCH   1  27
TORSDOF 15
ENDMDL
MODEL 4
REMARK VINA RESULT:      -7.2      1.816      2.349
REMARK  Name = 
REMARK  17 active torsions:
REMARK  status: ('A' for Active; 'I' for Inactive)
REMARK    1  A    between atoms: C_1  and  C_2
REMARK    2  A    between atoms: C_2  and  C_3
REMARK    3  A    between atoms: C_3  and  C_4
REMARK    4  A    between atoms: C_4  and  C_5
REMARK    5  A    between atoms: C_5  and  C_6
REMARK    6  A    between atoms: C_6  and  C_7
REMARK    7  A    between atoms: C_7  and  C_8
REMARK    8  A    between atoms: C_8  and  C_9
REMARK    9  A    between atoms: C_9  and  C_10
REMARK   10  A    between atoms: C_10  and  S_11
REMARK   11  A    between atoms: S_11  and  C_14
REMARK   12  A    between atoms: C_14  and  C_15
REMARK   13  A    between atoms: C_14  and  C_16
REMARK   14  A    between atoms: C_16  and  O_17
REMARK   15  A    between atoms: C_16  and  C_18
REMARK   16  A    between atoms: C_16  and  C_24
REMARK   17  A    between atoms: C_18  and  N_19
REMARK                            x       y       z     vdW  Elec       q    Type
REMARK                         _______ _______ _______ _____ _____    ______ ____
ROOT
ATOM      1  C   UNL     1       5.040   4.437  16.629  0.00  0.00    +0.000 C 
ENDROOT
BRANCH   1   2
ATOM      2  C   UNL     1       3.801   3.804  17.307  0.00  0.00    +0.000 A 
ATOM      3  C   UNL     1       3.722   2.423  17.587  0.00  0.00    +0.000 A 
ATOM      4  C   UNL     1       2.574   1.868  18.167  0.00  0.00    +0.000 A 
ATOM      5  C   UNL     1       1.489   2.681  18.473  0.00  0.00    +0.000 A 
ATOM      6  F   UNL     1       0.394   2.138  19.023  0.00  0.00    +0.000 F 
ATOM      7  C   UNL     1       1.523   4.034  18.203  0.00  0.00    +0.000 A 
ATOM      8  C   UNL     1       2.663   4.582  17.617  0.00  0.00    +0.000 A 
ATOM      9  F   UNL     1       2.635   5.888  17.324  0.00  0.00    +0.000 F 
ENDBRANCH   1   2
BRANCH   1  10
ATOM     10  C   UNL     1       5.615   5.538  17.585  0.00  0.00    +0.000 C 
ATOM     11  C   UNL     1       5.065   6.948  17.306  0.00  0.00    +0.000 C 
BRANCH  10  12
ATOM     12  S   UNL     1       7.425   5.689  17.592  0.00  0.00    +0.000 S 
ATOM     13  O   UNL     1       7.811   6.156  16.273  0.00  0.00    +0.000 OA
ATOM     14  O   UNL     1       7.972   4.434  18.084  0.00  0.00    +0.000 OA
BRANCH  12  15
ATOM     15  C   UNL     1       7.870   6.981  18.741  0.00  0.00    +0.000 C 
BRANCH  15  16
ATOM     16  C   UNL     1       8.190   8.287  18.009  0.00  0.00    +0.000 C 
BRANCH  16  17
ATOM     17  C   UNL     1       8.841   9.335  18.911  0.00  0.00    +0.000 C 
BRANCH  17  18
ATOM     18  C   UNL     1       9.119  10.646  18.178  0.00  0.00    +0.000 C 
BRANCH  18  19
ATOM     19  C   UNL     1      10.303  11.391  18.782  0.00  0.00    +0.000 C 
BRANCH  19  20
ATOM     20  C   UNL     1      10.112  12.898  18.620  0.00  0.00    +0.000 C 
BRANCH  20  21
ATOM     21  C   UNL     1       9.852  13.565  19.965  0.00  0.00    +0.000 C 
BRANCH  21  22
ATOM     22  C   UNL     1       9.561  12.521  21.040  0.00  0.00    +0.000 C 
BRANCH  22  24
ATOM     23  C   UNL     1       8.511  12.133  23.289  0.00  0.00    +0.000 C 
ATOM     24  C   UNL     1       8.987  13.176  22.293  0.00  0.00    +0.000 C 
ENDBRANCH  22  24
ENDBRANCH  21  22
ENDBRANCH  20  21
ENDBRANCH  19  20
ENDBRANCH  18  19
ENDBRANCH  17  18
ENDBRANCH  16  17
ENDBRANCH  15  16
ENDBRANCH  12  15
ENDBRANCH  10  12
ENDBRANCH   1  10
BRANCH   1  25
ATOM     25  O   UNL     1       6.036   3.404  16.540  0.00  0.00    +0.000 OA
ATOM     26  H   UNL     1       5.600   2.554  16.780  0.00  0.00    +0.000 HD
ENDBRANCH   1  25
BRANCH   1  27
ATOM     27  C   UNL     1       4.773   4.966  15.187  0.00  0.00    +0.000 C 
BRANCH  27  28
ATOM     28  N   UNL     1       5.641   4.428  14.151  0.00  0.00    +0.000 N 
ATOM     29  C   UNL     1       5.303   3.549  13.167  0.00  0.00    +0.000 A 
ATOM     30  N   UNL     1       6.271   3.491  12.284  0.00  0.00    +0.000 NA
ATOM     31  C   UNL     1       7.188   4.377  12.767  0.00  0.00    +0.000 A 
ATOM     32  N   UNL     1       6.860   4.961  13.926  0.00  0.00    +0.000 NA
ENDBRANCH  27  28
ENDBRANCH   1  27
TORSDOF 15
ENDMDL
MODEL 5
REMARK VINA RESULT:      -7.2      2.603      3.785
REMARK  Name = 
REMARK  17 active torsions:
REMARK  status: ('A' for Active; 'I' for Inactive)
REMARK    1  A    between atoms: C_1  and  C_2
REMARK    2  A    between atoms: C_2  and  C_3
REMARK    3  A    between atoms: C_3  and  C_4
REMARK    4  A    between atoms: C_4  and  C_5
REMARK    5  A    between atoms: C_5  and  C_6
REMARK    6  A    between atoms: C_6  and  C_7
REMARK    7  A    between atoms: C_7  and  C_8
REMARK    8  A    between atoms: C_8  and  C_9
REMARK    9  A    between atoms: C_9  and  C_10
REMARK   10  A    between atoms: C_10  and  S_11
REMARK   11  A    between atoms: S_11  and  C_14
REMARK   12  A    between atoms: C_14  and  C_15
REMARK   13  A    between atoms: C_14  and  C_16
REMARK   14  A    between atoms: C_16  and  O_17
REMARK   15  A    between atoms: C_16  and  C_18
REMARK   16  A    between atoms: C_16  and  C_24
REMARK   17  A    between atoms: C_18  and  N_19
REMARK                            x       y       z     vdW  Elec       q    Type
REMARK                         _______ _______ _______ _____ _____    ______ ____
ROOT
ATOM      1  C   UNL     1       4.505   4.252  17.564  0.00  0.00    +0.000 C 
ENDROOT
BRANCH   1   2
ATOM      2  C   UNL     1       3.660   5.384  18.198  0.00  0.00    +0.000 A 
ATOM      3  C   UNL     1       3.217   6.497  17.453  0.00  0.00    +0.000 A 
ATOM      4  C   UNL     1       2.485   7.526  18.058  0.00  0.00    +0.000 A 
ATOM      5  C   UNL     1       2.189   7.463  19.414  0.00  0.00    +0.000 A 
ATOM      6  F   UNL     1       1.493   8.456  19.984  0.00  0.00    +0.000 F 
ATOM      7  C   UNL     1       2.616   6.396  20.180  0.00  0.00    +0.000 A 
ATOM      8  C   UNL     1       3.352   5.378  19.576  0.00  0.00    +0.000 A 
ATOM      9  F   UNL     1       3.791   4.388  20.365  0.00  0.00    +0.000 F 
ENDBRANCH   1   2
BRANCH   1  10
ATOM     10  C   UNL     1       5.376   4.872  16.417  0.00  0.00    +0.000 C 
ATOM     11  C   UNL     1       5.631   3.909  15.246  0.00  0.00    +0.000 C 
BRANCH  10  12
ATOM     12  S   UNL     1       7.003   5.493  16.932  0.00  0.00    +0.000 S 
ATOM     13  O   UNL     1       7.685   5.928  15.726  0.00  0.00    +0.000 OA
ATOM     14  O   UNL     1       7.624   4.474  17.765  0.00  0.00    +0.000 OA
BRANCH  12  15
ATOM     15  C   UNL     1       6.750   6.952  17.929  0.00  0.00    +0.000 C 
BRANCH  15  16
ATOM     16  C   UNL     1       7.668   8.094  17.485  0.00  0.00    +0.000 C 
BRANCH  16  17
ATOM     17  C   UNL     1       8.620   8.559  18.586  0.00  0.00    +0.000 C 
BRANCH  17  18
ATOM     18  C   UNL     1       8.902  10.059  18.520  0.00  0.00    +0.000 C 
BRANCH  18  19
ATOM     19  C   UNL     1       9.640  10.551  19.760  0.00  0.00    +0.000 C 
BRANCH  19  20
ATOM     20  C   UNL     1       9.139  11.941  20.150  0.00  0.00    +0.000 C 
BRANCH  20  21
ATOM     21  C   UNL     1       9.725  12.378  21.486  0.00  0.00    +0.000 C 
BRANCH  21  22
ATOM     22  C   UNL     1       8.929  13.541  22.073  0.00  0.00    +0.000 C 
BRANCH  22  24
ATOM     23  C   UNL     1       8.142  11.816  23.722  0.00  0.00    +0.000 C 
ATOM     24  C   UNL     1       8.554  13.265  23.527  0.00  0.00    +0.000 C 
ENDBRANCH  22  24
ENDBRANCH  21  22
ENDBRANCH  20  21
ENDBRANCH  19  20
ENDBRANCH  18  19
ENDBRANCH  17  18
ENDBRANCH  16  17
ENDBRANCH  15  16
ENDBRANCH  12  15
ENDBRANCH  10  12
ENDBRANCH   1  10
BRANCH   1  25
ATOM     25  O   UNL     1       5.417   3.800  18.580  0.00  0.00    +0.000 OA
ATOM     26  H   UNL     1       6.310   3.740  18.167  0.00  0.00    +0.000 HD
ENDBRANCH   1  25
BRANCH   1  27
ATOM     27  C   UNL     1       3.669   3.023  17.094  0.00  0.00    +0.000 C 
BRANCH  27  28
ATOM     28  N   UNL     1       2.556   2.655  17.955  0.00  0.00    +0.000 N 
ATOM     29  C   UNL     1       2.609   1.928  19.105  0.00  0.00    +0.000 A 
ATOM     30  N   UNL     1       1.457   2.013  19.727  0.00  0.00    +0.000 NA
ATOM     31  C   UNL     1       0.723   2.829  18.916  0.00  0.00    +0.000 A 
ATOM     32  N   UNL     1       1.345   3.230  17.801  0.00  0.00    +0.000 NA
ENDBRANCH  27  28
ENDBRANCH   1  27
TORSDOF 15
ENDMDL
MODEL 6
REMARK VINA RESULT:      -7.2      3.345      4.672
REMARK  Name = 
REMARK  17 active torsions:
REMARK  status: ('A' for Active; 'I' for Inactive)
REMARK    1  A    between atoms: C_1  and  C_2
REMARK    2  A    between atoms: C_2  and  C_3
REMARK    3  A    between atoms: C_3  and  C_4
REMARK    4  A    between atoms: C_4  and  C_5
REMARK    5  A    between atoms: C_5  and  C_6
REMARK    6  A    between atoms: C_6  and  C_7
REMARK    7  A    between atoms: C_7  and  C_8
REMARK    8  A    between atoms: C_8  and  C_9
REMARK    9  A    between atoms: C_9  and  C_10
REMARK   10  A    between atoms: C_10  and  S_11
REMARK   11  A    between atoms: S_11  and  C_14
REMARK   12  A    between atoms: C_14  and  C_15
REMARK   13  A    between atoms: C_14  and  C_16
REMARK   14  A    between atoms: C_16  and  O_17
REMARK   15  A    between atoms: C_16  and  C_18
REMARK   16  A    between atoms: C_16  and  C_24
REMARK   17  A    between atoms: C_18  and  N_19
REMARK                            x       y       z     vdW  Elec       q    Type
REMARK                         _______ _______ _______ _____ _____    ______ ____
ROOT
ATOM      1  C   UNL     1       3.076   5.703  18.915  0.00  0.00    +0.000 C 
ENDROOT
BRANCH   1   2
ATOM      2  C   UNL     1       2.464   7.122  18.829  0.00  0.00    +0.000 A 
ATOM      3  C   UNL     1       2.614   7.936  17.686  0.00  0.00    +0.000 A 
ATOM      4  C   UNL     1       2.082   9.231  17.647  0.00  0.00    +0.000 A 
ATOM      5  C   UNL     1       1.398   9.734  18.747  0.00  0.00    +0.000 A 
ATOM      6  F   UNL     1       0.899  10.976  18.701  0.00  0.00    +0.000 F 
ATOM      7  C   UNL     1       1.242   8.973  19.888  0.00  0.00    +0.000 A 
ATOM      8  C   UNL     1       1.781   7.688  19.928  0.00  0.00    +0.000 A 
ATOM      9  F   UNL     1       1.652   7.004  21.072  0.00  0.00    +0.000 F 
ENDBRANCH   1   2
BRANCH   1  10
ATOM     10  C   UNL     1       3.833   5.411  17.574  0.00  0.00    +0.000 C 
ATOM     11  C   UNL     1       3.421   4.088  16.907  0.00  0.00    +0.000 C 
BRANCH  10  12
ATOM     12  S   UNL     1       5.645   5.376  17.700  0.00  0.00    +0.000 S 
ATOM     13  O   UNL     1       6.150   5.033  16.383  0.00  0.00    +0.000 OA
ATOM     14  O   UNL     1       5.995   4.532  18.832  0.00  0.00    +0.000 OA
BRANCH  12  15
ATOM     15  C   UNL     1       6.208   7.035  18.046  0.00  0.00    +0.000 C 
BRANCH  15  16
ATOM     16  C   UNL     1       7.708   7.180  17.773  0.00  0.00    +0.000 C 
BRANCH  16  17
ATOM     17  C   UNL     1       8.106   8.594  17.352  0.00  0.00    +0.000 C 
BRANCH  17  18
ATOM     18  C   UNL     1       8.557   9.450  18.534  0.00  0.00    +0.000 C 
BRANCH  18  19
ATOM     19  C   UNL     1       9.546  10.528  18.107  0.00  0.00    +0.000 C 
BRANCH  19  20
ATOM     20  C   UNL     1       9.208  11.850  18.794  0.00  0.00    +0.000 C 
BRANCH  20  21
ATOM     21  C   UNL     1      10.365  12.326  19.665  0.00  0.00    +0.000 C 
BRANCH  21  22
ATOM     22  C   UNL     1      10.157  11.907  21.118  0.00  0.00    +0.000 C 
BRANCH  22  24
ATOM     23  C   UNL     1       8.678  12.410  23.085  0.00  0.00    +0.000 C 
ATOM     24  C   UNL     1       9.425  12.994  21.899  0.00  0.00    +0.000 C 
ENDBRANCH  22  24
ENDBRANCH  21  22
ENDBRANCH  20  21
ENDBRANCH  19  20
ENDBRANCH  18  19
ENDBRANCH  17  18
ENDBRANCH  16  17
ENDBRANCH  15  16
ENDBRANCH  12  15
ENDBRANCH  10  12
ENDBRANCH   1  10
BRANCH   1  25
ATOM     25  O   UNL     1       4.071   5.744  19.953  0.00  0.00    +0.000 OA
ATOM     26  H   UNL     1       3.755   6.377  20.638  0.00  0.00    +0.000 HD
ENDBRANCH   1  25
BRANCH   1  27
ATOM     27  C   UNL     1       2.049   4.590  19.286  0.00  0.00    +0.000 C 
BRANCH  27  28
ATOM     28  N   UNL     1       2.443   3.711  20.376  0.00  0.00    +0.000 N 
ATOM     29  C   UNL     1       1.766   3.482  21.535  0.00  0.00    +0.000 A 
ATOM     30  N   UNL     1       2.297   2.453  22.153  0.00  0.00    +0.000 NA
ATOM     31  C   UNL     1       3.302   2.069  21.314  0.00  0.00    +0.000 A 
ATOM     32  N   UNL     1       3.449   2.825  20.219  0.00  0.00    +0.000 NA
ENDBRANCH  27  28
ENDBRANCH   1  27
TORSDOF 15
ENDMDL
MODEL 7
REMARK VINA RESULT:      -7.1      3.207      4.174
REMARK  Name = 
REMARK  17 active torsions:
REMARK  status: ('A' for Active; 'I' for Inactive)
REMARK    1  A    between atoms: C_1  and  C_2
REMARK    2  A    between atoms: C_2  and  C_3
REMARK    3  A    between atoms: C_3  and  C_4
REMARK    4  A    between atoms: C_4  and  C_5
REMARK    5  A    between atoms: C_5  and  C_6
REMARK    6  A    between atoms: C_6  and  C_7
REMARK    7  A    between atoms: C_7  and  C_8
REMARK    8  A    between atoms: C_8  and  C_9
REMARK    9  A    between atoms: C_9  and  C_10
REMARK   10  A    between atoms: C_10  and  S_11
REMARK   11  A    between atoms: S_11  and  C_14
REMARK   12  A    between atoms: C_14  and  C_15
REMARK   13  A    between atoms: C_14  and  C_16
REMARK   14  A    between atoms: C_16  and  O_17
REMARK   15  A    between atoms: C_16  and  C_18
REMARK   16  A    between atoms: C_16  and  C_24
REMARK   17  A    between atoms: C_18  and  N_19
REMARK                            x       y       z     vdW  Elec       q    Type
REMARK                         _______ _______ _______ _____ _____    ______ ____
ROOT
ATOM      1  C   UNL     1       3.251   6.034  18.753  0.00  0.00    +0.000 C 
ENDROOT
BRANCH   1   2
ATOM      2  C   UNL     1       2.455   7.265  19.251  0.00  0.00    +0.000 A 
ATOM      3  C   UNL     1       2.009   7.381  20.584  0.00  0.00    +0.000 A 
ATOM      4  C   UNL     1       1.258   8.487  21.001  0.00  0.00    +0.000 A 
ATOM      5  C   UNL     1       0.938   9.490  20.094  0.00  0.00    +0.000 A 
ATOM      6  F   UNL     1       0.214  10.541  20.502  0.00  0.00    +0.000 F 
ATOM      7  C   UNL     1       1.344   9.406  18.777  0.00  0.00    +0.000 A 
ATOM      8  C   UNL     1       2.083   8.299  18.363  0.00  0.00    +0.000 A 
ATOM      9  F   UNL     1       2.413   8.231  17.067  0.00  0.00    +0.000 F 
ENDBRANCH   1   2
BRANCH   1  10
ATOM     10  C   UNL     1       4.575   6.542  18.085  0.00  0.00    +0.000 C 
ATOM     11  C   UNL     1       4.482   6.684  16.556  0.00  0.00    +0.000 C 
BRANCH  10  12
ATOM     12  S   UNL     1       6.046   5.529  18.416  0.00  0.00    +0.000 S 
ATOM     13  O   UNL     1       5.803   4.230  17.814  0.00  0.00    +0.000 OA
ATOM     14  O   UNL     1       6.326   5.605  19.841  0.00  0.00    +0.000 OA
BRANCH  12  15
ATOM     15  C   UNL     1       7.424   6.248  17.536  0.00  0.00    +0.000 C 
BRANCH  15  16
ATOM     16  C   UNL     1       8.185   7.243  18.416  0.00  0.00    +0.000 C 
BRANCH  16  17
ATOM     17  C   UNL     1       8.069   8.686  17.927  0.00  0.00    +0.000 C 
BRANCH  17  18
ATOM     18  C   UNL     1       8.897   9.656  18.768  0.00  0.00    +0.000 C 
BRANCH  18  19
ATOM     19  C   UNL     1       9.339  10.870  17.959  0.00  0.00    +0.000 C 
BRANCH  19  20
ATOM     20  C   UNL     1       9.176  12.141  18.790  0.00  0.00    +0.000 C 
BRANCH  20  21
ATOM     21  C   UNL     1       9.331  11.846  20.277  0.00  0.00    +0.000 C 
BRANCH  21  22
ATOM     22  C   UNL     1      10.627  12.445  20.817  0.00  0.00    +0.000 C 
BRANCH  22  24
ATOM     23  C   UNL     1       9.289  14.202  22.013  0.00  0.00    +0.000 C 
ATOM     24  C   UNL     1      10.465  13.938  21.089  0.00  0.00    +0.000 C 
ENDBRANCH  22  24
ENDBRANCH  21  22
ENDBRANCH  20  21
ENDBRANCH  19  20
ENDBRANCH  18  19
ENDBRANCH  17  18
ENDBRANCH  16  17
ENDBRANCH  15  16
ENDBRANCH  12  15
ENDBRANCH  10  12
ENDBRANCH   1  10
BRANCH   1  25
ATOM     25  O   UNL     1       3.635   5.289  19.921  0.00  0.00    +0.000 OA
ATOM     26  H   UNL     1       4.052   4.452  19.612  0.00  0.00    +0.000 HD
ENDBRANCH   1  25
BRANCH   1  27
ATOM     27  C   UNL     1       2.433   5.081  17.829  0.00  0.00    +0.000 C 
BRANCH  27  28
ATOM     28  N   UNL     1       1.878   3.903  18.477  0.00  0.00    +0.000 N 
ATOM     29  C   UNL     1       1.092   3.867  19.587  0.00  0.00    +0.000 A 
ATOM     30  N   UNL     1       0.587   2.664  19.725  0.00  0.00    +0.000 NA
ATOM     31  C   UNL     1       1.087   1.991  18.649  0.00  0.00    +0.000 A 
ATOM     32  N   UNL     1       1.906   2.700  17.865  0.00  0.00    +0.000 NA
ENDBRANCH  27  28
ENDBRANCH   1  27
TORSDOF 15
ENDMDL
MODEL 8
REMARK VINA RESULT:      -7.0      4.223      7.299
REMARK  Name = 
REMARK  17 active torsions:
REMARK  status: ('A' for Active; 'I' for Inactive)
REMARK    1  A    between atoms: C_1  and  C_2
REMARK    2  A    between atoms: C_2  and  C_3
REMARK    3  A    between atoms: C_3  and  C_4
REMARK    4  A    between atoms: C_4  and  C_5
REMARK    5  A    between atoms: C_5  and  C_6
REMARK    6  A    between atoms: C_6  and  C_7
REMARK    7  A    between atoms: C_7  and  C_8
REMARK    8  A    between atoms: C_8  and  C_9
REMARK    9  A    between atoms: C_9  and  C_10
REMARK   10  A    between atoms: C_10  and  S_11
REMARK   11  A    between atoms: S_11  and  C_14
REMARK   12  A    between atoms: C_14  and  C_15
REMARK   13  A    between atoms: C_14  and  C_16
REMARK   14  A    between atoms: C_16  and  O_17
REMARK   15  A    between atoms: C_16  and  C_18
REMARK   16  A    between atoms: C_16  and  C_24
REMARK   17  A    between atoms: C_18  and  N_19
REMARK                            x       y       z     vdW  Elec       q    Type
REMARK                         _______ _______ _______ _____ _____    ______ ____
ROOT
ATOM      1  C   UNL     1       5.871   5.729  17.333  0.00  0.00    +0.000 C 
ENDROOT
BRANCH   1   2
ATOM      2  C   UNL     1       6.825   6.869  17.765  0.00  0.00    +0.000 A 
ATOM      3  C   UNL     1       6.792   8.144  17.161  0.00  0.00    +0.000 A 
ATOM      4  C   UNL     1       7.691   9.148  17.544  0.00  0.00    +0.000 A 
ATOM      5  C   UNL     1       8.637   8.893  18.531  0.00  0.00    +0.000 A 
ATOM      6  F   UNL     1       9.495   9.859  18.885  0.00  0.00    +0.000 F 
ATOM      7  C   UNL     1       8.708   7.655  19.136  0.00  0.00    +0.000 A 
ATOM      8  C   UNL     1       7.819   6.655  18.746  0.00  0.00    +0.000 A 
ATOM      9  F   UNL     1       7.956   5.453  19.320  0.00  0.00    +0.000 F 
ENDBRANCH   1   2
BRANCH   1  10
ATOM     10  C   UNL     1       4.879   5.445  18.513  0.00  0.00    +0.000 C 
ATOM     11  C   UNL     1       4.713   3.950  18.835  0.00  0.00    +0.000 C 
BRANCH  10  12
ATOM     12  S   UNL     1       3.202   6.108  18.289  0.00  0.00    +0.000 S 
ATOM     13  O   UNL     1       2.448   5.101  17.564  0.00  0.00    +0.000 OA
ATOM     14  O   UNL     1       3.325   7.442  17.721  0.00  0.00    +0.000 OA
BRANCH  12  15
ATOM     15  C   UNL     1       2.444   6.252  19.899  0.00  0.00    +0.000 C 
BRANCH  15  16
ATOM     16  C   UNL     1       1.913   7.668  20.137  0.00  0.00    +0.000 C 
BRANCH  16  17
ATOM     17  C   UNL     1       1.010   7.771  21.365  0.00  0.00    +0.000 C 
BRANCH  17  18
ATOM     18  C   UNL     1       1.199   9.084  22.122  0.00  0.00    +0.000 C 
BRANCH  18  19
ATOM     19  C   UNL     1      -0.025   9.437  22.958  0.00  0.00    +0.000 C 
BRANCH  19  20
ATOM     20  C   UNL     1      -0.590  10.786  22.517  0.00  0.00    +0.000 C 
BRANCH  20  21
ATOM     21  C   UNL     1       0.028  11.233  21.198  0.00  0.00    +0.000 C 
BRANCH  21  22
ATOM     22  C   UNL     1      -0.966  11.074  20.051  0.00  0.00    +0.000 C 
BRANCH  22  24
ATOM     23  C   UNL     1       1.239  11.061  18.847  0.00  0.00    +0.000 C 
ATOM     24  C   UNL     1      -0.244  10.750  18.746  0.00  0.00    +0.000 C 
ENDBRANCH  22  24
ENDBRANCH  21  22
ENDBRANCH  20  21
ENDBRANCH  19  20
ENDBRANCH  18  19
ENDBRANCH  17  18
ENDBRANCH  16  17
ENDBRANCH  15  16
ENDBRANCH  12  15
ENDBRANCH  10  12
ENDBRANCH   1  10
BRANCH   1  25
ATOM     25  O   UNL     1       5.085   6.238  16.242  0.00  0.00    +0.000 OA
ATOM     26  H   UNL     1       4.618   5.473  15.834  0.00  0.00    +0.000 HD
ENDBRANCH   1  25
BRANCH   1  27
ATOM     27  C   UNL     1       6.602   4.445  16.834  0.00  0.00    +0.000 C 
BRANCH  27  28
ATOM     28  N   UNL     1       6.806   4.359  15.396  0.00  0.00    +0.000 N 
ATOM     29  C   UNL     1       6.098   3.608  14.508  0.00  0.00    +0.000 A 
ATOM     30  N   UNL     1       6.405   3.975  13.286  0.00  0.00    +0.000 NA
ATOM     31  C   UNL     1       7.306   4.981  13.479  0.00  0.00    +0.000 A 
ATOM     32  N   UNL     1       7.606   5.238  14.758  0.00  0.00    +0.000 NA
ENDBRANCH  27  28
ENDBRANCH   1  27
TORSDOF 15
ENDMDL
MODEL 9
REMARK VINA RESULT:      -7.0      2.755      3.938
REMARK  Name = 
REMARK  17 active torsions:
REMARK  status: ('A' for Active; 'I' for Inactive)
REMARK    1  A    between atoms: C_1  and  C_2
REMARK    2  A    between atoms: C_2  and  C_3
REMARK    3  A    between atoms: C_3  and  C_4
REMARK    4  A    between atoms: C_4  and  C_5
REMARK    5  A    between atoms: C_5  and  C_6
REMARK    6  A    between atoms: C_6  and  C_7
REMARK    7  A    between atoms: C_7  and  C_8
REMARK    8  A    between atoms: C_8  and  C_9
REMARK    9  A    between atoms: C_9  and  C_10
REMARK   10  A    between atoms: C_10  and  S_11
REMARK   11  A    between atoms: S_11  and  C_14
REMARK   12  A    between atoms: C_14  and  C_15
REMARK   13  A    between atoms: C_14  and  C_16
REMARK   14  A    between atoms: C_16  and  O_17
REMARK   15  A    between atoms: C_16  and  C_18
REMARK   16  A    between atoms: C_16  and  C_24
REMARK   17  A    between atoms: C_18  and  N_19
REMARK                            x       y       z     vdW  Elec       q    Type
REMARK                         _______ _______ _______ _____ _____    ______ ____
ROOT
ATOM      1  C   UNL     1       4.065   5.372  17.820  0.00  0.00    +0.000 C 
ENDROOT
BRANCH   1   2
ATOM      2  C   UNL     1       3.212   6.587  18.258  0.00  0.00    +0.000 A 
ATOM      3  C   UNL     1       3.006   7.702  17.418  0.00  0.00    +0.000 A 
ATOM      4  C   UNL     1       2.262   8.806  17.852  0.00  0.00    +0.000 A 
ATOM      5  C   UNL     1       1.717   8.816  19.130  0.00  0.00    +0.000 A 
ATOM      6  F   UNL     1       1.011   9.880  19.537  0.00  0.00    +0.000 F 
ATOM      7  C   UNL     1       1.908   7.750  19.986  0.00  0.00    +0.000 A 
ATOM      8  C   UNL     1       2.657   6.657  19.555  0.00  0.00    +0.000 A 
ATOM      9  F   UNL     1       2.861   5.668  20.434  0.00  0.00    +0.000 F 
ENDBRANCH   1   2
BRANCH   1  10
ATOM     10  C   UNL     1       5.046   5.840  16.690  0.00  0.00    +0.000 C 
ATOM     11  C   UNL     1       5.052   4.922  15.456  0.00  0.00    +0.000 C 
BRANCH  10  12
ATOM     12  S   UNL     1       6.780   6.023  17.200  0.00  0.00    +0.000 S 
ATOM     13  O   UNL     1       7.569   6.087  15.983  0.00  0.00    +0.000 OA
ATOM     14  O   UNL     1       7.069   4.981  18.173  0.00  0.00    +0.000 OA
BRANCH  12  15
ATOM     15  C   UNL     1       6.957   7.606  18.006  0.00  0.00    +0.000 C 
BRANCH  15  16
ATOM     16  C   UNL     1       8.172   8.368  17.471  0.00  0.00    +0.000 C 
BRANCH  16  17
ATOM     17  C   UNL     1       8.270   9.795  18.011  0.00  0.00    +0.000 C 
BRANCH  17  18
ATOM     18  C   UNL     1       9.253   9.914  19.174  0.00  0.00    +0.000 C 
BRANCH  18  19
ATOM     19  C   UNL     1       9.866  11.306  19.256  0.00  0.00    +0.000 C 
BRANCH  19  20
ATOM     20  C   UNL     1      10.180  11.656  20.710  0.00  0.00    +0.000 C 
BRANCH  20  21
ATOM     21  C   UNL     1       9.297  12.796  21.202  0.00  0.00    +0.000 C 
BRANCH  21  22
ATOM     22  C   UNL     1      10.131  14.040  21.495  0.00  0.00    +0.000 C 
BRANCH  22  24
ATOM     23  C   UNL     1      11.744  14.902  19.773  0.00  0.00    +0.000 C 
ATOM     24  C   UNL     1      10.299  14.892  20.240  0.00  0.00    +0.000 C 
ENDBRANCH  22  24
ENDBRANCH  21  22
ENDBRANCH  20  21
ENDBRANCH  19  20
ENDBRANCH  18  19
ENDBRANCH  17  18
ENDBRANCH  16  17
ENDBRANCH  15  16
ENDBRANCH  12  15
ENDBRANCH  10  12
ENDBRANCH   1  10
BRANCH   1  25
ATOM     25  O   UNL     1       4.876   5.007  18.949  0.00  0.00    +0.000 OA
ATOM     26  H   UNL     1       4.372   5.242  19.762  0.00  0.00    +0.000 HD
ENDBRANCH   1  25
BRANCH   1  27
ATOM     27  C   UNL     1       3.226   4.122  17.414  0.00  0.00    +0.000 C 
BRANCH  27  28
ATOM     28  N   UNL     1       2.465   3.501  18.487  0.00  0.00    +0.000 N 
ATOM     29  C   UNL     1       1.110   3.436  18.604  0.00  0.00    +0.000 A 
ATOM     30  N   UNL     1       0.796   2.594  19.559  0.00  0.00    +0.000 NA
ATOM     31  C   UNL     1       2.010   2.148  19.994  0.00  0.00    +0.000 A 
ATOM     32  N   UNL     1       3.068   2.695  19.384  0.00  0.00    +0.000 NA
ENDBRANCH  27  28
ENDBRANCH   1  27
TORSDOF 15
ENDMDL
