MODEL 1
REMARK VINA RESULT:      -7.7      0.000      0.000
REMARK  Name = 
REMARK  7 active torsions:
REMARK  status: ('A' for Active; 'I' for Inactive)
REMARK    1  A    between atoms: C_1  and  N_2
REMARK    2  A    between atoms: N_2  and  C_3
REMARK    3  A    between atoms: N_2  and  S_4
REMARK    4  A    between atoms: S_4  and  N_7
REMARK    5  A    between atoms: N_7  and  C_8
REMARK    6  A    between atoms: C_8  and  C_9
REMARK    7  A    between atoms: C_8  and  C_15
REMARK                            x       y       z     vdW  Elec       q    Type
REMARK                         _______ _______ _______ _____ _____    ______ ____
ROOT
ATOM      1  C   UNL     1       3.757   5.868  17.657  0.00  0.00    +0.000 C 
ENDROOT
BRANCH   1   2
ATOM      2  C   UNL     1       3.245   4.488  18.046  0.00  0.00    +0.000 A 
ATOM      3  C   UNL     1       1.916   4.105  17.799  0.00  0.00    +0.000 A 
ATOM      4  C   UNL     1       1.427   2.885  18.263  0.00  0.00    +0.000 A 
ATOM      5  C   UNL     1       2.270   2.009  18.942  0.00  0.00    +0.000 A 
ATOM      6  C   UNL     1       3.606   2.347  19.144  0.00  0.00    +0.000 A 
ATOM      7  C   UNL     1       4.093   3.578  18.699  0.00  0.00    +0.000 A 
ENDBRANCH   1   2
BRANCH   1   8
ATOM      8  C   UNL     1       2.924   6.979  18.306  0.00  0.00    +0.000 A 
ATOM      9  C   UNL     1       2.501   6.874  19.642  0.00  0.00    +0.000 A 
ATOM     10  C   UNL     1       1.731   7.883  20.228  0.00  0.00    +0.000 A 
ATOM     11  C   UNL     1       1.379   9.013  19.491  0.00  0.00    +0.000 A 
ATOM     12  C   UNL     1       1.798   9.138  18.170  0.00  0.00    +0.000 A 
ATOM     13  C   UNL     1       2.563   8.128  17.581  0.00  0.00    +0.000 A 
ENDBRANCH   1   8
BRANCH   1  14
ATOM     14  N   UNL     1       5.207   6.090  17.945  0.00  0.00    +0.000 NA
ATOM     15  H   UNL     1       5.287   6.825  18.648  0.00  0.00    +0.000 HD
BRANCH  14  16
ATOM     16  S   UNL     1       6.127   6.595  16.636  0.00  0.00    +0.000 S 
ATOM     17  O   UNL     1       6.964   7.669  17.104  0.00  0.00    +0.000 OA
ATOM     18  O   UNL     1       5.328   6.712  15.444  0.00  0.00    +0.000 OA
BRANCH  16  20
ATOM     19  C   UNL     1       7.598   4.634  17.726  0.00  0.00    +0.000 C 
ATOM     20  N   UNL     1       7.089   5.207  16.456  0.00  0.00    +0.000 NA
ATOM     21  C   UNL     1       6.414   4.165  15.642  0.00  0.00    +0.000 C 
ENDBRANCH  16  20
ENDBRANCH  14  16
ENDBRANCH   1  14
TORSDOF 5
ENDMDL
MODEL 2
REMARK VINA RESULT:      -7.7      0.035      1.079
REMARK  Name = 
REMARK  7 active torsions:
REMARK  status: ('A' for Active; 'I' for Inactive)
REMARK    1  A    between atoms: C_1  and  N_2
REMARK    2  A    between atoms: N_2  and  C_3
REMARK    3  A    between atoms: N_2  and  S_4
REMARK    4  A    between atoms: S_4  and  N_7
REMARK    5  A    between atoms: N_7  and  C_8
REMARK    6  A    between atoms: C_8  and  C_9
REMARK    7  A    between atoms: C_8  and  C_15
REMARK                            x       y       z     vdW  Elec       q    Type
REMARK                         _______ _______ _______ _____ _____    ______ ____
ROOT
ATOM      1  C   UNL     1       3.773   5.856  17.657  0.00  0.00    +0.000 C 
ENDROOT
BRANCH   1   2
ATOM      2  C   UNL     1       3.261   4.478  18.053  0.00  0.00    +0.000 A 
ATOM      3  C   UNL     1       1.935   4.089  17.796  0.00  0.00    +0.000 A 
ATOM      4  C   UNL     1       1.445   2.872  18.266  0.00  0.00    +0.000 A 
ATOM      5  C   UNL     1       2.284   2.005  18.962  0.00  0.00    +0.000 A 
ATOM      6  C   UNL     1       3.617   2.348  19.175  0.00  0.00    +0.000 A 
ATOM      7  C   UNL     1       4.105   3.576  18.723  0.00  0.00    +0.000 A 
ENDBRANCH   1   2
BRANCH   1   8
ATOM      8  C   UNL     1       2.935   6.971  18.292  0.00  0.00    +0.000 A 
ATOM      9  C   UNL     1       2.583   8.116  17.556  0.00  0.00    +0.000 A 
ATOM     10  C   UNL     1       1.829   9.136  18.142  0.00  0.00    +0.000 A 
ATOM     11  C   UNL     1       1.410   9.025  19.467  0.00  0.00    +0.000 A 
ATOM     12  C   UNL     1       1.740   7.895  20.207  0.00  0.00    +0.000 A 
ATOM     13  C   UNL     1       2.499   6.876  19.625  0.00  0.00    +0.000 A 
ENDBRANCH   1   8
BRANCH   1  14
ATOM     14  N   UNL     1       5.221   6.082  17.950  0.00  0.00    +0.000 NA
ATOM     15  H   UNL     1       5.295   6.809  18.662  0.00  0.00    +0.000 HD
BRANCH  14  16
ATOM     16  S   UNL     1       6.141   6.608  16.650  0.00  0.00    +0.000 S 
ATOM     17  O   UNL     1       6.959   7.693  17.128  0.00  0.00    +0.000 OA
ATOM     18  O   UNL     1       5.349   6.718  15.453  0.00  0.00    +0.000 OA
BRANCH  16  20
ATOM     19  C   UNL     1       7.602   4.640  17.743  0.00  0.00    +0.000 C 
ATOM     20  N   UNL     1       7.127   5.236  16.470  0.00  0.00    +0.000 NA
ATOM     21  C   UNL     1       6.492   4.205  15.612  0.00  0.00    +0.000 C 
ENDBRANCH  16  20
ENDBRANCH  14  16
ENDBRANCH   1  14
TORSDOF 5
ENDMDL
MODEL 3
REMARK VINA RESULT:      -7.6      0.162      1.090
REMARK  Name = 
REMARK  7 active torsions:
REMARK  status: ('A' for Active; 'I' for Inactive)
REMARK    1  A    between atoms: C_1  and  N_2
REMARK    2  A    between atoms: N_2  and  C_3
REMARK    3  A    between atoms: N_2  and  S_4
REMARK    4  A    between atoms: S_4  and  N_7
REMARK    5  A    between atoms: N_7  and  C_8
REMARK    6  A    between atoms: C_8  and  C_9
REMARK    7  A    between atoms: C_8  and  C_15
REMARK                            x       y       z     vdW  Elec       q    Type
REMARK                         _______ _______ _______ _____ _____    ______ ____
ROOT
ATOM      1  C   UNL     1       3.841   5.817  17.717  0.00  0.00    +0.000 C 
ENDROOT
BRANCH   1   2
ATOM      2  C   UNL     1       3.359   4.446  18.171  0.00  0.00    +0.000 A 
ATOM      3  C   UNL     1       4.205   3.568  18.869  0.00  0.00    +0.000 A 
ATOM      4  C   UNL     1       3.791   2.273  19.178  0.00  0.00    +0.000 A 
ATOM      5  C   UNL     1       2.510   1.850  18.833  0.00  0.00    +0.000 A 
ATOM      6  C   UNL     1       1.637   2.727  18.192  0.00  0.00    +0.000 A 
ATOM      7  C   UNL     1       2.057   4.018  17.864  0.00  0.00    +0.000 A 
ENDBRANCH   1   2
BRANCH   1   8
ATOM      8  C   UNL     1       2.993   6.941  18.324  0.00  0.00    +0.000 A 
ATOM      9  C   UNL     1       2.521   6.852  19.645  0.00  0.00    +0.000 A 
ATOM     10  C   UNL     1       1.738   7.872  20.193  0.00  0.00    +0.000 A 
ATOM     11  C   UNL     1       1.421   8.997  19.432  0.00  0.00    +0.000 A 
ATOM     12  C   UNL     1       1.888   9.106  18.127  0.00  0.00    +0.000 A 
ATOM     13  C   UNL     1       2.667   8.085  17.575  0.00  0.00    +0.000 A 
ENDBRANCH   1   8
BRANCH   1  14
ATOM     14  N   UNL     1       5.289   6.078  17.980  0.00  0.00    +0.000 NA
ATOM     15  H   UNL     1       5.361   6.800  18.697  0.00  0.00    +0.000 HD
BRANCH  14  16
ATOM     16  S   UNL     1       6.166   6.638  16.664  0.00  0.00    +0.000 S 
ATOM     17  O   UNL     1       6.951   7.753  17.130  0.00  0.00    +0.000 OA
ATOM     18  O   UNL     1       5.349   6.720  15.482  0.00  0.00    +0.000 OA
BRANCH  16  20
ATOM     19  C   UNL     1       7.583   4.622  17.724  0.00  0.00    +0.000 C 
ATOM     20  N   UNL     1       7.199   5.304  16.465  0.00  0.00    +0.000 NA
ATOM     21  C   UNL     1       6.662   4.330  15.482  0.00  0.00    +0.000 C 
ENDBRANCH  16  20
ENDBRANCH  14  16
ENDBRANCH   1  14
TORSDOF 5
ENDMDL
MODEL 4
REMARK VINA RESULT:      -7.5      0.153      1.533
REMARK  Name = 
REMARK  7 active torsions:
REMARK  status: ('A' for Active; 'I' for Inactive)
REMARK    1  A    between atoms: C_1  and  N_2
REMARK    2  A    between atoms: N_2  and  C_3
REMARK    3  A    between atoms: N_2  and  S_4
REMARK    4  A    between atoms: S_4  and  N_7
REMARK    5  A    between atoms: N_7  and  C_8
REMARK    6  A    between atoms: C_8  and  C_9
REMARK    7  A    between atoms: C_8  and  C_15
REMARK                            x       y       z     vdW  Elec       q    Type
REMARK                         _______ _______ _______ _____ _____    ______ ____
ROOT
ATOM      1  C   UNL     1       3.671   5.914  17.745  0.00  0.00    +0.000 C 
ENDROOT
BRANCH   1   2
ATOM      2  C   UNL     1       3.178   4.551  18.211  0.00  0.00    +0.000 A 
ATOM      3  C   UNL     1       4.015   3.675  18.923  0.00  0.00    +0.000 A 
ATOM      4  C   UNL     1       3.593   2.386  19.243  0.00  0.00    +0.000 A 
ATOM      5  C   UNL     1       2.311   1.967  18.896  0.00  0.00    +0.000 A 
ATOM      6  C   UNL     1       1.447   2.841  18.241  0.00  0.00    +0.000 A 
ATOM      7  C   UNL     1       1.875   4.126  17.901  0.00  0.00    +0.000 A 
ENDBRANCH   1   2
BRANCH   1   8
ATOM      8  C   UNL     1       2.842   7.050  18.357  0.00  0.00    +0.000 A 
ATOM      9  C   UNL     1       2.497   8.179  17.595  0.00  0.00    +0.000 A 
ATOM     10  C   UNL     1       1.752   9.219  18.158  0.00  0.00    +0.000 A 
ATOM     11  C   UNL     1       1.336   9.143  19.487  0.00  0.00    +0.000 A 
ATOM     12  C   UNL     1       1.660   8.027  20.253  0.00  0.00    +0.000 A 
ATOM     13  C   UNL     1       2.410   6.989  19.693  0.00  0.00    +0.000 A 
ENDBRANCH   1   8
BRANCH   1  14
ATOM     14  N   UNL     1       5.124   6.160  17.990  0.00  0.00    +0.000 NA
ATOM     15  H   UNL     1       5.214   6.941  18.640  0.00  0.00    +0.000 HD
BRANCH  14  16
ATOM     16  S   UNL     1       6.018   6.576  16.633  0.00  0.00    +0.000 S 
ATOM     17  O   UNL     1       6.920   7.626  17.034  0.00  0.00    +0.000 OA
ATOM     18  O   UNL     1       5.183   6.691  15.466  0.00  0.00    +0.000 OA
BRANCH  16  20
ATOM     19  C   UNL     1       7.513   4.635  17.727  0.00  0.00    +0.000 C 
ATOM     20  N   UNL     1       6.910   5.140  16.469  0.00  0.00    +0.000 NA
ATOM     21  C   UNL     1       6.125   4.074  15.798  0.00  0.00    +0.000 C 
ENDBRANCH  16  20
ENDBRANCH  14  16
ENDBRANCH   1  14
TORSDOF 5
ENDMDL
MODEL 5
REMARK VINA RESULT:      -7.5      0.920      1.206
REMARK  Name = 
REMARK  7 active torsions:
REMARK  status: ('A' for Active; 'I' for Inactive)
REMARK    1  A    between atoms: C_1  and  N_2
REMARK    2  A    between atoms: N_2  and  C_3
REMARK    3  A    between atoms: N_2  and  S_4
REMARK    4  A    between atoms: S_4  and  N_7
REMARK    5  A    between atoms: N_7  and  C_8
REMARK    6  A    between atoms: C_8  and  C_9
REMARK    7  A    between atoms: C_8  and  C_15
REMARK                            x       y       z     vdW  Elec       q    Type
REMARK                         _______ _______ _______ _____ _____    ______ ____
ROOT
ATOM      1  C   UNL     1       3.303   5.823  17.691  0.00  0.00    +0.000 C 
ENDROOT
BRANCH   1   2
ATOM      2  C   UNL     1       2.821   4.493  18.255  0.00  0.00    +0.000 A 
ATOM      3  C   UNL     1       1.536   4.001  17.970  0.00  0.00    +0.000 A 
ATOM      4  C   UNL     1       1.063   2.842  18.583  0.00  0.00    +0.000 A 
ATOM      5  C   UNL     1       1.882   2.132  19.457  0.00  0.00    +0.000 A 
ATOM      6  C   UNL     1       3.180   2.573  19.706  0.00  0.00    +0.000 A 
ATOM      7  C   UNL     1       3.649   3.746  19.108  0.00  0.00    +0.000 A 
ENDBRANCH   1   2
BRANCH   1   8
ATOM      8  C   UNL     1       2.614   7.007  18.379  0.00  0.00    +0.000 A 
ATOM      9  C   UNL     1       2.302   6.961  19.749  0.00  0.00    +0.000 A 
ATOM     10  C   UNL     1       1.663   8.037  20.371  0.00  0.00    +0.000 A 
ATOM     11  C   UNL     1       1.333   9.176  19.637  0.00  0.00    +0.000 A 
ATOM     12  C   UNL     1       1.644   9.242  18.283  0.00  0.00    +0.000 A 
ATOM     13  C   UNL     1       2.277   8.166  17.657  0.00  0.00    +0.000 A 
ENDBRANCH   1   8
BRANCH   1  14
ATOM     14  N   UNL     1       4.785   6.007  17.732  0.00  0.00    +0.000 NA
ATOM     15  H   UNL     1       4.983   6.983  17.955  0.00  0.00    +0.000 HD
BRANCH  14  16
ATOM     16  S   UNL     1       5.587   5.686  16.294  0.00  0.00    +0.000 S 
ATOM     17  O   UNL     1       5.310   6.787  15.407  0.00  0.00    +0.000 OA
ATOM     18  O   UNL     1       5.413   4.316  15.888  0.00  0.00    +0.000 OA
BRANCH  16  20
ATOM     19  C   UNL     1       7.477   7.122  17.544  0.00  0.00    +0.000 C 
ATOM     20  N   UNL     1       7.182   5.842  16.855  0.00  0.00    +0.000 NA
ATOM     21  C   UNL     1       7.589   4.687  17.695  0.00  0.00    +0.000 C 
ENDBRANCH  16  20
ENDBRANCH  14  16
ENDBRANCH   1  14
TORSDOF 5
ENDMDL
MODEL 6
REMARK VINA RESULT:      -7.5      0.916      1.615
REMARK  Name = 
REMARK  7 active torsions:
REMARK  status: ('A' for Active; 'I' for Inactive)
REMARK    1  A    between atoms: C_1  and  N_2
REMARK    2  A    between atoms: N_2  and  C_3
REMARK    3  A    between atoms: N_2  and  S_4
REMARK    4  A    between atoms: S_4  and  N_7
REMARK    5  A    between atoms: N_7  and  C_8
REMARK    6  A    between atoms: C_8  and  C_9
REMARK    7  A    between atoms: C_8  and  C_15
REMARK                            x       y       z     vdW  Elec       q    Type
REMARK                         _______ _______ _______ _____ _____    ______ ____
ROOT
ATOM      1  C   UNL     1       3.316   5.780  17.693  0.00  0.00    +0.000 C 
ENDROOT
BRANCH   1   2
ATOM      2  C   UNL     1       2.834   4.451  18.258  0.00  0.00    +0.000 A 
ATOM      3  C   UNL     1       1.547   3.960  17.977  0.00  0.00    +0.000 A 
ATOM      4  C   UNL     1       1.075   2.802  18.591  0.00  0.00    +0.000 A 
ATOM      5  C   UNL     1       1.896   2.092  19.463  0.00  0.00    +0.000 A 
ATOM      6  C   UNL     1       3.195   2.531  19.709  0.00  0.00    +0.000 A 
ATOM      7  C   UNL     1       3.663   3.703  19.110  0.00  0.00    +0.000 A 
ENDBRANCH   1   2
BRANCH   1   8
ATOM      8  C   UNL     1       2.620   6.965  18.373  0.00  0.00    +0.000 A 
ATOM      9  C   UNL     1       2.286   8.118  17.643  0.00  0.00    +0.000 A 
ATOM     10  C   UNL     1       1.662   9.202  18.268  0.00  0.00    +0.000 A 
ATOM     11  C   UNL     1       1.358   9.147  19.627  0.00  0.00    +0.000 A 
ATOM     12  C   UNL     1       1.672   8.009  20.363  0.00  0.00    +0.000 A 
ATOM     13  C   UNL     1       2.301   6.927  19.742  0.00  0.00    +0.000 A 
ENDBRANCH   1   8
BRANCH   1  14
ATOM     14  N   UNL     1       4.798   5.968  17.743  0.00  0.00    +0.000 NA
ATOM     15  H   UNL     1       4.991   6.942  17.978  0.00  0.00    +0.000 HD
BRANCH  14  16
ATOM     16  S   UNL     1       5.606   5.667  16.304  0.00  0.00    +0.000 S 
ATOM     17  O   UNL     1       5.326   6.776  15.428  0.00  0.00    +0.000 OA
ATOM     18  O   UNL     1       5.442   4.300  15.883  0.00  0.00    +0.000 OA
BRANCH  16  20
ATOM     19  C   UNL     1       7.487   7.105  17.566  0.00  0.00    +0.000 C 
ATOM     20  N   UNL     1       7.199   5.826  16.873  0.00  0.00    +0.000 NA
ATOM     21  C   UNL     1       7.606   4.670  17.711  0.00  0.00    +0.000 C 
ENDBRANCH  16  20
ENDBRANCH  14  16
ENDBRANCH   1  14
TORSDOF 5
ENDMDL
MODEL 7
REMARK VINA RESULT:      -7.5      0.905      1.606
REMARK  Name = 
REMARK  7 active torsions:
REMARK  status: ('A' for Active; 'I' for Inactive)
REMARK    1  A    between atoms: C_1  and  N_2
REMARK    2  A    between atoms: N_2  and  C_3
REMARK    3  A    between atoms: N_2  and  S_4
REMARK    4  A    between atoms: S_4  and  N_7
REMARK    5  A    between atoms: N_7  and  C_8
REMARK    6  A    between atoms: C_8  and  C_9
REMARK    7  A    between atoms: C_8  and  C_15
REMARK                            x       y       z     vdW  Elec       q    Type
REMARK                         _______ _______ _______ _____ _____    ______ ____
ROOT
ATOM      1  C   UNL     1       3.291   5.852  17.723  0.00  0.00    +0.000 C 
ENDROOT
BRANCH   1   2
ATOM      2  C   UNL     1       2.830   4.528  18.318  0.00  0.00    +0.000 A 
ATOM      3  C   UNL     1       3.685   3.747  19.115  0.00  0.00    +0.000 A 
ATOM      4  C   UNL     1       3.293   2.485  19.558  0.00  0.00    +0.000 A 
ATOM      5  C   UNL     1       2.024   2.002  19.249  0.00  0.00    +0.000 A 
ATOM      6  C   UNL     1       1.142   2.787  18.509  0.00  0.00    +0.000 A 
ATOM      7  C   UNL     1       1.540   4.043  18.047  0.00  0.00    +0.000 A 
ENDBRANCH   1   2
BRANCH   1   8
ATOM      8  C   UNL     1       2.599   7.042  18.397  0.00  0.00    +0.000 A 
ATOM      9  C   UNL     1       2.275   7.006  19.765  0.00  0.00    +0.000 A 
ATOM     10  C   UNL     1       1.633   8.087  20.374  0.00  0.00    +0.000 A 
ATOM     11  C   UNL     1       1.312   9.222  19.630  0.00  0.00    +0.000 A 
ATOM     12  C   UNL     1       1.634   9.279  18.278  0.00  0.00    +0.000 A 
ATOM     13  C   UNL     1       2.271   8.196  17.665  0.00  0.00    +0.000 A 
ENDBRANCH   1   8
BRANCH   1  14
ATOM     14  N   UNL     1       4.772   6.051  17.741  0.00  0.00    +0.000 NA
ATOM     15  H   UNL     1       4.962   7.035  17.936  0.00  0.00    +0.000 HD
BRANCH  14  16
ATOM     16  S   UNL     1       5.559   5.700  16.303  0.00  0.00    +0.000 S 
ATOM     17  O   UNL     1       5.287   6.790  15.400  0.00  0.00    +0.000 OA
ATOM     18  O   UNL     1       5.369   4.325  15.919  0.00  0.00    +0.000 OA
BRANCH  16  20
ATOM     19  C   UNL     1       7.460   7.115  17.561  0.00  0.00    +0.000 C 
ATOM     20  N   UNL     1       7.161   5.848  16.850  0.00  0.00    +0.000 NA
ATOM     21  C   UNL     1       7.579   4.678  17.662  0.00  0.00    +0.000 C 
ENDBRANCH  16  20
ENDBRANCH  14  16
ENDBRANCH   1  14
TORSDOF 5
ENDMDL
MODEL 8
REMARK VINA RESULT:      -7.5      1.979      2.548
REMARK  Name = 
REMARK  7 active torsions:
REMARK  status: ('A' for Active; 'I' for Inactive)
REMARK    1  A    between atoms: C_1  and  N_2
REMARK    2  A    between atoms: N_2  and  C_3
REMARK    3  A    between atoms: N_2  and  S_4
REMARK    4  A    between atoms: S_4  and  N_7
REMARK    5  A    between atoms: N_7  and  C_8
REMARK    6  A    between atoms: C_8  and  C_9
REMARK    7  A    between atoms: C_8  and  C_15
REMARK                            x       y       z     vdW  Elec       q    Type
REMARK                         _______ _______ _______ _____ _____    ______ ____
ROOT
ATOM      1  C   UNL     1       3.263   5.862  18.909  0.00  0.00    +0.000 C 
ENDROOT
BRANCH   1   2
ATOM      2  C   UNL     1       2.319   4.712  19.234  0.00  0.00    +0.000 A 
ATOM      3  C   UNL     1       2.043   4.345  20.562  0.00  0.00    +0.000 A 
ATOM      4  C   UNL     1       1.271   3.220  20.846  0.00  0.00    +0.000 A 
ATOM      5  C   UNL     1       0.727   2.468  19.808  0.00  0.00    +0.000 A 
ATOM      6  C   UNL     1       0.942   2.851  18.486  0.00  0.00    +0.000 A 
ATOM      7  C   UNL     1       1.732   3.966  18.199  0.00  0.00    +0.000 A 
ENDBRANCH   1   2
BRANCH   1   8
ATOM      8  C   UNL     1       2.535   7.211  18.943  0.00  0.00    +0.000 A 
ATOM      9  C   UNL     1       2.493   8.034  17.805  0.00  0.00    +0.000 A 
ATOM     10  C   UNL     1       1.840   9.269  17.841  0.00  0.00    +0.000 A 
ATOM     11  C   UNL     1       1.214   9.697  19.012  0.00  0.00    +0.000 A 
ATOM     12  C   UNL     1       1.238   8.890  20.145  0.00  0.00    +0.000 A 
ATOM     13  C   UNL     1       1.895   7.657  20.112  0.00  0.00    +0.000 A 
ENDBRANCH   1   8
BRANCH   1  14
ATOM     14  N   UNL     1       4.480   5.922  19.774  0.00  0.00    +0.000 NA
ATOM     15  H   UNL     1       4.783   6.894  19.837  0.00  0.00    +0.000 HD
BRANCH  14  16
ATOM     16  S   UNL     1       5.802   5.057  19.210  0.00  0.00    +0.000 S 
ATOM     17  O   UNL     1       5.412   3.671  19.177  0.00  0.00    +0.000 OA
ATOM     18  O   UNL     1       7.023   5.492  19.837  0.00  0.00    +0.000 OA
BRANCH  16  20
ATOM     19  C   UNL     1       6.786   6.746  17.373  0.00  0.00    +0.000 C 
ATOM     20  N   UNL     1       5.824   5.644  17.616  0.00  0.00    +0.000 NA
ATOM     21  C   UNL     1       6.013   4.554  16.626  0.00  0.00    +0.000 C 
ENDBRANCH  16  20
ENDBRANCH  14  16
ENDBRANCH   1  14
TORSDOF 5
ENDMDL
MODEL 9
REMARK VINA RESULT:      -7.4      1.949      2.176
REMARK  Name = 
REMARK  7 active torsions:
REMARK  status: ('A' for Active; 'I' for Inactive)
REMARK    1  A    between atoms: C_1  and  N_2
REMARK    2  A    between atoms: N_2  and  C_3
REMARK    3  A    between atoms: N_2  and  S_4
REMARK    4  A    between atoms: S_4  and  N_7
REMARK    5  A    between atoms: N_7  and  C_8
REMARK    6  A    between atoms: C_8  and  C_9
REMARK    7  A    between atoms: C_8  and  C_15
REMARK                            x       y       z     vdW  Elec       q    Type
REMARK                         _______ _______ _______ _____ _____    ______ ____
ROOT
ATOM      1  C   UNL     1       3.397   5.809  18.898  0.00  0.00    +0.000 C 
ENDROOT
BRANCH   1   2
ATOM      2  C   UNL     1       2.482   4.638  19.228  0.00  0.00    +0.000 A 
ATOM      3  C   UNL     1       1.769   3.961  18.223  0.00  0.00    +0.000 A 
ATOM      4  C   UNL     1       0.847   2.968  18.549  0.00  0.00    +0.000 A 
ATOM      5  C   UNL     1       0.656   2.603  19.879  0.00  0.00    +0.000 A 
ATOM      6  C   UNL     1       1.398   3.222  20.883  0.00  0.00    +0.000 A 
ATOM      7  C   UNL     1       2.307   4.232  20.561  0.00  0.00    +0.000 A 
ENDBRANCH   1   2
BRANCH   1   8
ATOM      8  C   UNL     1       2.637   7.140  18.925  0.00  0.00    +0.000 A 
ATOM      9  C   UNL     1       1.959   7.558  20.083  0.00  0.00    +0.000 A 
ATOM     10  C   UNL     1       1.257   8.766  20.102  0.00  0.00    +0.000 A 
ATOM     11  C   UNL     1       1.226   9.576  18.967  0.00  0.00    +0.000 A 
ATOM     12  C   UNL     1       1.899   9.183  17.815  0.00  0.00    +0.000 A 
ATOM     13  C   UNL     1       2.597   7.973  17.793  0.00  0.00    +0.000 A 
ENDBRANCH   1   8
BRANCH   1  14
ATOM     14  N   UNL     1       4.612   5.904  19.762  0.00  0.00    +0.000 NA
ATOM     15  H   UNL     1       4.871   6.887  19.848  0.00  0.00    +0.000 HD
BRANCH  14  16
ATOM     16  S   UNL     1       5.971   5.114  19.176  0.00  0.00    +0.000 S 
ATOM     17  O   UNL     1       5.605   3.733  18.992  0.00  0.00    +0.000 OA
ATOM     18  O   UNL     1       7.157   5.501  19.895  0.00  0.00    +0.000 OA
BRANCH  16  20
ATOM     19  C   UNL     1       7.113   6.880  17.510  0.00  0.00    +0.000 C 
ATOM     20  N   UNL     1       6.051   5.854  17.649  0.00  0.00    +0.000 NA
ATOM     21  C   UNL     1       6.139   4.856  16.553  0.00  0.00    +0.000 C 
ENDBRANCH  16  20
ENDBRANCH  14  16
ENDBRANCH   1  14
TORSDOF 5
ENDMDL
