MODEL 1
REMARK VINA RESULT:      -6.5      0.000      0.000
REMARK  Name = 
REMARK  6 active torsions:
REMARK  status: ('A' for Active; 'I' for Inactive)
REMARK    1  A    between atoms: C_1  and  C_2
REMARK    2  A    between atoms: C_2  and  C_3
REMARK    3  A    between atoms: C_3  and  C_4
REMARK    4  A    between atoms: C_4  and  N_5
REMARK    5  A    between atoms: N_9  and  C_10
REMARK    6  A    between atoms: C_11  and  C_12
REMARK                            x       y       z     vdW  Elec       q    Type
REMARK                         _______ _______ _______ _____ _____    ______ ____
ROOT
ATOM      1  N   UNL     1       5.698   3.968  16.530  0.00  0.00    +0.000 N 
ATOM      2  C   UNL     1       6.645   4.672  17.372  0.00  0.00    +0.000 C 
ATOM      3  C   UNL     1       5.944   4.671  18.710  0.00  0.00    +0.000 C 
ATOM      4  O   UNL     1       6.440   5.118  19.737  0.00  0.00    +0.000 OA
ATOM      5  N   UNL     1       4.711   4.074  18.551  0.00  0.00    +0.000 N 
ATOM      6  C   UNL     1       4.510   3.694  17.230  0.00  0.00    +0.000 C 
ATOM      7  S   UNL     1       3.112   3.076  16.549  0.00  0.00    +0.000 S 
ENDROOT
BRANCH   5   8
ATOM      8  C   UNL     1       3.781   3.975  19.611  0.00  0.00    +0.000 A 
ATOM      9  C   UNL     1       2.906   5.045  19.915  0.00  0.00    +0.000 A 
ATOM     10  C   UNL     1       2.856   6.337  19.144  0.00  0.00    +0.000 C 
ATOM     11  C   UNL     1       1.996   4.902  20.979  0.00  0.00    +0.000 A 
ATOM     12  C   UNL     1       1.923   3.721  21.712  0.00  0.00    +0.000 A 
ATOM     13  C   UNL     1       2.768   2.662  21.405  0.00  0.00    +0.000 A 
ATOM     14  C   UNL     1       3.696   2.784  20.368  0.00  0.00    +0.000 A 
ATOM     15 CL   UNL     1       4.791   1.462  20.137  0.00  0.00    +0.000 Cl
ENDBRANCH   5   8
BRANCH   1  16
ATOM     16  C   UNL     1       5.954   3.808  15.098  0.00  0.00    +0.000 C 
BRANCH  16  17
ATOM     17  C   UNL     1       6.860   4.897  14.518  0.00  0.00    +0.000 C 
BRANCH  17  19
ATOM     18  C   UNL     1       6.331   3.562  12.448  0.00  0.00    +0.000 C 
ATOM     19  C   UNL     1       7.214   4.641  13.053  0.00  0.00    +0.000 C 
ENDBRANCH  17  19
ENDBRANCH  16  17
ENDBRANCH   1  16
TORSDOF 4
ENDMDL
MODEL 2
REMARK VINA RESULT:      -6.3      1.319      2.063
REMARK  Name = 
REMARK  6 active torsions:
REMARK  status: ('A' for Active; 'I' for Inactive)
REMARK    1  A    between atoms: C_1  and  C_2
REMARK    2  A    between atoms: C_2  and  C_3
REMARK    3  A    between atoms: C_3  and  C_4
REMARK    4  A    between atoms: C_4  and  N_5
REMARK    5  A    between atoms: N_9  and  C_10
REMARK    6  A    between atoms: C_11  and  C_12
REMARK                            x       y       z     vdW  Elec       q    Type
REMARK                         _______ _______ _______ _____ _____    ______ ____
ROOT
ATOM      1  N   UNL     1       5.619   4.119  16.488  0.00  0.00    +0.000 N 
ATOM      2  C   UNL     1       6.579   4.778  17.350  0.00  0.00    +0.000 C 
ATOM      3  C   UNL     1       5.904   4.698  18.699  0.00  0.00    +0.000 C 
ATOM      4  O   UNL     1       6.419   5.089  19.740  0.00  0.00    +0.000 OA
ATOM      5  N   UNL     1       4.670   4.106  18.530  0.00  0.00    +0.000 N 
ATOM      6  C   UNL     1       4.445   3.801  17.194  0.00  0.00    +0.000 C 
ATOM      7  S   UNL     1       3.036   3.215  16.506  0.00  0.00    +0.000 S 
ENDROOT
BRANCH   5   8
ATOM      8  C   UNL     1       3.761   3.943  19.600  0.00  0.00    +0.000 A 
ATOM      9  C   UNL     1       3.721   2.741  20.345  0.00  0.00    +0.000 A 
ATOM     10  C   UNL     1       4.634   1.569  20.104  0.00  0.00    +0.000 C 
ATOM     11  C   UNL     1       2.800   2.623  21.403  0.00  0.00    +0.000 A 
ATOM     12  C   UNL     1       1.954   3.676  21.744  0.00  0.00    +0.000 A 
ATOM     13  C   UNL     1       2.004   4.864  21.026  0.00  0.00    +0.000 A 
ATOM     14  C   UNL     1       2.894   5.001  19.957  0.00  0.00    +0.000 A 
ATOM     15 CL   UNL     1       2.799   6.469  19.042  0.00  0.00    +0.000 Cl
ENDBRANCH   5   8
BRANCH   1  16
ATOM     16  C   UNL     1       5.847   4.041  15.044  0.00  0.00    +0.000 C 
BRANCH  16  17
ATOM     17  C   UNL     1       7.103   4.787  14.588  0.00  0.00    +0.000 C 
BRANCH  17  19
ATOM     18  C   UNL     1       6.546   3.655  12.408  0.00  0.00    +0.000 C 
ATOM     19  C   UNL     1       7.226   4.845  13.065  0.00  0.00    +0.000 C 
ENDBRANCH  17  19
ENDBRANCH  16  17
ENDBRANCH   1  16
TORSDOF 4
ENDMDL
MODEL 3
REMARK VINA RESULT:      -6.1      1.764      1.982
REMARK  Name = 
REMARK  6 active torsions:
REMARK  status: ('A' for Active; 'I' for Inactive)
REMARK    1  A    between atoms: C_1  and  C_2
REMARK    2  A    between atoms: C_2  and  C_3
REMARK    3  A    between atoms: C_3  and  C_4
REMARK    4  A    between atoms: C_4  and  N_5
REMARK    5  A    between atoms: N_9  and  C_10
REMARK    6  A    between atoms: C_11  and  C_12
REMARK                            x       y       z     vdW  Elec       q    Type
REMARK                         _______ _______ _______ _____ _____    ______ ____
ROOT
ATOM      1  N   UNL     1       5.614   4.472  16.543  0.00  0.00    +0.000 N 
ATOM      2  C   UNL     1       4.543   3.771  15.862  0.00  0.00    +0.000 C 
ATOM      3  C   UNL     1       3.539   3.568  16.971  0.00  0.00    +0.000 C 
ATOM      4  O   UNL     1       2.436   3.062  16.805  0.00  0.00    +0.000 OA
ATOM      5  N   UNL     1       4.079   4.067  18.139  0.00  0.00    +0.000 N 
ATOM      6  C   UNL     1       5.357   4.564  17.922  0.00  0.00    +0.000 C 
ATOM      7  S   UNL     1       6.440   5.124  19.068  0.00  0.00    +0.000 S 
ENDROOT
BRANCH   5   8
ATOM      8  C   UNL     1       3.407   3.970  19.379  0.00  0.00    +0.000 A 
ATOM      9  C   UNL     1       2.621   5.041  19.867  0.00  0.00    +0.000 A 
ATOM     10  C   UNL     1       2.399   6.331  19.123  0.00  0.00    +0.000 C 
ATOM     11  C   UNL     1       1.969   4.901  21.107  0.00  0.00    +0.000 A 
ATOM     12  C   UNL     1       2.062   3.722  21.841  0.00  0.00    +0.000 A 
ATOM     13  C   UNL     1       2.819   2.662  21.357  0.00  0.00    +0.000 A 
ATOM     14  C   UNL     1       3.493   2.782  20.139  0.00  0.00    +0.000 A 
ATOM     15 CL   UNL     1       4.512   1.459  19.675  0.00  0.00    +0.000 Cl
ENDBRANCH   5   8
BRANCH   1  16
ATOM     16  C   UNL     1       6.851   4.804  15.836  0.00  0.00    +0.000 C 
BRANCH  16  17
ATOM     17  C   UNL     1       6.625   5.227  14.383  0.00  0.00    +0.000 C 
BRANCH  17  19
ATOM     18  C   UNL     1       6.066   3.556  12.582  0.00  0.00    +0.000 C 
ATOM     19  C   UNL     1       7.179   4.209  13.385  0.00  0.00    +0.000 C 
ENDBRANCH  17  19
ENDBRANCH  16  17
ENDBRANCH   1  16
TORSDOF 4
ENDMDL
MODEL 4
REMARK VINA RESULT:      -6.1      3.022      3.895
REMARK  Name = 
REMARK  6 active torsions:
REMARK  status: ('A' for Active; 'I' for Inactive)
REMARK    1  A    between atoms: C_1  and  C_2
REMARK    2  A    between atoms: C_2  and  C_3
REMARK    3  A    between atoms: C_3  and  C_4
REMARK    4  A    between atoms: C_4  and  N_5
REMARK    5  A    between atoms: N_9  and  C_10
REMARK    6  A    between atoms: C_11  and  C_12
REMARK                            x       y       z     vdW  Elec       q    Type
REMARK                         _______ _______ _______ _____ _____    ______ ____
ROOT
ATOM      1  N   UNL     1       5.555   6.249  17.860  0.00  0.00    +0.000 N 
ATOM      2  C   UNL     1       6.303   5.232  18.573  0.00  0.00    +0.000 C 
ATOM      3  C   UNL     1       5.212   4.293  19.029  0.00  0.00    +0.000 C 
ATOM      4  O   UNL     1       5.423   3.243  19.622  0.00  0.00    +0.000 OA
ATOM      5  N   UNL     1       3.998   4.820  18.638  0.00  0.00    +0.000 N 
ATOM      6  C   UNL     1       4.171   6.033  17.984  0.00  0.00    +0.000 C 
ATOM      7  S   UNL     1       2.982   7.093  17.472  0.00  0.00    +0.000 S 
ENDROOT
BRANCH   5   8
ATOM      8  C   UNL     1       2.769   4.206  18.972  0.00  0.00    +0.000 A 
ATOM      9  C   UNL     1       2.291   3.091  18.245  0.00  0.00    +0.000 A 
ATOM     10  C   UNL     1       3.034   2.446  17.105  0.00  0.00    +0.000 C 
ATOM     11  C   UNL     1       1.062   2.510  18.613  0.00  0.00    +0.000 A 
ATOM     12  C   UNL     1       0.330   2.996  19.693  0.00  0.00    +0.000 A 
ATOM     13  C   UNL     1       0.806   4.080  20.421  0.00  0.00    +0.000 A 
ATOM     14  C   UNL     1       2.012   4.688  20.064  0.00  0.00    +0.000 A 
ATOM     15 CL   UNL     1       2.464   6.108  20.948  0.00  0.00    +0.000 Cl
ENDBRANCH   5   8
BRANCH   1  16
ATOM     16  C   UNL     1       6.235   7.420  17.307  0.00  0.00    +0.000 C 
BRANCH  16  17
ATOM     17  C   UNL     1       7.670   7.582  17.811  0.00  0.00    +0.000 C 
BRANCH  17  19
ATOM     18  C   UNL     1       8.886   9.487  18.925  0.00  0.00    +0.000 C 
ATOM     19  C   UNL     1       8.182   9.016  17.663  0.00  0.00    +0.000 C 
ENDBRANCH  17  19
ENDBRANCH  16  17
ENDBRANCH   1  16
TORSDOF 4
ENDMDL
MODEL 5
REMARK VINA RESULT:      -6.1      2.798      3.515
REMARK  Name = 
REMARK  6 active torsions:
REMARK  status: ('A' for Active; 'I' for Inactive)
REMARK    1  A    between atoms: C_1  and  C_2
REMARK    2  A    between atoms: C_2  and  C_3
REMARK    3  A    between atoms: C_3  and  C_4
REMARK    4  A    between atoms: C_4  and  N_5
REMARK    5  A    between atoms: N_9  and  C_10
REMARK    6  A    between atoms: C_11  and  C_12
REMARK                            x       y       z     vdW  Elec       q    Type
REMARK                         _______ _______ _______ _____ _____    ______ ____
ROOT
ATOM      1  N   UNL     1       5.693   5.956  17.826  0.00  0.00    +0.000 N 
ATOM      2  C   UNL     1       6.399   4.949  18.593  0.00  0.00    +0.000 C 
ATOM      3  C   UNL     1       5.269   4.088  19.105  0.00  0.00    +0.000 C 
ATOM      4  O   UNL     1       5.436   3.065  19.757  0.00  0.00    +0.000 OA
ATOM      5  N   UNL     1       4.078   4.647  18.689  0.00  0.00    +0.000 N 
ATOM      6  C   UNL     1       4.302   5.811  17.966  0.00  0.00    +0.000 C 
ATOM      7  S   UNL     1       3.159   6.893  17.398  0.00  0.00    +0.000 S 
ENDROOT
BRANCH   5   8
ATOM      8  C   UNL     1       2.824   4.109  19.062  0.00  0.00    +0.000 A 
ATOM      9  C   UNL     1       2.047   4.710  20.079  0.00  0.00    +0.000 A 
ATOM     10  C   UNL     1       2.446   5.961  20.817  0.00  0.00    +0.000 C 
ATOM     11  C   UNL     1       0.805   4.141  20.417  0.00  0.00    +0.000 A 
ATOM     12  C   UNL     1       0.320   3.020  19.748  0.00  0.00    +0.000 A 
ATOM     13  C   UNL     1       1.073   2.438  18.736  0.00  0.00    +0.000 A 
ATOM     14  C   UNL     1       2.319   2.969  18.395  0.00  0.00    +0.000 A 
ATOM     15 CL   UNL     1       3.241   2.106  17.210  0.00  0.00    +0.000 Cl
ENDBRANCH   5   8
BRANCH   1  16
ATOM     16  C   UNL     1       6.422   7.062  17.204  0.00  0.00    +0.000 C 
BRANCH  16  17
ATOM     17  C   UNL     1       7.673   7.478  17.982  0.00  0.00    +0.000 C 
BRANCH  17  19
ATOM     18  C   UNL     1       8.978   9.455  18.839  0.00  0.00    +0.000 C 
ATOM     19  C   UNL     1       8.037   8.947  17.759  0.00  0.00    +0.000 C 
ENDBRANCH  17  19
ENDBRANCH  16  17
ENDBRANCH   1  16
TORSDOF 4
ENDMDL
MODEL 6
REMARK VINA RESULT:      -6.0      2.133      5.815
REMARK  Name = 
REMARK  6 active torsions:
REMARK  status: ('A' for Active; 'I' for Inactive)
REMARK    1  A    between atoms: C_1  and  C_2
REMARK    2  A    between atoms: C_2  and  C_3
REMARK    3  A    between atoms: C_3  and  C_4
REMARK    4  A    between atoms: C_4  and  N_5
REMARK    5  A    between atoms: N_9  and  C_10
REMARK    6  A    between atoms: C_11  and  C_12
REMARK                            x       y       z     vdW  Elec       q    Type
REMARK                         _______ _______ _______ _____ _____    ______ ____
ROOT
ATOM      1  N   UNL     1       2.842   4.496  20.389  0.00  0.00    +0.000 N 
ATOM      2  C   UNL     1       2.661   5.886  20.020  0.00  0.00    +0.000 C 
ATOM      3  C   UNL     1       3.576   6.021  18.826  0.00  0.00    +0.000 C 
ATOM      4  O   UNL     1       3.674   7.042  18.157  0.00  0.00    +0.000 OA
ATOM      5  N   UNL     1       4.222   4.816  18.639  0.00  0.00    +0.000 N 
ATOM      6  C   UNL     1       3.843   3.895  19.607  0.00  0.00    +0.000 C 
ATOM      7  S   UNL     1       4.476   2.367  19.861  0.00  0.00    +0.000 S 
ENDROOT
BRANCH   5   8
ATOM      8  C   UNL     1       5.199   4.635  17.633  0.00  0.00    +0.000 A 
ATOM      9  C   UNL     1       4.859   4.069  16.382  0.00  0.00    +0.000 A 
ATOM     10  C   UNL     1       3.465   3.650  15.996  0.00  0.00    +0.000 C 
ATOM     11  C   UNL     1       5.865   3.907  15.409  0.00  0.00    +0.000 A 
ATOM     12  C   UNL     1       7.172   4.321  15.649  0.00  0.00    +0.000 A 
ATOM     13  C   UNL     1       7.505   4.893  16.870  0.00  0.00    +0.000 A 
ATOM     14  C   UNL     1       6.532   5.046  17.861  0.00  0.00    +0.000 A 
ATOM     15 CL   UNL     1       7.063   5.654  19.394  0.00  0.00    +0.000 Cl
ENDBRANCH   5   8
BRANCH   1  16
ATOM     16  C   UNL     1       2.180   3.951  21.574  0.00  0.00    +0.000 C 
BRANCH  16  17
ATOM     17  C   UNL     1       1.195   2.824  21.254  0.00  0.00    +0.000 C 
BRANCH  17  19
ATOM     18  C   UNL     1       0.739   2.156  18.869  0.00  0.00    +0.000 C 
ATOM     19  C   UNL     1       0.373   3.108  19.996  0.00  0.00    +0.000 C 
ENDBRANCH  17  19
ENDBRANCH  16  17
ENDBRANCH   1  16
TORSDOF 4
ENDMDL
MODEL 7
REMARK VINA RESULT:      -6.0      2.255      2.888
REMARK  Name = 
REMARK  6 active torsions:
REMARK  status: ('A' for Active; 'I' for Inactive)
REMARK    1  A    between atoms: C_1  and  C_2
REMARK    2  A    between atoms: C_2  and  C_3
REMARK    3  A    between atoms: C_3  and  C_4
REMARK    4  A    between atoms: C_4  and  N_5
REMARK    5  A    between atoms: N_9  and  C_10
REMARK    6  A    between atoms: C_11  and  C_12
REMARK                            x       y       z     vdW  Elec       q    Type
REMARK                         _______ _______ _______ _____ _____    ______ ____
ROOT
ATOM      1  N   UNL     1       5.437   4.952  16.622  0.00  0.00    +0.000 N 
ATOM      2  C   UNL     1       4.403   4.251  15.886  0.00  0.00    +0.000 C 
ATOM      3  C   UNL     1       3.446   3.851  16.984  0.00  0.00    +0.000 C 
ATOM      4  O   UNL     1       2.380   3.284  16.781  0.00  0.00    +0.000 OA
ATOM      5  N   UNL     1       3.979   4.255  18.190  0.00  0.00    +0.000 N 
ATOM      6  C   UNL     1       5.211   4.869  18.007  0.00  0.00    +0.000 C 
ATOM      7  S   UNL     1       6.281   5.379  19.189  0.00  0.00    +0.000 S 
ENDROOT
BRANCH   5   8
ATOM      8  C   UNL     1       3.350   3.970  19.424  0.00  0.00    +0.000 A 
ATOM      9  C   UNL     1       3.512   2.713  20.051  0.00  0.00    +0.000 A 
ATOM     10  C   UNL     1       4.369   1.602  19.504  0.00  0.00    +0.000 C 
ATOM     11  C   UNL     1       2.867   2.473  21.279  0.00  0.00    +0.000 A 
ATOM     12  C   UNL     1       2.102   3.459  21.896  0.00  0.00    +0.000 A 
ATOM     13  C   UNL     1       1.955   4.702  21.292  0.00  0.00    +0.000 A 
ATOM     14  C   UNL     1       2.567   4.959  20.062  0.00  0.00    +0.000 A 
ATOM     15 CL   UNL     1       2.228   6.490  19.325  0.00  0.00    +0.000 Cl
ENDBRANCH   5   8
BRANCH   1  16
ATOM     16  C   UNL     1       6.627   5.454  15.935  0.00  0.00    +0.000 C 
BRANCH  16  17
ATOM     17  C   UNL     1       7.239   4.441  14.964  0.00  0.00    +0.000 C 
BRANCH  17  19
ATOM     18  C   UNL     1       6.327   3.706  12.734  0.00  0.00    +0.000 C 
ATOM     19  C   UNL     1       7.013   4.825  13.501  0.00  0.00    +0.000 C 
ENDBRANCH  17  19
ENDBRANCH  16  17
ENDBRANCH   1  16
TORSDOF 4
ENDMDL
MODEL 8
REMARK VINA RESULT:      -5.9      1.670      2.324
REMARK  Name = 
REMARK  6 active torsions:
REMARK  status: ('A' for Active; 'I' for Inactive)
REMARK    1  A    between atoms: C_1  and  C_2
REMARK    2  A    between atoms: C_2  and  C_3
REMARK    3  A    between atoms: C_3  and  C_4
REMARK    4  A    between atoms: C_4  and  N_5
REMARK    5  A    between atoms: N_9  and  C_10
REMARK    6  A    between atoms: C_11  and  C_12
REMARK                            x       y       z     vdW  Elec       q    Type
REMARK                         _______ _______ _______ _____ _____    ______ ____
ROOT
ATOM      1  N   UNL     1       5.923   3.965  16.538  0.00  0.00    +0.000 N 
ATOM      2  C   UNL     1       6.843   4.700  17.383  0.00  0.00    +0.000 C 
ATOM      3  C   UNL     1       5.975   5.058  18.565  0.00  0.00    +0.000 C 
ATOM      4  O   UNL     1       6.390   5.638  19.561  0.00  0.00    +0.000 OA
ATOM      5  N   UNL     1       4.698   4.601  18.317  0.00  0.00    +0.000 N 
ATOM      6  C   UNL     1       4.623   3.990  17.072  0.00  0.00    +0.000 C 
ATOM      7  S   UNL     1       3.252   3.427  16.295  0.00  0.00    +0.000 S 
ENDROOT
BRANCH   5   8
ATOM      8  C   UNL     1       3.628   4.836  19.211  0.00  0.00    +0.000 A 
ATOM      9  C   UNL     1       3.207   3.838  20.121  0.00  0.00    +0.000 A 
ATOM     10  C   UNL     1       3.856   2.486  20.249  0.00  0.00    +0.000 C 
ATOM     11  C   UNL     1       2.137   4.116  20.993  0.00  0.00    +0.000 A 
ATOM     12  C   UNL     1       1.512   5.360  20.993  0.00  0.00    +0.000 A 
ATOM     13  C   UNL     1       1.935   6.349  20.113  0.00  0.00    +0.000 A 
ATOM     14  C   UNL     1       2.980   6.092  19.222  0.00  0.00    +0.000 A 
ATOM     15 CL   UNL     1       3.357   7.338  18.078  0.00  0.00    +0.000 Cl
ENDBRANCH   5   8
BRANCH   1  16
ATOM     16  C   UNL     1       6.344   3.488  15.220  0.00  0.00    +0.000 C 
BRANCH  16  17
ATOM     17  C   UNL     1       5.695   4.252  14.063  0.00  0.00    +0.000 C 
BRANCH  17  19
ATOM     18  C   UNL     1       4.651   3.434  11.921  0.00  0.00    +0.000 C 
ATOM     19  C   UNL     1       5.941   3.581  12.711  0.00  0.00    +0.000 C 
ENDBRANCH  17  19
ENDBRANCH  16  17
ENDBRANCH   1  16
TORSDOF 4
ENDMDL
MODEL 9
REMARK VINA RESULT:      -5.7      2.215      3.013
REMARK  Name = 
REMARK  6 active torsions:
REMARK  status: ('A' for Active; 'I' for Inactive)
REMARK    1  A    between atoms: C_1  and  C_2
REMARK    2  A    between atoms: C_2  and  C_3
REMARK    3  A    between atoms: C_3  and  C_4
REMARK    4  A    between atoms: C_4  and  N_5
REMARK    5  A    between atoms: N_9  and  C_10
REMARK    6  A    between atoms: C_11  and  C_12
REMARK                            x       y       z     vdW  Elec       q    Type
REMARK                         _______ _______ _______ _____ _____    ______ ____
ROOT
ATOM      1  N   UNL     1       5.774   4.855  16.950  0.00  0.00    +0.000 N 
ATOM      2  C   UNL     1       4.809   4.225  16.070  0.00  0.00    +0.000 C 
ATOM      3  C   UNL     1       3.703   3.849  17.026  0.00  0.00    +0.000 C 
ATOM      4  O   UNL     1       2.644   3.342  16.675  0.00  0.00    +0.000 OA
ATOM      5  N   UNL     1       4.097   4.199  18.301  0.00  0.00    +0.000 N 
ATOM      6  C   UNL     1       5.370   4.753  18.292  0.00  0.00    +0.000 C 
ATOM      7  S   UNL     1       6.304   5.181  19.614  0.00  0.00    +0.000 S 
ENDROOT
BRANCH   5   8
ATOM      8  C   UNL     1       3.303   3.920  19.437  0.00  0.00    +0.000 A 
ATOM      9  C   UNL     1       2.414   4.888  19.961  0.00  0.00    +0.000 A 
ATOM     10  C   UNL     1       2.206   6.253  19.361  0.00  0.00    +0.000 C 
ATOM     11  C   UNL     1       1.642   4.566  21.093  0.00  0.00    +0.000 A 
ATOM     12  C   UNL     1       1.718   3.307  21.683  0.00  0.00    +0.000 A 
ATOM     13  C   UNL     1       2.577   2.348  21.161  0.00  0.00    +0.000 A 
ATOM     14  C   UNL     1       3.370   2.648  20.051  0.00  0.00    +0.000 A 
ATOM     15 CL   UNL     1       4.499   1.436  19.544  0.00  0.00    +0.000 Cl
ENDBRANCH   5   8
BRANCH   1  16
ATOM     16  C   UNL     1       7.065   5.310  16.432  0.00  0.00    +0.000 C 
BRANCH  16  17
ATOM     17  C   UNL     1       7.217   6.833  16.438  0.00  0.00    +0.000 C 
BRANCH  17  19
ATOM     18  C   UNL     1       7.953   8.866  17.731  0.00  0.00    +0.000 C 
ATOM     19  C   UNL     1       7.885   7.347  17.714  0.00  0.00    +0.000 C 
ENDBRANCH  17  19
ENDBRANCH  16  17
ENDBRANCH   1  16
TORSDOF 4
ENDMDL
