MODEL 1
REMARK VINA RESULT:      -6.3      0.000      0.000
REMARK  Name = 
REMARK  8 active torsions:
REMARK  status: ('A' for Active; 'I' for Inactive)
REMARK    1  A    between atoms: C_2  and  C_3
REMARK    2  A    between atoms: C_6  and  O_7
REMARK    3  A    between atoms: O_7  and  C_8
REMARK    4  A    between atoms: C_8  and  C_9
REMARK    5  A    between atoms: C_9  and  O_11
REMARK    6  A    between atoms: O_11  and  C_12
REMARK    7  A    between atoms: C_12  and  C_13
REMARK    8  A    between atoms: C_13  and  C_15
REMARK                            x       y       z     vdW  Elec       q    Type
REMARK                         _______ _______ _______ _____ _____    ______ ____
ROOT
ATOM      1  C   UNL     1       7.319   5.449  17.534  0.00  0.00    +0.000 C 
ATOM      2  O   UNL     1       8.036   4.461  17.436  0.00  0.00    +0.000 OA
ENDROOT
BRANCH   1   3
ATOM      3  C   UNL     1       6.728   6.005  18.825  0.00  0.00    +0.000 C 
BRANCH   3   4
ATOM      4  O   UNL     1       6.372   4.936  19.696  0.00  0.00    +0.000 OA
BRANCH   4   8
ATOM      5  C   UNL     1       2.553   3.396  19.009  0.00  0.00    +0.000 A 
ATOM      6  C   UNL     1       2.788   4.768  19.151  0.00  0.00    +0.000 A 
ATOM      7  C   UNL     1       4.086   5.234  19.385  0.00  0.00    +0.000 A 
ATOM      8  C   UNL     1       5.158   4.344  19.498  0.00  0.00    +0.000 A 
ATOM      9  C   UNL     1       4.929   2.977  19.346  0.00  0.00    +0.000 A 
ATOM     10  C   UNL     1       3.630   2.505  19.102  0.00  0.00    +0.000 A 
BRANCH   5  12
ATOM     11  N   UNL     1       0.151   2.519  18.559  0.00  0.00    +0.000 NA
ATOM     12  C   UNL     1       1.227   2.912  18.759  0.00  0.00    +0.000 C 
ENDBRANCH   5  12
ENDBRANCH   4   8
ENDBRANCH   3   4
ENDBRANCH   1   3
BRANCH   1  13
ATOM     13  O   UNL     1       6.991   6.265  16.488  0.00  0.00    +0.000 OA
BRANCH  13  14
ATOM     14  C   UNL     1       5.623   6.154  16.065  0.00  0.00    +0.000 C 
BRANCH  14  15
ATOM     15  C   UNL     1       5.405   4.788  15.409  0.00  0.00    +0.000 C 
ATOM     16  O   UNL     1       4.679   3.937  15.930  0.00  0.00    +0.000 OA
BRANCH  15  17
ATOM     17  C   UNL     1       6.087   4.517  14.157  0.00  0.00    +0.000 A 
ATOM     18  C   UNL     1       5.870   3.568  13.173  0.00  0.00    +0.000 A 
ATOM     19  C   UNL     1       6.856   3.746  12.170  0.00  0.00    +0.000 A 
ATOM     20  C   UNL     1       7.649   4.800  12.557  0.00  0.00    +0.000 A 
ATOM     21  N   UNL     1       7.170   5.269  13.750  0.00  0.00    +0.000 N 
ATOM     22  H   UNL     1       7.550   6.044  14.282  0.00  0.00    +0.000 HD
ENDBRANCH  15  17
ENDBRANCH  14  15
ENDBRANCH  13  14
ENDBRANCH   1  13
TORSDOF 8
ENDMDL
MODEL 2
REMARK VINA RESULT:      -6.2      3.949      6.362
REMARK  Name = 
REMARK  8 active torsions:
REMARK  status: ('A' for Active; 'I' for Inactive)
REMARK    1  A    between atoms: C_2  and  C_3
REMARK    2  A    between atoms: C_6  and  O_7
REMARK    3  A    between atoms: O_7  and  C_8
REMARK    4  A    between atoms: C_8  and  C_9
REMARK    5  A    between atoms: C_9  and  O_11
REMARK    6  A    between atoms: O_11  and  C_12
REMARK    7  A    between atoms: C_12  and  C_13
REMARK    8  A    between atoms: C_13  and  C_15
REMARK                            x       y       z     vdW  Elec       q    Type
REMARK                         _______ _______ _______ _____ _____    ______ ____
ROOT
ATOM      1  C   UNL     1       5.221   6.020  18.074  0.00  0.00    +0.000 C 
ATOM      2  O   UNL     1       6.314   6.252  17.574  0.00  0.00    +0.000 OA
ENDROOT
BRANCH   1   3
ATOM      3  C   UNL     1       3.885   6.598  17.622  0.00  0.00    +0.000 C 
BRANCH   3   4
ATOM      4  O   UNL     1       2.936   6.514  18.681  0.00  0.00    +0.000 OA
BRANCH   4   8
ATOM      5  C   UNL     1       0.774  10.024  19.341  0.00  0.00    +0.000 A 
ATOM      6  C   UNL     1       1.303   9.699  18.087  0.00  0.00    +0.000 A 
ATOM      7  C   UNL     1       2.024   8.512  17.917  0.00  0.00    +0.000 A 
ATOM      8  C   UNL     1       2.243   7.648  18.993  0.00  0.00    +0.000 A 
ATOM      9  C   UNL     1       1.708   7.962  20.243  0.00  0.00    +0.000 A 
ATOM     10  C   UNL     1       0.975   9.147  20.415  0.00  0.00    +0.000 A 
BRANCH   5  12
ATOM     11  N   UNL     1      -0.582  12.214  19.666  0.00  0.00    +0.000 NA
ATOM     12  C   UNL     1       0.025  11.233  19.519  0.00  0.00    +0.000 C 
ENDBRANCH   5  12
ENDBRANCH   4   8
ENDBRANCH   3   4
ENDBRANCH   1   3
BRANCH   1  13
ATOM     13  O   UNL     1       5.018   5.130  19.092  0.00  0.00    +0.000 OA
BRANCH  13  14
ATOM     14  C   UNL     1       5.196   3.756  18.714  0.00  0.00    +0.000 C 
BRANCH  14  15
ATOM     15  C   UNL     1       4.436   2.859  19.696  0.00  0.00    +0.000 C 
ATOM     16  O   UNL     1       5.004   1.942  20.295  0.00  0.00    +0.000 OA
BRANCH  15  17
ATOM     17  C   UNL     1       3.021   3.112  19.894  0.00  0.00    +0.000 A 
ATOM     18  C   UNL     1       1.894   2.408  19.507  0.00  0.00    +0.000 A 
ATOM     19  C   UNL     1       0.757   3.129  19.951  0.00  0.00    +0.000 A 
ATOM     20  C   UNL     1       1.210   4.251  20.603  0.00  0.00    +0.000 A 
ATOM     21  N   UNL     1       2.577   4.227  20.576  0.00  0.00    +0.000 N 
ATOM     22  H   UNL     1       3.195   4.924  20.979  0.00  0.00    +0.000 HD
ENDBRANCH  15  17
ENDBRANCH  14  15
ENDBRANCH  13  14
ENDBRANCH   1  13
TORSDOF 8
ENDMDL
MODEL 3
REMARK VINA RESULT:      -6.1      1.472      2.222
REMARK  Name = 
REMARK  8 active torsions:
REMARK  status: ('A' for Active; 'I' for Inactive)
REMARK    1  A    between atoms: C_2  and  C_3
REMARK    2  A    between atoms: C_6  and  O_7
REMARK    3  A    between atoms: O_7  and  C_8
REMARK    4  A    between atoms: C_8  and  C_9
REMARK    5  A    between atoms: C_9  and  O_11
REMARK    6  A    between atoms: O_11  and  C_12
REMARK    7  A    between atoms: C_12  and  C_13
REMARK    8  A    between atoms: C_13  and  C_15
REMARK                            x       y       z     vdW  Elec       q    Type
REMARK                         _______ _______ _______ _____ _____    ______ ____
ROOT
ATOM      1  C   UNL     1       6.667   6.128  16.757  0.00  0.00    +0.000 C 
ATOM      2  O   UNL     1       6.678   7.329  16.994  0.00  0.00    +0.000 OA
ENDROOT
BRANCH   1   3
ATOM      3  C   UNL     1       7.239   5.032  17.649  0.00  0.00    +0.000 C 
BRANCH   3   4
ATOM      4  O   UNL     1       6.537   4.999  18.889  0.00  0.00    +0.000 OA
BRANCH   4   8
ATOM      5  C   UNL     1       2.656   3.469  18.732  0.00  0.00    +0.000 A 
ATOM      6  C   UNL     1       3.745   2.797  18.167  0.00  0.00    +0.000 A 
ATOM      7  C   UNL     1       5.026   3.353  18.242  0.00  0.00    +0.000 A 
ATOM      8  C   UNL     1       5.235   4.589  18.861  0.00  0.00    +0.000 A 
ATOM      9  C   UNL     1       4.154   5.258  19.435  0.00  0.00    +0.000 A 
ATOM     10  C   UNL     1       2.868   4.698  19.371  0.00  0.00    +0.000 A 
BRANCH   5  12
ATOM     11  N   UNL     1       0.275   2.440  18.615  0.00  0.00    +0.000 NA
ATOM     12  C   UNL     1       1.341   2.900  18.668  0.00  0.00    +0.000 C 
ENDBRANCH   5  12
ENDBRANCH   4   8
ENDBRANCH   3   4
ENDBRANCH   1   3
BRANCH   1  13
ATOM     13  O   UNL     1       6.064   5.568  15.666  0.00  0.00    +0.000 OA
BRANCH  13  14
ATOM     14  C   UNL     1       6.730   4.399  15.163  0.00  0.00    +0.000 C 
BRANCH  14  15
ATOM     15  C   UNL     1       6.965   4.559  13.658  0.00  0.00    +0.000 C 
ATOM     16  O   UNL     1       7.782   5.375  13.222  0.00  0.00    +0.000 OA
BRANCH  15  17
ATOM     17  C   UNL     1       6.189   3.729  12.756  0.00  0.00    +0.000 A 
ATOM     18  C   UNL     1       4.892   3.838  12.285  0.00  0.00    +0.000 A 
ATOM     19  C   UNL     1       4.641   2.728  11.439  0.00  0.00    +0.000 A 
ATOM     20  C   UNL     1       5.786   1.969  11.406  0.00  0.00    +0.000 A 
ATOM     21  N   UNL     1       6.720   2.586  12.192  0.00  0.00    +0.000 N 
ATOM     22  H   UNL     1       7.666   2.261  12.362  0.00  0.00    +0.000 HD
ENDBRANCH  15  17
ENDBRANCH  14  15
ENDBRANCH  13  14
ENDBRANCH   1  13
TORSDOF 8
ENDMDL
MODEL 4
REMARK VINA RESULT:      -6.1      3.955      6.370
REMARK  Name = 
REMARK  8 active torsions:
REMARK  status: ('A' for Active; 'I' for Inactive)
REMARK    1  A    between atoms: C_2  and  C_3
REMARK    2  A    between atoms: C_6  and  O_7
REMARK    3  A    between atoms: O_7  and  C_8
REMARK    4  A    between atoms: C_8  and  C_9
REMARK    5  A    between atoms: C_9  and  O_11
REMARK    6  A    between atoms: O_11  and  C_12
REMARK    7  A    between atoms: C_12  and  C_13
REMARK    8  A    between atoms: C_13  and  C_15
REMARK                            x       y       z     vdW  Elec       q    Type
REMARK                         _______ _______ _______ _____ _____    ______ ____
ROOT
ATOM      1  C   UNL     1       4.394   6.022  18.161  0.00  0.00    +0.000 C 
ATOM      2  O   UNL     1       5.246   6.470  17.405  0.00  0.00    +0.000 OA
ENDROOT
BRANCH   1   3
ATOM      3  C   UNL     1       2.885   6.180  18.008  0.00  0.00    +0.000 C 
BRANCH   3   4
ATOM      4  O   UNL     1       2.550   7.560  17.896  0.00  0.00    +0.000 OA
BRANCH   4   8
ATOM      5  C   UNL     1       0.724   9.596  21.051  0.00  0.00    +0.000 A 
ATOM      6  C   UNL     1       0.864  10.163  19.780  0.00  0.00    +0.000 A 
ATOM      7  C   UNL     1       1.487   9.442  18.756  0.00  0.00    +0.000 A 
ATOM      8  C   UNL     1       1.994   8.160  18.989  0.00  0.00    +0.000 A 
ATOM      9  C   UNL     1       1.847   7.587  20.252  0.00  0.00    +0.000 A 
ATOM     10  C   UNL     1       1.213   8.303  21.279  0.00  0.00    +0.000 A 
BRANCH   5  12
ATOM     11  N   UNL     1      -0.446  10.918  22.955  0.00  0.00    +0.000 NA
ATOM     12  C   UNL     1       0.077  10.325  22.102  0.00  0.00    +0.000 C 
ENDBRANCH   5  12
ENDBRANCH   4   8
ENDBRANCH   3   4
ENDBRANCH   1   3
BRANCH   1  13
ATOM     13  O   UNL     1       4.668   5.233  19.243  0.00  0.00    +0.000 OA
BRANCH  13  14
ATOM     14  C   UNL     1       5.239   3.959  18.910  0.00  0.00    +0.000 C 
BRANCH  14  15
ATOM     15  C   UNL     1       4.467   2.853  19.637  0.00  0.00    +0.000 C 
ATOM     16  O   UNL     1       5.056   1.927  20.200  0.00  0.00    +0.000 OA
BRANCH  15  17
ATOM     17  C   UNL     1       3.018   2.920  19.634  0.00  0.00    +0.000 A 
ATOM     18  C   UNL     1       2.067   2.332  18.818  0.00  0.00    +0.000 A 
ATOM     19  C   UNL     1       0.790   2.762  19.257  0.00  0.00    +0.000 A 
ATOM     20  C   UNL     1       0.984   3.596  20.332  0.00  0.00    +0.000 A 
ATOM     21  N   UNL     1       2.330   3.676  20.562  0.00  0.00    +0.000 N 
ATOM     22  H   UNL     1       2.780   4.218  21.292  0.00  0.00    +0.000 HD
ENDBRANCH  15  17
ENDBRANCH  14  15
ENDBRANCH  13  14
ENDBRANCH   1  13
TORSDOF 8
ENDMDL
MODEL 5
REMARK VINA RESULT:      -6.1      3.674      6.097
REMARK  Name = 
REMARK  8 active torsions:
REMARK  status: ('A' for Active; 'I' for Inactive)
REMARK    1  A    between atoms: C_2  and  C_3
REMARK    2  A    between atoms: C_6  and  O_7
REMARK    3  A    between atoms: O_7  and  C_8
REMARK    4  A    between atoms: C_8  and  C_9
REMARK    5  A    between atoms: C_9  and  O_11
REMARK    6  A    between atoms: O_11  and  C_12
REMARK    7  A    between atoms: C_12  and  C_13
REMARK    8  A    between atoms: C_13  and  C_15
REMARK                            x       y       z     vdW  Elec       q    Type
REMARK                         _______ _______ _______ _____ _____    ______ ____
ROOT
ATOM      1  C   UNL     1       5.226   4.765  18.389  0.00  0.00    +0.000 C 
ATOM      2  O   UNL     1       5.926   4.576  19.375  0.00  0.00    +0.000 OA
ENDROOT
BRANCH   1   3
ATOM      3  C   UNL     1       4.394   6.009  18.103  0.00  0.00    +0.000 C 
BRANCH   3   4
ATOM      4  O   UNL     1       3.294   6.077  19.007  0.00  0.00    +0.000 OA
BRANCH   4   8
ATOM      5  C   UNL     1       0.983   9.546  19.239  0.00  0.00    +0.000 A 
ATOM      6  C   UNL     1       1.201   8.721  20.347  0.00  0.00    +0.000 A 
ATOM      7  C   UNL     1       1.981   7.566  20.217  0.00  0.00    +0.000 A 
ATOM      8  C   UNL     1       2.533   7.210  18.984  0.00  0.00    +0.000 A 
ATOM      9  C   UNL     1       2.327   8.035  17.879  0.00  0.00    +0.000 A 
ATOM     10  C   UNL     1       1.554   9.200  18.007  0.00  0.00    +0.000 A 
BRANCH   5  12
ATOM     11  N   UNL     1      -0.444  11.702  19.470  0.00  0.00    +0.000 NA
ATOM     12  C   UNL     1       0.194  10.736  19.367  0.00  0.00    +0.000 C 
ENDBRANCH   5  12
ENDBRANCH   4   8
ENDBRANCH   3   4
ENDBRANCH   1   3
BRANCH   1  13
ATOM     13  O   UNL     1       5.139   3.899  17.335  0.00  0.00    +0.000 OA
BRANCH  13  14
ATOM     14  C   UNL     1       3.801   3.467  17.040  0.00  0.00    +0.000 C 
BRANCH  14  15
ATOM     15  C   UNL     1       3.358   2.440  18.086  0.00  0.00    +0.000 C 
ATOM     16  O   UNL     1       3.672   1.251  17.987  0.00  0.00    +0.000 OA
BRANCH  15  17
ATOM     17  C   UNL     1       2.547   2.905  19.195  0.00  0.00    +0.000 A 
ATOM     18  C   UNL     1       1.194   3.176  19.300  0.00  0.00    +0.000 A 
ATOM     19  C   UNL     1       0.940   3.626  20.620  0.00  0.00    +0.000 A 
ATOM     20  C   UNL     1       2.138   3.617  21.294  0.00  0.00    +0.000 A 
ATOM     21  N   UNL     1       3.100   3.168  20.432  0.00  0.00    +0.000 N 
ATOM     22  H   UNL     1       4.086   3.052  20.645  0.00  0.00    +0.000 HD
ENDBRANCH  15  17
ENDBRANCH  14  15
ENDBRANCH  13  14
ENDBRANCH   1  13
TORSDOF 8
ENDMDL
MODEL 6
REMARK VINA RESULT:      -6.1      3.422      5.001
REMARK  Name = 
REMARK  8 active torsions:
REMARK  status: ('A' for Active; 'I' for Inactive)
REMARK    1  A    between atoms: C_2  and  C_3
REMARK    2  A    between atoms: C_6  and  O_7
REMARK    3  A    between atoms: O_7  and  C_8
REMARK    4  A    between atoms: C_8  and  C_9
REMARK    5  A    between atoms: C_9  and  O_11
REMARK    6  A    between atoms: O_11  and  C_12
REMARK    7  A    between atoms: C_12  and  C_13
REMARK    8  A    between atoms: C_13  and  C_15
REMARK                            x       y       z     vdW  Elec       q    Type
REMARK                         _______ _______ _______ _____ _____    ______ ____
ROOT
ATOM      1  C   UNL     1       3.586   3.544  17.748  0.00  0.00    +0.000 C 
ATOM      2  O   UNL     1       3.655   2.324  17.684  0.00  0.00    +0.000 OA
ENDROOT
BRANCH   1   3
ATOM      3  C   UNL     1       2.581   4.345  18.570  0.00  0.00    +0.000 C 
BRANCH   3   4
ATOM      4  O   UNL     1       3.251   5.387  19.274  0.00  0.00    +0.000 OA
BRANCH   4   8
ATOM      5  C   UNL     1       1.467   9.150  18.987  0.00  0.00    +0.000 A 
ATOM      6  C   UNL     1       2.157   8.570  17.918  0.00  0.00    +0.000 A 
ATOM      7  C   UNL     1       2.741   7.307  18.065  0.00  0.00    +0.000 A 
ATOM      8  C   UNL     1       2.663   6.619  19.278  0.00  0.00    +0.000 A 
ATOM      9  C   UNL     1       1.967   7.189  20.344  0.00  0.00    +0.000 A 
ATOM     10  C   UNL     1       1.370   8.451  20.198  0.00  0.00    +0.000 A 
BRANCH   5  12
ATOM     11  N   UNL     1       0.363  11.485  18.722  0.00  0.00    +0.000 NA
ATOM     12  C   UNL     1       0.856  10.439  18.840  0.00  0.00    +0.000 C 
ENDBRANCH   5  12
ENDBRANCH   4   8
ENDBRANCH   3   4
ENDBRANCH   1   3
BRANCH   1  13
ATOM     13  O   UNL     1       4.463   4.395  17.136  0.00  0.00    +0.000 OA
BRANCH  13  14
ATOM     14  C   UNL     1       5.193   3.802  16.050  0.00  0.00    +0.000 C 
BRANCH  14  15
ATOM     15  C   UNL     1       6.536   4.522  15.891  0.00  0.00    +0.000 C 
ATOM     16  O   UNL     1       7.153   4.494  14.823  0.00  0.00    +0.000 OA
BRANCH  15  17
ATOM     17  C   UNL     1       7.068   5.232  17.039  0.00  0.00    +0.000 A 
ATOM     18  C   UNL     1       7.324   6.575  17.257  0.00  0.00    +0.000 A 
ATOM     19  C   UNL     1       7.865   6.708  18.561  0.00  0.00    +0.000 A 
ATOM     20  C   UNL     1       7.923   5.451  19.113  0.00  0.00    +0.000 A 
ATOM     21  N   UNL     1       7.427   4.567  18.194  0.00  0.00    +0.000 N 
ATOM     22  H   UNL     1       7.342   3.564  18.316  0.00  0.00    +0.000 HD
ENDBRANCH  15  17
ENDBRANCH  14  15
ENDBRANCH  13  14
ENDBRANCH   1  13
TORSDOF 8
ENDMDL
MODEL 7
REMARK VINA RESULT:      -6.1      2.588      3.956
REMARK  Name = 
REMARK  8 active torsions:
REMARK  status: ('A' for Active; 'I' for Inactive)
REMARK    1  A    between atoms: C_2  and  C_3
REMARK    2  A    between atoms: C_6  and  O_7
REMARK    3  A    between atoms: O_7  and  C_8
REMARK    4  A    between atoms: C_8  and  C_9
REMARK    5  A    between atoms: C_9  and  O_11
REMARK    6  A    between atoms: O_11  and  C_12
REMARK    7  A    between atoms: C_12  and  C_13
REMARK    8  A    between atoms: C_13  and  C_15
REMARK                            x       y       z     vdW  Elec       q    Type
REMARK                         _______ _______ _______ _____ _____    ______ ____
ROOT
ATOM      1  C   UNL     1       5.012   3.361  19.065  0.00  0.00    +0.000 C 
ATOM      2  O   UNL     1       4.718   2.805  20.115  0.00  0.00    +0.000 OA
ENDROOT
BRANCH   1   3
ATOM      3  C   UNL     1       4.080   3.593  17.880  0.00  0.00    +0.000 C 
BRANCH   3   4
ATOM      4  O   UNL     1       2.736   3.717  18.336  0.00  0.00    +0.000 OA
BRANCH   4   8
ATOM      5  C   UNL     1       1.755   7.346  20.149  0.00  0.00    +0.000 A 
ATOM      6  C   UNL     1       2.357   7.283  18.888  0.00  0.00    +0.000 A 
ATOM      7  C   UNL     1       2.671   6.041  18.325  0.00  0.00    +0.000 A 
ATOM      8  C   UNL     1       2.407   4.855  19.014  0.00  0.00    +0.000 A 
ATOM      9  C   UNL     1       1.797   4.913  20.267  0.00  0.00    +0.000 A 
ATOM     10  C   UNL     1       1.471   6.157  20.832  0.00  0.00    +0.000 A 
BRANCH   5  12
ATOM     11  N   UNL     1       1.152   9.643  21.200  0.00  0.00    +0.000 NA
ATOM     12  C   UNL     1       1.422   8.615  20.728  0.00  0.00    +0.000 C 
ENDBRANCH   5  12
ENDBRANCH   4   8
ENDBRANCH   3   4
ENDBRANCH   1   3
BRANCH   1  13
ATOM     13  O   UNL     1       6.226   3.937  18.817  0.00  0.00    +0.000 OA
BRANCH  13  14
ATOM     14  C   UNL     1       6.307   5.321  19.192  0.00  0.00    +0.000 C 
BRANCH  14  15
ATOM     15  C   UNL     1       6.900   6.126  18.032  0.00  0.00    +0.000 C 
ATOM     16  O   UNL     1       7.609   7.115  18.236  0.00  0.00    +0.000 OA
BRANCH  15  17
ATOM     17  C   UNL     1       6.594   5.697  16.680  0.00  0.00    +0.000 A 
ATOM     18  C   UNL     1       5.555   6.015  15.822  0.00  0.00    +0.000 A 
ATOM     19  C   UNL     1       5.742   5.286  14.621  0.00  0.00    +0.000 A 
ATOM     20  C   UNL     1       6.890   4.544  14.766  0.00  0.00    +0.000 A 
ATOM     21  N   UNL     1       7.406   4.808  16.005  0.00  0.00    +0.000 N 
ATOM     22  H   UNL     1       8.252   4.407  16.397  0.00  0.00    +0.000 HD
ENDBRANCH  15  17
ENDBRANCH  14  15
ENDBRANCH  13  14
ENDBRANCH   1  13
TORSDOF 8
ENDMDL
MODEL 8
REMARK VINA RESULT:      -6.1      2.977      6.502
REMARK  Name = 
REMARK  8 active torsions:
REMARK  status: ('A' for Active; 'I' for Inactive)
REMARK    1  A    between atoms: C_2  and  C_3
REMARK    2  A    between atoms: C_6  and  O_7
REMARK    3  A    between atoms: O_7  and  C_8
REMARK    4  A    between atoms: C_8  and  C_9
REMARK    5  A    between atoms: C_9  and  O_11
REMARK    6  A    between atoms: O_11  and  C_12
REMARK    7  A    between atoms: C_12  and  C_13
REMARK    8  A    between atoms: C_13  and  C_15
REMARK                            x       y       z     vdW  Elec       q    Type
REMARK                         _______ _______ _______ _____ _____    ______ ____
ROOT
ATOM      1  C   UNL     1       1.931   2.630  18.390  0.00  0.00    +0.000 C 
ATOM      2  O   UNL     1       2.192   1.576  18.955  0.00  0.00    +0.000 OA
ENDROOT
BRANCH   1   3
ATOM      3  C   UNL     1       2.655   3.202  17.176  0.00  0.00    +0.000 C 
BRANCH   3   4
ATOM      4  O   UNL     1       4.053   2.954  17.283  0.00  0.00    +0.000 OA
BRANCH   4   8
ATOM      5  C   UNL     1       6.429   6.384  17.408  0.00  0.00    +0.000 A 
ATOM      6  C   UNL     1       5.695   6.028  16.272  0.00  0.00    +0.000 A 
ATOM      7  C   UNL     1       4.916   4.866  16.278  0.00  0.00    +0.000 A 
ATOM      8  C   UNL     1       4.875   4.037  17.403  0.00  0.00    +0.000 A 
ATOM      9  C   UNL     1       5.597   4.395  18.542  0.00  0.00    +0.000 A 
ATOM     10  C   UNL     1       6.371   5.566  18.543  0.00  0.00    +0.000 A 
BRANCH   5  12
ATOM     11  N   UNL     1       7.864   8.548  17.414  0.00  0.00    +0.000 NA
ATOM     12  C   UNL     1       7.221   7.580  17.412  0.00  0.00    +0.000 C 
ENDBRANCH   5  12
ENDBRANCH   4   8
ENDBRANCH   3   4
ENDBRANCH   1   3
BRANCH   1  13
ATOM     13  O   UNL     1       0.880   3.439  18.723  0.00  0.00    +0.000 OA
BRANCH  13  14
ATOM     14  C   UNL     1       0.841   3.808  20.110  0.00  0.00    +0.000 C 
BRANCH  14  15
ATOM     15  C   UNL     1       2.072   4.657  20.443  0.00  0.00    +0.000 C 
ATOM     16  O   UNL     1       2.991   4.208  21.132  0.00  0.00    +0.000 OA
BRANCH  15  17
ATOM     17  C   UNL     1       2.121   6.014  19.930  0.00  0.00    +0.000 A 
ATOM     18  C   UNL     1       2.531   6.526  18.711  0.00  0.00    +0.000 A 
ATOM     19  C   UNL     1       2.383   7.936  18.760  0.00  0.00    +0.000 A 
ATOM     20  C   UNL     1       1.882   8.254  19.999  0.00  0.00    +0.000 A 
ATOM     21  N   UNL     1       1.714   7.088  20.695  0.00  0.00    +0.000 N 
ATOM     22  H   UNL     1       1.358   7.003  21.641  0.00  0.00    +0.000 HD
ENDBRANCH  15  17
ENDBRANCH  14  15
ENDBRANCH  13  14
ENDBRANCH   1  13
TORSDOF 8
ENDMDL
MODEL 9
REMARK VINA RESULT:      -6.0      3.470      6.978
REMARK  Name = 
REMARK  8 active torsions:
REMARK  status: ('A' for Active; 'I' for Inactive)
REMARK    1  A    between atoms: C_2  and  C_3
REMARK    2  A    between atoms: C_6  and  O_7
REMARK    3  A    between atoms: O_7  and  C_8
REMARK    4  A    between atoms: C_8  and  C_9
REMARK    5  A    between atoms: C_9  and  O_11
REMARK    6  A    between atoms: O_11  and  C_12
REMARK    7  A    between atoms: C_12  and  C_13
REMARK    8  A    between atoms: C_13  and  C_15
REMARK                            x       y       z     vdW  Elec       q    Type
REMARK                         _______ _______ _______ _____ _____    ______ ____
ROOT
ATOM      1  C   UNL     1       2.182   3.413  21.232  0.00  0.00    +0.000 C 
ATOM      2  O   UNL     1       2.505   2.735  22.198  0.00  0.00    +0.000 OA
ENDROOT
BRANCH   1   3
ATOM      3  C   UNL     1       1.784   2.887  19.857  0.00  0.00    +0.000 C 
BRANCH   3   4
ATOM      4  O   UNL     1       2.910   2.290  19.221  0.00  0.00    +0.000 OA
BRANCH   4   8
ATOM      5  C   UNL     1       5.654   4.759  17.270  0.00  0.00    +0.000 A 
ATOM      6  C   UNL     1       5.806   4.389  18.611  0.00  0.00    +0.000 A 
ATOM      7  C   UNL     1       4.857   3.563  19.221  0.00  0.00    +0.000 A 
ATOM      8  C   UNL     1       3.739   3.112  18.513  0.00  0.00    +0.000 A 
ATOM      9  C   UNL     1       3.589   3.470  17.174  0.00  0.00    +0.000 A 
ATOM     10  C   UNL     1       4.544   4.291  16.554  0.00  0.00    +0.000 A 
BRANCH   5  12
ATOM     11  N   UNL     1       7.419   6.276  16.120  0.00  0.00    +0.000 NA
ATOM     12  C   UNL     1       6.628   5.598  16.636  0.00  0.00    +0.000 C 
ENDBRANCH   5  12
ENDBRANCH   4   8
ENDBRANCH   3   4
ENDBRANCH   1   3
BRANCH   1  13
ATOM     13  O   UNL     1       2.057   4.774  21.258  0.00  0.00    +0.000 OA
BRANCH  13  14
ATOM     14  C   UNL     1       1.493   5.335  20.063  0.00  0.00    +0.000 C 
BRANCH  14  15
ATOM     15  C   UNL     1       2.195   6.659  19.745  0.00  0.00    +0.000 C 
ATOM     16  O   UNL     1       3.166   6.701  18.985  0.00  0.00    +0.000 OA
BRANCH  15  17
ATOM     17  C   UNL     1       1.689   7.865  20.374  0.00  0.00    +0.000 A 
ATOM     18  C   UNL     1       1.115   9.010  19.848  0.00  0.00    +0.000 A 
ATOM     19  C   UNL     1       0.824   9.885  20.925  0.00  0.00    +0.000 A 
ATOM     20  C   UNL     1       1.221   9.259  22.082  0.00  0.00    +0.000 A 
ATOM     21  N   UNL     1       1.729   8.035  21.743  0.00  0.00    +0.000 N 
ATOM     22  H   UNL     1       2.100   7.344  22.386  0.00  0.00    +0.000 HD
ENDBRANCH  15  17
ENDBRANCH  14  15
ENDBRANCH  13  14
ENDBRANCH   1  13
TORSDOF 8
ENDMDL
