MODEL 1
REMARK VINA RESULT:      -8.4      0.000      0.000
REMARK  Name = 
REMARK  4 active torsions:
REMARK  status: ('A' for Active; 'I' for Inactive)
REMARK    1  A    between atoms: C_2  and  O_3
REMARK    2  A    between atoms: C_2  and  C_12
REMARK    3  A    between atoms: O_3  and  C_4
REMARK    4  A    between atoms: C_12  and  C_13
REMARK                            x       y       z     vdW  Elec       q    Type
REMARK                         _______ _______ _______ _____ _____    ______ ____
ROOT
ATOM      1  C   UNL     1       2.732   5.562  19.325  0.00  0.00    +0.000 C 
ATOM      2  C   UNL     1       1.987   5.006  18.074  0.00  0.00    +0.000 C 
ATOM      3  C   UNL     1       2.027   3.502  17.845  0.00  0.00    +0.000 C 
ATOM      4  C   UNL     1       0.932   2.733  18.559  0.00  0.00    +0.000 C 
ATOM      5  C   UNL     1       1.159   2.651  20.060  0.00  0.00    +0.000 C 
ATOM      6  C   UNL     1       1.108   4.004  20.768  0.00  0.00    +0.000 C 
ATOM      7  C   UNL     1       2.400   4.821  20.663  0.00  0.00    +0.000 C 
ENDROOT
BRANCH   1   8
ATOM      8  C   UNL     1       2.289   7.053  19.392  0.00  0.00    +0.000 A 
ATOM      9  C   UNL     1       1.715   7.725  20.463  0.00  0.00    +0.000 A 
ATOM     10  C   UNL     1       1.202   9.008  20.115  0.00  0.00    +0.000 A 
ATOM     11  C   UNL     1       1.421   9.304  18.791  0.00  0.00    +0.000 A 
ATOM     12  S   UNL     1       2.238   8.043  17.979  0.00  0.00    +0.000 S 
ENDBRANCH   1   8
BRANCH   1  14
ATOM     13  O   UNL     1       5.004   4.816  19.992  0.00  0.00    +0.000 OA
ATOM     14  C   UNL     1       4.297   5.459  19.219  0.00  0.00    +0.000 C 
BRANCH  14  15
ATOM     15  O   UNL     1       4.771   6.038  18.083  0.00  0.00    +0.000 OA
BRANCH  15  16
ATOM     16  C   UNL     1       4.677   5.342  16.807  0.00  0.00    +0.000 C 
ATOM     17  C   UNL     1       5.196   6.267  15.671  0.00  0.00    +0.000 C 
ATOM     18  N   UNL     1       6.559   5.886  15.192  0.00  0.00    +0.000 NA
ATOM     19  C   UNL     1       7.474   5.732  16.348  0.00  0.00    +0.000 C 
ATOM     20  C   UNL     1       7.011   4.617  17.305  0.00  0.00    +0.000 C 
ATOM     21  C   UNL     1       5.624   4.118  16.855  0.00  0.00    +0.000 C 
ATOM     22  C   UNL     1       5.797   3.534  15.435  0.00  0.00    +0.000 C 
ATOM     23  C   UNL     1       6.475   4.571  14.523  0.00  0.00    +0.000 C 
ENDBRANCH  15  16
ENDBRANCH  14  15
ENDBRANCH   1  14
TORSDOF 4
ENDMDL
MODEL 2
REMARK VINA RESULT:      -7.7      2.819      6.275
REMARK  Name = 
REMARK  4 active torsions:
REMARK  status: ('A' for Active; 'I' for Inactive)
REMARK    1  A    between atoms: C_2  and  O_3
REMARK    2  A    between atoms: C_2  and  C_12
REMARK    3  A    between atoms: O_3  and  C_4
REMARK    4  A    between atoms: C_12  and  C_13
REMARK                            x       y       z     vdW  Elec       q    Type
REMARK                         _______ _______ _______ _____ _____    ______ ____
ROOT
ATOM      1  C   UNL     1       5.829   5.714  16.638  0.00  0.00    +0.000 C 
ATOM      2  C   UNL     1       6.738   6.976  16.541  0.00  0.00    +0.000 C 
ATOM      3  C   UNL     1       7.074   7.700  17.837  0.00  0.00    +0.000 C 
ATOM      4  C   UNL     1       8.292   7.156  18.558  0.00  0.00    +0.000 C 
ATOM      5  C   UNL     1       8.029   5.810  19.215  0.00  0.00    +0.000 C 
ATOM      6  C   UNL     1       7.721   4.688  18.224  0.00  0.00    +0.000 C 
ATOM      7  C   UNL     1       6.274   4.673  17.718  0.00  0.00    +0.000 C 
ENDROOT
BRANCH   1   8
ATOM      8  C   UNL     1       5.894   5.095  15.210  0.00  0.00    +0.000 A 
ATOM      9  C   UNL     1       4.912   4.370  14.550  0.00  0.00    +0.000 A 
ATOM     10  C   UNL     1       5.381   3.736  13.363  0.00  0.00    +0.000 A 
ATOM     11  C   UNL     1       6.705   4.016  13.122  0.00  0.00    +0.000 A 
ATOM     12  S   UNL     1       7.372   5.033  14.322  0.00  0.00    +0.000 S 
ENDBRANCH   1   8
BRANCH   1  14
ATOM     13  O   UNL     1       3.795   7.125  16.828  0.00  0.00    +0.000 OA
ATOM     14  C   UNL     1       4.341   6.042  17.026  0.00  0.00    +0.000 C 
BRANCH  14  15
ATOM     15  O   UNL     1       3.676   4.941  17.469  0.00  0.00    +0.000 OA
BRANCH  15  16
ATOM     16  C   UNL     1       2.520   5.082  18.345  0.00  0.00    +0.000 C 
ATOM     17  C   UNL     1       1.432   4.049  17.939  0.00  0.00    +0.000 C 
ATOM     18  N   UNL     1       1.356   2.890  18.879  0.00  0.00    +0.000 NA
ATOM     19  C   UNL     1       2.709   2.328  19.097  0.00  0.00    +0.000 C 
ATOM     20  C   UNL     1       3.664   3.354  19.734  0.00  0.00    +0.000 C 
ATOM     21  C   UNL     1       2.961   4.725  19.785  0.00  0.00    +0.000 C 
ATOM     22  C   UNL     1       1.716   4.555  20.686  0.00  0.00    +0.000 C 
ATOM     23  C   UNL     1       0.867   3.374  20.187  0.00  0.00    +0.000 C 
ENDBRANCH  15  16
ENDBRANCH  14  15
ENDBRANCH   1  14
TORSDOF 4
ENDMDL
MODEL 3
REMARK VINA RESULT:      -7.7      1.006      1.317
REMARK  Name = 
REMARK  4 active torsions:
REMARK  status: ('A' for Active; 'I' for Inactive)
REMARK    1  A    between atoms: C_2  and  O_3
REMARK    2  A    between atoms: C_2  and  C_12
REMARK    3  A    between atoms: O_3  and  C_4
REMARK    4  A    between atoms: C_12  and  C_13
REMARK                            x       y       z     vdW  Elec       q    Type
REMARK                         _______ _______ _______ _____ _____    ______ ____
ROOT
ATOM      1  C   UNL     1       2.651   5.487  19.006  0.00  0.00    +0.000 C 
ATOM      2  C   UNL     1       1.871   4.719  17.897  0.00  0.00    +0.000 C 
ATOM      3  C   UNL     1       1.935   3.199  17.920  0.00  0.00    +0.000 C 
ATOM      4  C   UNL     1       0.886   2.543  18.796  0.00  0.00    +0.000 C 
ATOM      5  C   UNL     1       1.172   2.716  20.278  0.00  0.00    +0.000 C 
ATOM      6  C   UNL     1       1.118   4.167  20.753  0.00  0.00    +0.000 C 
ATOM      7  C   UNL     1       2.387   4.975  20.461  0.00  0.00    +0.000 C 
ENDROOT
BRANCH   1   8
ATOM      8  C   UNL     1       2.178   6.962  18.843  0.00  0.00    +0.000 A 
ATOM      9  C   UNL     1       2.290   7.774  17.723  0.00  0.00    +0.000 A 
ATOM     10  C   UNL     1       1.986   9.142  17.985  0.00  0.00    +0.000 A 
ATOM     11  C   UNL     1       1.619   9.343  19.294  0.00  0.00    +0.000 A 
ATOM     12  S   UNL     1       1.642   7.891  20.194  0.00  0.00    +0.000 S 
ENDBRANCH   1   8
BRANCH   1  14
ATOM     13  O   UNL     1       5.016   5.768  19.704  0.00  0.00    +0.000 OA
ATOM     14  C   UNL     1       4.213   5.392  18.854  0.00  0.00    +0.000 C 
BRANCH  14  15
ATOM     15  O   UNL     1       4.576   4.705  17.737  0.00  0.00    +0.000 OA
BRANCH  15  16
ATOM     16  C   UNL     1       4.859   5.413  16.496  0.00  0.00    +0.000 C 
ATOM     17  C   UNL     1       6.137   6.280  16.673  0.00  0.00    +0.000 C 
ATOM     18  N   UNL     1       7.335   5.688  16.005  0.00  0.00    +0.000 NA
ATOM     19  C   UNL     1       7.479   4.266  16.397  0.00  0.00    +0.000 C 
ATOM     20  C   UNL     1       6.265   3.423  15.963  0.00  0.00    +0.000 C 
ATOM     21  C   UNL     1       5.179   4.363  15.405  0.00  0.00    +0.000 C 
ATOM     22  C   UNL     1       5.786   5.063  14.167  0.00  0.00    +0.000 C 
ATOM     23  C   UNL     1       7.125   5.719  14.543  0.00  0.00    +0.000 C 
ENDBRANCH  15  16
ENDBRANCH  14  15
ENDBRANCH   1  14
TORSDOF 4
ENDMDL
MODEL 4
REMARK VINA RESULT:      -7.7      0.710      1.185
REMARK  Name = 
REMARK  4 active torsions:
REMARK  status: ('A' for Active; 'I' for Inactive)
REMARK    1  A    between atoms: C_2  and  O_3
REMARK    2  A    between atoms: C_2  and  C_12
REMARK    3  A    between atoms: O_3  and  C_4
REMARK    4  A    between atoms: C_12  and  C_13
REMARK                            x       y       z     vdW  Elec       q    Type
REMARK                         _______ _______ _______ _____ _____    ______ ____
ROOT
ATOM      1  C   UNL     1       2.625   5.420  19.531  0.00  0.00    +0.000 C 
ATOM      2  C   UNL     1       1.761   4.945  18.324  0.00  0.00    +0.000 C 
ATOM      3  C   UNL     1       1.795   3.463  17.979  0.00  0.00    +0.000 C 
ATOM      4  C   UNL     1       0.789   2.621  18.740  0.00  0.00    +0.000 C 
ATOM      5  C   UNL     1       1.171   2.432  20.199  0.00  0.00    +0.000 C 
ATOM      6  C   UNL     1       1.178   3.728  21.010  0.00  0.00    +0.000 C 
ATOM      7  C   UNL     1       2.442   4.575  20.835  0.00  0.00    +0.000 C 
ENDROOT
BRANCH   1   8
ATOM      8  C   UNL     1       2.173   6.894  19.757  0.00  0.00    +0.000 A 
ATOM      9  C   UNL     1       1.550   7.433  20.873  0.00  0.00    +0.000 A 
ATOM     10  C   UNL     1       1.048   8.749  20.659  0.00  0.00    +0.000 A 
ATOM     11  C   UNL     1       1.324   9.202  19.391  0.00  0.00    +0.000 A 
ATOM     12  S   UNL     1       2.181   8.045  18.472  0.00  0.00    +0.000 S 
ENDBRANCH   1   8
BRANCH   1  14
ATOM     13  O   UNL     1       5.014   5.065  20.105  0.00  0.00    +0.000 OA
ATOM     14  C   UNL     1       4.172   5.357  19.258  0.00  0.00    +0.000 C 
BRANCH  14  15
ATOM     15  O   UNL     1       4.464   5.512  17.939  0.00  0.00    +0.000 OA
BRANCH  15  16
ATOM     16  C   UNL     1       5.430   4.637  17.290  0.00  0.00    +0.000 C 
ATOM     17  C   UNL     1       4.844   4.121  15.946  0.00  0.00    +0.000 C 
ATOM     18  N   UNL     1       5.439   4.803  14.757  0.00  0.00    +0.000 NA
ATOM     19  C   UNL     1       5.392   6.273  14.943  0.00  0.00    +0.000 C 
ATOM     20  C   UNL     1       6.208   6.724  16.168  0.00  0.00    +0.000 C 
ATOM     21  C   UNL     1       6.682   5.477  16.940  0.00  0.00    +0.000 C 
ATOM     22  C   UNL     1       7.597   4.680  15.981  0.00  0.00    +0.000 C 
ATOM     23  C   UNL     1       6.862   4.420  14.654  0.00  0.00    +0.000 C 
ENDBRANCH  15  16
ENDBRANCH  14  15
ENDBRANCH   1  14
TORSDOF 4
ENDMDL
MODEL 5
REMARK VINA RESULT:      -7.6      1.025      1.720
REMARK  Name = 
REMARK  4 active torsions:
REMARK  status: ('A' for Active; 'I' for Inactive)
REMARK    1  A    between atoms: C_2  and  O_3
REMARK    2  A    between atoms: C_2  and  C_12
REMARK    3  A    between atoms: O_3  and  C_4
REMARK    4  A    between atoms: C_12  and  C_13
REMARK                            x       y       z     vdW  Elec       q    Type
REMARK                         _______ _______ _______ _____ _____    ______ ____
ROOT
ATOM      1  C   UNL     1       2.668   5.517  19.155  0.00  0.00    +0.000 C 
ATOM      2  C   UNL     1       2.162   4.759  17.891  0.00  0.00    +0.000 C 
ATOM      3  C   UNL     1       2.276   3.242  17.892  0.00  0.00    +0.000 C 
ATOM      4  C   UNL     1       1.094   2.526  18.516  0.00  0.00    +0.000 C 
ATOM      5  C   UNL     1       1.062   2.663  20.030  0.00  0.00    +0.000 C 
ATOM      6  C   UNL     1       0.858   4.097  20.517  0.00  0.00    +0.000 C 
ATOM      7  C   UNL     1       2.129   4.953  20.512  0.00  0.00    +0.000 C 
ENDROOT
BRANCH   1   8
ATOM      8  C   UNL     1       2.183   6.981  18.932  0.00  0.00    +0.000 A 
ATOM      9  C   UNL     1       2.297   7.751  17.783  0.00  0.00    +0.000 A 
ATOM     10  C   UNL     1       1.980   9.125  17.990  0.00  0.00    +0.000 A 
ATOM     11  C   UNL     1       1.600   9.372  19.288  0.00  0.00    +0.000 A 
ATOM     12  S   UNL     1       1.629   7.956  20.243  0.00  0.00    +0.000 S 
ENDBRANCH   1   8
BRANCH   1  14
ATOM     13  O   UNL     1       4.814   4.855  20.212  0.00  0.00    +0.000 OA
ATOM     14  C   UNL     1       4.229   5.477  19.328  0.00  0.00    +0.000 C 
BRANCH  14  15
ATOM     15  O   UNL     1       4.872   6.084  18.294  0.00  0.00    +0.000 OA
BRANCH  15  16
ATOM     16  C   UNL     1       6.087   5.503  17.738  0.00  0.00    +0.000 C 
ATOM     17  C   UNL     1       5.823   4.021  17.349  0.00  0.00    +0.000 C 
ATOM     18  N   UNL     1       5.672   3.828  15.875  0.00  0.00    +0.000 NA
ATOM     19  C   UNL     1       4.697   4.805  15.336  0.00  0.00    +0.000 C 
ATOM     20  C   UNL     1       5.160   6.258  15.549  0.00  0.00    +0.000 C 
ATOM     21  C   UNL     1       6.426   6.255  16.429  0.00  0.00    +0.000 C 
ATOM     22  C   UNL     1       7.512   5.482  15.646  0.00  0.00    +0.000 C 
ATOM     23  C   UNL     1       6.971   4.104  15.227  0.00  0.00    +0.000 C 
ENDBRANCH  15  16
ENDBRANCH  14  15
ENDBRANCH   1  14
TORSDOF 4
ENDMDL
MODEL 6
REMARK VINA RESULT:      -7.2      1.328      1.888
REMARK  Name = 
REMARK  4 active torsions:
REMARK  status: ('A' for Active; 'I' for Inactive)
REMARK    1  A    between atoms: C_2  and  O_3
REMARK    2  A    between atoms: C_2  and  C_12
REMARK    3  A    between atoms: O_3  and  C_4
REMARK    4  A    between atoms: C_12  and  C_13
REMARK                            x       y       z     vdW  Elec       q    Type
REMARK                         _______ _______ _______ _____ _____    ______ ____
ROOT
ATOM      1  C   UNL     1       2.568   6.555  18.861  0.00  0.00    +0.000 C 
ATOM      2  C   UNL     1       1.355   5.742  18.317  0.00  0.00    +0.000 C 
ATOM      3  C   UNL     1       1.654   4.439  17.590  0.00  0.00    +0.000 C 
ATOM      4  C   UNL     1       1.769   3.229  18.498  0.00  0.00    +0.000 C 
ATOM      5  C   UNL     1       3.051   3.230  19.313  0.00  0.00    +0.000 C 
ATOM      6  C   UNL     1       3.149   4.384  20.310  0.00  0.00    +0.000 C 
ATOM      7  C   UNL     1       3.594   5.715  19.694  0.00  0.00    +0.000 C 
ENDROOT
BRANCH   1   8
ATOM      8  C   UNL     1       1.913   7.661  19.741  0.00  0.00    +0.000 A 
ATOM      9  C   UNL     1       1.499   7.565  21.062  0.00  0.00    +0.000 A 
ATOM     10  C   UNL     1       0.715   8.675  21.490  0.00  0.00    +0.000 A 
ATOM     11  C   UNL     1       0.570   9.613  20.496  0.00  0.00    +0.000 A 
ATOM     12  S   UNL     1       1.375   9.152  19.061  0.00  0.00    +0.000 S 
ENDBRANCH   1   8
BRANCH   1  14
ATOM     13  O   UNL     1       3.088   8.146  17.029  0.00  0.00    +0.000 OA
ATOM     14  C   UNL     1       3.446   7.203  17.730  0.00  0.00    +0.000 C 
BRANCH  14  15
ATOM     15  O   UNL     1       4.711   6.702  17.717  0.00  0.00    +0.000 OA
BRANCH  15  16
ATOM     16  C   UNL     1       5.458   6.620  16.469  0.00  0.00    +0.000 C 
ATOM     17  C   UNL     1       6.978   6.524  16.778  0.00  0.00    +0.000 C 
ATOM     18  N   UNL     1       7.519   5.144  16.592  0.00  0.00    +0.000 NA
ATOM     19  C   UNL     1       6.666   4.167  17.310  0.00  0.00    +0.000 C 
ATOM     20  C   UNL     1       5.224   4.155  16.769  0.00  0.00    +0.000 C 
ATOM     21  C   UNL     1       5.062   5.305  15.755  0.00  0.00    +0.000 C 
ATOM     22  C   UNL     1       6.045   5.021  14.597  0.00  0.00    +0.000 C 
ATOM     23  C   UNL     1       7.461   4.803  15.155  0.00  0.00    +0.000 C 
ENDBRANCH  15  16
ENDBRANCH  14  15
ENDBRANCH   1  14
TORSDOF 4
ENDMDL
MODEL 7
REMARK VINA RESULT:      -7.1      2.316      5.044
REMARK  Name = 
REMARK  4 active torsions:
REMARK  status: ('A' for Active; 'I' for Inactive)
REMARK    1  A    between atoms: C_2  and  O_3
REMARK    2  A    between atoms: C_2  and  C_12
REMARK    3  A    between atoms: O_3  and  C_4
REMARK    4  A    between atoms: C_12  and  C_13
REMARK                            x       y       z     vdW  Elec       q    Type
REMARK                         _______ _______ _______ _____ _____    ______ ____
ROOT
ATOM      1  C   UNL     1       4.449   6.189  17.804  0.00  0.00    +0.000 C 
ATOM      2  C   UNL     1       4.977   5.822  19.223  0.00  0.00    +0.000 C 
ATOM      3  C   UNL     1       6.277   5.034  19.304  0.00  0.00    +0.000 C 
ATOM      4  C   UNL     1       7.528   5.890  19.307  0.00  0.00    +0.000 C 
ATOM      5  C   UNL     1       7.821   6.500  17.946  0.00  0.00    +0.000 C 
ATOM      6  C   UNL     1       6.760   7.492  17.471  0.00  0.00    +0.000 C 
ATOM      7  C   UNL     1       5.515   6.839  16.860  0.00  0.00    +0.000 C 
ENDROOT
BRANCH   1   8
ATOM      8  C   UNL     1       3.279   7.179  18.085  0.00  0.00    +0.000 A 
ATOM      9  C   UNL     1       2.831   8.219  17.282  0.00  0.00    +0.000 A 
ATOM     10  C   UNL     1       1.911   9.085  17.942  0.00  0.00    +0.000 A 
ATOM     11  C   UNL     1       1.652   8.672  19.227  0.00  0.00    +0.000 A 
ATOM     12  S   UNL     1       2.512   7.252  19.629  0.00  0.00    +0.000 S 
ENDBRANCH   1   8
BRANCH   1  14
ATOM     13  O   UNL     1       4.624   4.294  16.210  0.00  0.00    +0.000 OA
ATOM     14  C   UNL     1       3.933   4.950  16.986  0.00  0.00    +0.000 C 
BRANCH  14  15
ATOM     15  O   UNL     1       2.673   4.587  17.351  0.00  0.00    +0.000 OA
BRANCH  15  16
ATOM     16  C   UNL     1       2.363   3.195  17.647  0.00  0.00    +0.000 C 
ATOM     17  C   UNL     1       3.470   2.601  18.562  0.00  0.00    +0.000 C 
ATOM     18  N   UNL     1       3.032   2.463  19.984  0.00  0.00    +0.000 NA
ATOM     19  C   UNL     1       2.442   3.738  20.455  0.00  0.00    +0.000 C 
ATOM     20  C   UNL     1       1.195   4.131  19.642  0.00  0.00    +0.000 C 
ATOM     21  C   UNL     1       1.045   3.157  18.457  0.00  0.00    +0.000 C 
ATOM     22  C   UNL     1       0.841   1.748  19.059  0.00  0.00    +0.000 C 
ATOM     23  C   UNL     1       1.971   1.437  20.055  0.00  0.00    +0.000 C 
ENDBRANCH  15  16
ENDBRANCH  14  15
ENDBRANCH   1  14
TORSDOF 4
ENDMDL
MODEL 8
REMARK VINA RESULT:      -7.1      2.556      5.583
REMARK  Name = 
REMARK  4 active torsions:
REMARK  status: ('A' for Active; 'I' for Inactive)
REMARK    1  A    between atoms: C_2  and  O_3
REMARK    2  A    between atoms: C_2  and  C_12
REMARK    3  A    between atoms: O_3  and  C_4
REMARK    4  A    between atoms: C_12  and  C_13
REMARK                            x       y       z     vdW  Elec       q    Type
REMARK                         _______ _______ _______ _____ _____    ______ ____
ROOT
ATOM      1  C   UNL     1       5.497   6.024  17.076  0.00  0.00    +0.000 C 
ATOM      2  C   UNL     1       6.055   4.583  17.274  0.00  0.00    +0.000 C 
ATOM      3  C   UNL     1       5.336   3.449  16.560  0.00  0.00    +0.000 C 
ATOM      4  C   UNL     1       5.817   3.197  15.144  0.00  0.00    +0.000 C 
ATOM      5  C   UNL     1       5.369   4.278  14.174  0.00  0.00    +0.000 C 
ATOM      6  C   UNL     1       5.958   5.657  14.469  0.00  0.00    +0.000 C 
ATOM      7  C   UNL     1       5.241   6.424  15.585  0.00  0.00    +0.000 C 
ENDROOT
BRANCH   1   8
ATOM      8  C   UNL     1       6.583   6.938  17.718  0.00  0.00    +0.000 A 
ATOM      9  C   UNL     1       6.927   8.234  17.359  0.00  0.00    +0.000 A 
ATOM     10  C   UNL     1       8.126   8.692  17.979  0.00  0.00    +0.000 A 
ATOM     11  C   UNL     1       8.659   7.747  18.823  0.00  0.00    +0.000 A 
ATOM     12  S   UNL     1       7.717   6.322  18.863  0.00  0.00    +0.000 S 
ENDBRANCH   1   8
BRANCH   1  14
ATOM     13  O   UNL     1       3.330   7.167  17.479  0.00  0.00    +0.000 OA
ATOM     14  C   UNL     1       4.105   6.258  17.769  0.00  0.00    +0.000 C 
BRANCH  14  15
ATOM     15  O   UNL     1       3.785   5.249  18.623  0.00  0.00    +0.000 OA
BRANCH  15  16
ATOM     16  C   UNL     1       2.390   4.919  18.884  0.00  0.00    +0.000 C 
ATOM     17  C   UNL     1       1.826   4.080  17.704  0.00  0.00    +0.000 C 
ATOM     18  N   UNL     1       1.695   2.629  18.037  0.00  0.00    +0.000 NA
ATOM     19  C   UNL     1       2.963   2.128  18.617  0.00  0.00    +0.000 C 
ATOM     20  C   UNL     1       3.324   2.854  19.926  0.00  0.00    +0.000 C 
ATOM     21  C   UNL     1       2.335   4.017  20.141  0.00  0.00    +0.000 C 
ATOM     22  C   UNL     1       0.929   3.390  20.274  0.00  0.00    +0.000 C 
ATOM     23  C   UNL     1       0.650   2.474  19.070  0.00  0.00    +0.000 C 
ENDBRANCH  15  16
ENDBRANCH  14  15
ENDBRANCH   1  14
TORSDOF 4
ENDMDL
MODEL 9
REMARK VINA RESULT:      -7.1      2.666      5.463
REMARK  Name = 
REMARK  4 active torsions:
REMARK  status: ('A' for Active; 'I' for Inactive)
REMARK    1  A    between atoms: C_2  and  O_3
REMARK    2  A    between atoms: C_2  and  C_12
REMARK    3  A    between atoms: O_3  and  C_4
REMARK    4  A    between atoms: C_12  and  C_13
REMARK                            x       y       z     vdW  Elec       q    Type
REMARK                         _______ _______ _______ _____ _____    ______ ____
ROOT
ATOM      1  C   UNL     1       6.514   5.997  17.544  0.00  0.00    +0.000 C 
ATOM      2  C   UNL     1       7.460   5.040  16.757  0.00  0.00    +0.000 C 
ATOM      3  C   UNL     1       6.834   3.815  16.106  0.00  0.00    +0.000 C 
ATOM      4  C   UNL     1       6.290   4.058  14.712  0.00  0.00    +0.000 C 
ATOM      5  C   UNL     1       5.011   4.880  14.719  0.00  0.00    +0.000 C 
ATOM      6  C   UNL     1       5.194   6.305  15.240  0.00  0.00    +0.000 C 
ATOM      7  C   UNL     1       5.223   6.420  16.768  0.00  0.00    +0.000 C 
ENDROOT
BRANCH   1   8
ATOM      8  C   UNL     1       7.407   7.235  17.852  0.00  0.00    +0.000 A 
ATOM      9  C   UNL     1       8.446   7.331  18.767  0.00  0.00    +0.000 A 
ATOM     10  C   UNL     1       8.890   8.668  18.980  0.00  0.00    +0.000 A 
ATOM     11  C   UNL     1       8.201   9.566  18.200  0.00  0.00    +0.000 A 
ATOM     12  S   UNL     1       7.030   8.797  17.222  0.00  0.00    +0.000 S 
ENDBRANCH   1   8
BRANCH   1  14
ATOM     13  O   UNL     1       6.622   5.239  19.905  0.00  0.00    +0.000 OA
ATOM     14  C   UNL     1       5.962   5.374  18.878  0.00  0.00    +0.000 C 
BRANCH  14  15
ATOM     15  O   UNL     1       4.622   5.143  18.816  0.00  0.00    +0.000 OA
BRANCH  15  16
ATOM     16  C   UNL     1       4.055   3.939  19.407  0.00  0.00    +0.000 C 
ATOM     17  C   UNL     1       2.706   4.286  20.097  0.00  0.00    +0.000 C 
ATOM     18  N   UNL     1       1.520   3.835  19.308  0.00  0.00    +0.000 NA
ATOM     19  C   UNL     1       1.646   4.292  17.904  0.00  0.00    +0.000 C 
ATOM     20  C   UNL     1       2.890   3.700  17.215  0.00  0.00    +0.000 C 
ATOM     21  C   UNL     1       3.731   2.947  18.265  0.00  0.00    +0.000 C 
ATOM     22  C   UNL     1       2.848   1.797  18.803  0.00  0.00    +0.000 C 
ATOM     23  C   UNL     1       1.500   2.358  19.287  0.00  0.00    +0.000 C 
ENDBRANCH  15  16
ENDBRANCH  14  15
ENDBRANCH   1  14
TORSDOF 4
ENDMDL
