MODEL 1
REMARK VINA RESULT:      -8.3      0.000      0.000
REMARK  Name = 
REMARK  9 active torsions:
REMARK  status: ('A' for Active; 'I' for Inactive)
REMARK    1  A    between atoms: C_1  and  C_2
REMARK    2  A    between atoms: C_2  and  C_3
REMARK    3  A    between atoms: C_2  and  C_4
REMARK    4  A    between atoms: C_4  and  O_5
REMARK    5  A    between atoms: O_5  and  C_6
REMARK    6  A    between atoms: C_12  and  C_13
REMARK    7  A    between atoms: C_13  and  C_14
REMARK    8  A    between atoms: C_16  and  C_17
REMARK    9  A    between atoms: N_26  and  C_27
REMARK                            x       y       z     vdW  Elec       q    Type
REMARK                         _______ _______ _______ _____ _____    ______ ____
ROOT
ATOM      1  C   UNL     1       4.264   4.204  17.347  0.00  0.00    +0.000 A 
ATOM      2  N   UNL     1       4.148   5.431  17.842  0.00  0.00    +0.000 NA
ATOM      3  C   UNL     1       2.813   5.693  18.150  0.00  0.00    +0.000 A 
ATOM      4  C   UNL     1       1.934   4.675  17.843  0.00  0.00    +0.000 A 
ATOM      5  S   UNL     1       2.777   3.342  17.181  0.00  0.00    +0.000 S 
ENDROOT
BRANCH   3   6
ATOM      6  C   UNL     1       2.327   6.987  18.747  0.00  0.00    +0.000 A 
ATOM      7  N   UNL     1       1.987   7.129  20.019  0.00  0.00    +0.000 NA
ATOM      8  C   UNL     1       1.556   8.427  20.138  0.00  0.00    +0.000 A 
ATOM      9  C   UNL     1       1.089   9.138  21.239  0.00  0.00    +0.000 A 
ATOM     10  C   UNL     1       0.670  10.448  21.006  0.00  0.00    +0.000 A 
ATOM     11  C   UNL     1       0.716  11.028  19.727  0.00  0.00    +0.000 A 
ATOM     12  N   UNL     1       0.297  12.348  19.606  0.00  0.00    +0.000 N 
ATOM     13  C   UNL     1       0.688  13.154  18.444  0.00  0.00    +0.000 C 
ATOM     14  C   UNL     1       0.748  14.643  18.897  0.00  0.00    +0.000 C 
ATOM     15  N   UNL     1      -0.529  15.135  19.480  0.00  0.00    +0.000 NA
ATOM     16  C   UNL     1      -0.377  16.503  19.980  0.00  0.00    +0.000 C 
ATOM     17  C   UNL     1      -0.955  14.234  20.576  0.00  0.00    +0.000 C 
ATOM     18  C   UNL     1      -1.017  12.747  20.143  0.00  0.00    +0.000 C 
ATOM     19  N   UNL     1       1.238  10.363  18.653  0.00  0.00    +0.000 NA
ATOM     20  C   UNL     1       1.617   9.093  18.922  0.00  0.00    +0.000 A 
ATOM     21  N   UNL     1       2.162   8.171  18.062  0.00  0.00    +0.000 N 
ATOM     22  H   UNL     1       2.364   8.317  17.087  0.00  0.00    +0.000 HD
ENDBRANCH   3   6
BRANCH   1  23
ATOM     23  C   UNL     1       5.552   3.551  16.861  0.00  0.00    +0.000 C 
BRANCH  23  30
ATOM     24  C   UNL     1       7.038   4.953  15.269  0.00  0.00    +0.000 A 
ATOM     25  C   UNL     1       7.417   5.272  13.951  0.00  0.00    +0.000 A 
ATOM     26  C   UNL     1       6.854   4.621  12.854  0.00  0.00    +0.000 A 
ATOM     27  C   UNL     1       5.899   3.640  13.062  0.00  0.00    +0.000 A 
ATOM     28 CL   UNL     1       5.252   2.788  11.718  0.00  0.00    +0.000 Cl
ATOM     29  C   UNL     1       5.482   3.329  14.354  0.00  0.00    +0.000 A 
ATOM     30  C   UNL     1       6.024   3.989  15.479  0.00  0.00    +0.000 A 
BRANCH  24  31
ATOM     31  O   UNL     1       7.630   5.528  16.373  0.00  0.00    +0.000 OA
BRANCH  31  32
ATOM     32  C   UNL     1       7.247   6.888  16.652  0.00  0.00    +0.000 C 
BRANCH  32  34
ATOM     33  C   UNL     1       7.872   6.003  18.920  0.00  0.00    +0.000 C 
ATOM     34  C   UNL     1       7.405   7.238  18.138  0.00  0.00    +0.000 C 
ATOM     35  C   UNL     1       8.392   8.388  18.321  0.00  0.00    +0.000 C 
ENDBRANCH  32  34
ENDBRANCH  31  32
ENDBRANCH  24  31
ENDBRANCH  23  30
ENDBRANCH   1  23
TORSDOF 6
ENDMDL
MODEL 2
REMARK VINA RESULT:      -8.2      3.441      5.162
REMARK  Name = 
REMARK  9 active torsions:
REMARK  status: ('A' for Active; 'I' for Inactive)
REMARK    1  A    between atoms: C_1  and  C_2
REMARK    2  A    between atoms: C_2  and  C_3
REMARK    3  A    between atoms: C_2  and  C_4
REMARK    4  A    between atoms: C_4  and  O_5
REMARK    5  A    between atoms: O_5  and  C_6
REMARK    6  A    between atoms: C_12  and  C_13
REMARK    7  A    between atoms: C_13  and  C_14
REMARK    8  A    between atoms: C_16  and  C_17
REMARK    9  A    between atoms: N_26  and  C_27
REMARK                            x       y       z     vdW  Elec       q    Type
REMARK                         _______ _______ _______ _____ _____    ______ ____
ROOT
ATOM      1  C   UNL     1       2.929   7.001  18.809  0.00  0.00    +0.000 A 
ATOM      2  N   UNL     1       2.226   7.550  19.793  0.00  0.00    +0.000 NA
ATOM      3  C   UNL     1       1.585   8.701  19.333  0.00  0.00    +0.000 A 
ATOM      4  C   UNL     1       1.848   9.028  18.019  0.00  0.00    +0.000 A 
ATOM      5  S   UNL     1       2.893   7.870  17.316  0.00  0.00    +0.000 S 
ENDROOT
BRANCH   3   6
ATOM      6  C   UNL     1       0.690   9.561  20.184  0.00  0.00    +0.000 A 
ATOM      7  N   UNL     1       0.555   9.413  21.494  0.00  0.00    +0.000 NA
ATOM      8  C   UNL     1      -0.379  10.345  21.871  0.00  0.00    +0.000 A 
ATOM      9  C   UNL     1      -0.908  10.655  23.120  0.00  0.00    +0.000 A 
ATOM     10  C   UNL     1      -1.901  11.635  23.153  0.00  0.00    +0.000 A 
ATOM     11  C   UNL     1      -2.347  12.282  21.988  0.00  0.00    +0.000 A 
ATOM     12  N   UNL     1      -3.324  13.261  22.133  0.00  0.00    +0.000 N 
ATOM     13  C   UNL     1      -3.548  14.257  21.079  0.00  0.00    +0.000 C 
ATOM     14  C   UNL     1      -4.077  15.556  21.757  0.00  0.00    +0.000 C 
ATOM     15  N   UNL     1      -5.312  15.343  22.558  0.00  0.00    +0.000 NA
ATOM     16  C   UNL     1      -5.698  16.573  23.251  0.00  0.00    +0.000 C 
ATOM     17  C   UNL     1      -5.089  14.252  23.536  0.00  0.00    +0.000 C 
ATOM     18  C   UNL     1      -4.558  12.953  22.878  0.00  0.00    +0.000 C 
ATOM     19  N   UNL     1      -1.786  12.036  20.768  0.00  0.00    +0.000 NA
ATOM     20  C   UNL     1      -0.839  11.070  20.781  0.00  0.00    +0.000 A 
ATOM     21  N   UNL     1      -0.105  10.588  19.725  0.00  0.00    +0.000 N 
ATOM     22  H   UNL     1      -0.166  10.898  18.770  0.00  0.00    +0.000 HD
ENDBRANCH   3   6
BRANCH   1  23
ATOM     23  C   UNL     1       3.794   5.751  18.913  0.00  0.00    +0.000 C 
BRANCH  23  30
ATOM     24  C   UNL     1       2.905   3.546  17.887  0.00  0.00    +0.000 A 
ATOM     25  C   UNL     1       2.196   2.342  18.060  0.00  0.00    +0.000 A 
ATOM     26  C   UNL     1       1.664   1.982  19.298  0.00  0.00    +0.000 A 
ATOM     27  C   UNL     1       1.833   2.827  20.382  0.00  0.00    +0.000 A 
ATOM     28 CL   UNL     1       1.239   2.357  21.923  0.00  0.00    +0.000 Cl
ATOM     29  C   UNL     1       2.501   4.040  20.230  0.00  0.00    +0.000 A 
ATOM     30  C   UNL     1       3.031   4.434  18.981  0.00  0.00    +0.000 A 
BRANCH  24  31
ATOM     31  O   UNL     1       3.504   3.892  16.694  0.00  0.00    +0.000 OA
BRANCH  31  32
ATOM     32  C   UNL     1       4.935   3.747  16.648  0.00  0.00    +0.000 C 
BRANCH  32  34
ATOM     33  C   UNL     1       6.903   5.278  16.330  0.00  0.00    +0.000 C 
ATOM     34  C   UNL     1       5.589   4.775  15.716  0.00  0.00    +0.000 C 
ATOM     35  C   UNL     1       5.843   4.173  14.337  0.00  0.00    +0.000 C 
ENDBRANCH  32  34
ENDBRANCH  31  32
ENDBRANCH  24  31
ENDBRANCH  23  30
ENDBRANCH   1  23
TORSDOF 6
ENDMDL
MODEL 3
REMARK VINA RESULT:      -8.2      1.334      1.963
REMARK  Name = 
REMARK  9 active torsions:
REMARK  status: ('A' for Active; 'I' for Inactive)
REMARK    1  A    between atoms: C_1  and  C_2
REMARK    2  A    between atoms: C_2  and  C_3
REMARK    3  A    between atoms: C_2  and  C_4
REMARK    4  A    between atoms: C_4  and  O_5
REMARK    5  A    between atoms: O_5  and  C_6
REMARK    6  A    between atoms: C_12  and  C_13
REMARK    7  A    between atoms: C_13  and  C_14
REMARK    8  A    between atoms: C_16  and  C_17
REMARK    9  A    between atoms: N_26  and  C_27
REMARK                            x       y       z     vdW  Elec       q    Type
REMARK                         _______ _______ _______ _____ _____    ______ ____
ROOT
ATOM      1  C   UNL     1       4.490   4.343  17.348  0.00  0.00    +0.000 A 
ATOM      2  N   UNL     1       4.283   5.630  17.607  0.00  0.00    +0.000 NA
ATOM      3  C   UNL     1       2.958   5.827  17.997  0.00  0.00    +0.000 A 
ATOM      4  C   UNL     1       2.172   4.693  17.985  0.00  0.00    +0.000 A 
ATOM      5  S   UNL     1       3.097   3.335  17.508  0.00  0.00    +0.000 S 
ENDROOT
BRANCH   3   6
ATOM      6  C   UNL     1       2.386   7.166  18.380  0.00  0.00    +0.000 A 
ATOM      7  N   UNL     1       2.399   8.227  17.588  0.00  0.00    +0.000 NA
ATOM      8  C   UNL     1       1.838   9.239  18.326  0.00  0.00    +0.000 A 
ATOM      9  C   UNL     1       1.585  10.570  18.007  0.00  0.00    +0.000 A 
ATOM     10  C   UNL     1       1.046  11.364  19.021  0.00  0.00    +0.000 A 
ATOM     11  C   UNL     1       0.769  10.851  20.300  0.00  0.00    +0.000 A 
ATOM     12  N   UNL     1       0.211  11.720  21.230  0.00  0.00    +0.000 N 
ATOM     13  C   UNL     1      -0.484  11.203  22.415  0.00  0.00    +0.000 C 
ATOM     14  C   UNL     1      -1.572  12.242  22.820  0.00  0.00    +0.000 C 
ATOM     15  N   UNL     1      -1.025  13.601  23.076  0.00  0.00    +0.000 NA
ATOM     16  C   UNL     1      -2.105  14.551  23.348  0.00  0.00    +0.000 C 
ATOM     17  C   UNL     1      -0.233  14.047  21.906  0.00  0.00    +0.000 C 
ATOM     18  C   UNL     1       0.852  13.023  21.487  0.00  0.00    +0.000 C 
ATOM     19  N   UNL     1       0.948   9.532  20.601  0.00  0.00    +0.000 NA
ATOM     20  C   UNL     1       1.485   8.804  19.595  0.00  0.00    +0.000 A 
ATOM     21  N   UNL     1       1.796   7.466  19.589  0.00  0.00    +0.000 N 
ATOM     22  H   UNL     1       1.659   6.822  20.349  0.00  0.00    +0.000 HD
ENDBRANCH   3   6
BRANCH   1  23
ATOM     23  C   UNL     1       5.796   3.724  16.865  0.00  0.00    +0.000 C 
BRANCH  23  30
ATOM     24  C   UNL     1       7.160   5.116  15.159  0.00  0.00    +0.000 A 
ATOM     25  C   UNL     1       7.493   5.376  13.816  0.00  0.00    +0.000 A 
ATOM     26  C   UNL     1       6.952   4.625  12.773  0.00  0.00    +0.000 A 
ATOM     27  C   UNL     1       6.066   3.600  13.061  0.00  0.00    +0.000 A 
ATOM     28 CL   UNL     1       5.450   2.629  11.786  0.00  0.00    +0.000 Cl
ATOM     29  C   UNL     1       5.694   3.344  14.379  0.00  0.00    +0.000 A 
ATOM     30  C   UNL     1       6.213   4.105  15.449  0.00  0.00    +0.000 A 
BRANCH  24  31
ATOM     31  O   UNL     1       7.734   5.794  16.212  0.00  0.00    +0.000 OA
BRANCH  31  32
ATOM     32  C   UNL     1       7.199   7.103  16.481  0.00  0.00    +0.000 C 
BRANCH  32  34
ATOM     33  C   UNL     1       7.903   6.317  18.762  0.00  0.00    +0.000 C 
ATOM     34  C   UNL     1       7.374   7.507  17.951  0.00  0.00    +0.000 C 
ATOM     35  C   UNL     1       8.319   8.699  18.077  0.00  0.00    +0.000 C 
ENDBRANCH  32  34
ENDBRANCH  31  32
ENDBRANCH  24  31
ENDBRANCH  23  30
ENDBRANCH   1  23
TORSDOF 6
ENDMDL
MODEL 4
REMARK VINA RESULT:      -8.1      2.186      3.585
REMARK  Name = 
REMARK  9 active torsions:
REMARK  status: ('A' for Active; 'I' for Inactive)
REMARK    1  A    between atoms: C_1  and  C_2
REMARK    2  A    between atoms: C_2  and  C_3
REMARK    3  A    between atoms: C_2  and  C_4
REMARK    4  A    between atoms: C_4  and  O_5
REMARK    5  A    between atoms: O_5  and  C_6
REMARK    6  A    between atoms: C_12  and  C_13
REMARK    7  A    between atoms: C_13  and  C_14
REMARK    8  A    between atoms: C_16  and  C_17
REMARK    9  A    between atoms: N_26  and  C_27
REMARK                            x       y       z     vdW  Elec       q    Type
REMARK                         _______ _______ _______ _____ _____    ______ ____
ROOT
ATOM      1  C   UNL     1       2.955   4.686  18.727  0.00  0.00    +0.000 A 
ATOM      2  N   UNL     1       2.652   5.979  18.707  0.00  0.00    +0.000 NA
ATOM      3  C   UNL     1       2.015   6.336  19.896  0.00  0.00    +0.000 A 
ATOM      4  C   UNL     1       1.809   5.296  20.780  0.00  0.00    +0.000 A 
ATOM      5  S   UNL     1       2.442   3.841  20.143  0.00  0.00    +0.000 S 
ENDROOT
BRANCH   3   6
ATOM      6  C   UNL     1       1.550   7.731  20.214  0.00  0.00    +0.000 A 
ATOM      7  N   UNL     1       1.057   8.093  21.389  0.00  0.00    +0.000 NA
ATOM      8  C   UNL     1       0.710   9.414  21.246  0.00  0.00    +0.000 A 
ATOM      9  C   UNL     1       0.154  10.315  22.149  0.00  0.00    +0.000 A 
ATOM     10  C   UNL     1      -0.134  11.591  21.662  0.00  0.00    +0.000 A 
ATOM     11  C   UNL     1       0.122  11.954  20.329  0.00  0.00    +0.000 A 
ATOM     12  N   UNL     1      -0.180  13.257  19.951  0.00  0.00    +0.000 N 
ATOM     13  C   UNL     1       0.417  13.845  18.746  0.00  0.00    +0.000 C 
ATOM     14  C   UNL     1       0.525  15.383  18.971  0.00  0.00    +0.000 C 
ATOM     15  N   UNL     1      -0.778  16.026  19.286  0.00  0.00    +0.000 NA
ATOM     16  C   UNL     1      -0.595  17.447  19.588  0.00  0.00    +0.000 C 
ATOM     17  C   UNL     1      -1.409  15.336  20.435  0.00  0.00    +0.000 C 
ATOM     18  C   UNL     1      -1.521  13.804  20.230  0.00  0.00    +0.000 C 
ATOM     19  N   UNL     1       0.730  11.100  19.454  0.00  0.00    +0.000 NA
ATOM     20  C   UNL     1       0.978   9.872  19.965  0.00  0.00    +0.000 A 
ATOM     21  N   UNL     1       1.563   8.797  19.340  0.00  0.00    +0.000 N 
ATOM     22  H   UNL     1       1.902   8.773  18.393  0.00  0.00    +0.000 HD
ENDBRANCH   3   6
BRANCH   1  23
ATOM     23  C   UNL     1       3.627   3.904  17.605  0.00  0.00    +0.000 C 
BRANCH  23  30
ATOM     24  C   UNL     1       5.725   4.174  16.110  0.00  0.00    +0.000 A 
ATOM     25  C   UNL     1       7.087   4.513  16.003  0.00  0.00    +0.000 A 
ATOM     26  C   UNL     1       7.817   4.950  17.108  0.00  0.00    +0.000 A 
ATOM     27  C   UNL     1       7.191   5.053  18.339  0.00  0.00    +0.000 A 
ATOM     28 CL   UNL     1       8.067   5.656  19.687  0.00  0.00    +0.000 Cl
ATOM     29  C   UNL     1       5.853   4.692  18.479  0.00  0.00    +0.000 A 
ATOM     30  C   UNL     1       5.100   4.227  17.378  0.00  0.00    +0.000 A 
BRANCH  24  31
ATOM     31  O   UNL     1       4.962   3.809  15.022  0.00  0.00    +0.000 OA
BRANCH  31  32
ATOM     32  C   UNL     1       5.324   4.422  13.770  0.00  0.00    +0.000 C 
BRANCH  32  34
ATOM     33  C   UNL     1       4.571   3.281  11.661  0.00  0.00    +0.000 C 
ATOM     34  C   UNL     1       5.692   3.381  12.704  0.00  0.00    +0.000 C 
ATOM     35  C   UNL     1       7.014   3.740  12.030  0.00  0.00    +0.000 C 
ENDBRANCH  32  34
ENDBRANCH  31  32
ENDBRANCH  24  31
ENDBRANCH  23  30
ENDBRANCH   1  23
TORSDOF 6
ENDMDL
MODEL 5
REMARK VINA RESULT:      -7.9      3.168      4.673
REMARK  Name = 
REMARK  9 active torsions:
REMARK  status: ('A' for Active; 'I' for Inactive)
REMARK    1  A    between atoms: C_1  and  C_2
REMARK    2  A    between atoms: C_2  and  C_3
REMARK    3  A    between atoms: C_2  and  C_4
REMARK    4  A    between atoms: C_4  and  O_5
REMARK    5  A    between atoms: O_5  and  C_6
REMARK    6  A    between atoms: C_12  and  C_13
REMARK    7  A    between atoms: C_13  and  C_14
REMARK    8  A    between atoms: C_16  and  C_17
REMARK    9  A    between atoms: N_26  and  C_27
REMARK                            x       y       z     vdW  Elec       q    Type
REMARK                         _______ _______ _______ _____ _____    ______ ____
ROOT
ATOM      1  C   UNL     1       2.906   7.076  19.333  0.00  0.00    +0.000 A 
ATOM      2  N   UNL     1       2.180   7.705  20.250  0.00  0.00    +0.000 NA
ATOM      3  C   UNL     1       1.461   8.743  19.657  0.00  0.00    +0.000 A 
ATOM      4  C   UNL     1       1.688   8.910  18.306  0.00  0.00    +0.000 A 
ATOM      5  S   UNL     1       2.797   7.737  17.740  0.00  0.00    +0.000 S 
ENDROOT
BRANCH   3   6
ATOM      6  C   UNL     1       0.523   9.650  20.405  0.00  0.00    +0.000 A 
ATOM      7  N   UNL     1       0.315   9.579  21.712  0.00  0.00    +0.000 NA
ATOM      8  C   UNL     1      -0.637  10.531  21.981  0.00  0.00    +0.000 A 
ATOM      9  C   UNL     1      -1.234  10.912  23.179  0.00  0.00    +0.000 A 
ATOM     10  C   UNL     1      -2.225  11.892  23.100  0.00  0.00    +0.000 A 
ATOM     11  C   UNL     1      -2.603  12.470  21.876  0.00  0.00    +0.000 A 
ATOM     12  N   UNL     1      -3.583  13.456  21.910  0.00  0.00    +0.000 N 
ATOM     13  C   UNL     1      -3.745  14.389  20.790  0.00  0.00    +0.000 C 
ATOM     14  C   UNL     1      -4.308  15.725  21.361  0.00  0.00    +0.000 C 
ATOM     15  N   UNL     1      -5.586  15.558  22.102  0.00  0.00    +0.000 NA
ATOM     16  C   UNL     1      -6.007  16.826  22.701  0.00  0.00    +0.000 C 
ATOM     17  C   UNL     1      -5.421  14.526  23.153  0.00  0.00    +0.000 C 
ATOM     18  C   UNL     1      -4.858  13.191  22.601  0.00  0.00    +0.000 C 
ATOM     19  N   UNL     1      -1.975  12.154  20.706  0.00  0.00    +0.000 NA
ATOM     20  C   UNL     1      -1.033  11.191  20.828  0.00  0.00    +0.000 A 
ATOM     21  N   UNL     1      -0.243  10.649  19.844  0.00  0.00    +0.000 N 
ATOM     22  H   UNL     1      -0.250  10.904  18.870  0.00  0.00    +0.000 HD
ENDBRANCH   3   6
BRANCH   1  23
ATOM     23  C   UNL     1       3.851   5.908  19.582  0.00  0.00    +0.000 C 
BRANCH  23  30
ATOM     24  C   UNL     1       4.411   3.849  18.114  0.00  0.00    +0.000 A 
ATOM     25  C   UNL     1       3.980   2.653  17.509  0.00  0.00    +0.000 A 
ATOM     26  C   UNL     1       2.680   2.178  17.681  0.00  0.00    +0.000 A 
ATOM     27  C   UNL     1       1.792   2.897  18.463  0.00  0.00    +0.000 A 
ATOM     28 CL   UNL     1       0.211   2.281  18.733  0.00  0.00    +0.000 Cl
ATOM     29  C   UNL     1       2.183   4.101  19.045  0.00  0.00    +0.000 A 
ATOM     30  C   UNL     1       3.488   4.611  18.867  0.00  0.00    +0.000 A 
BRANCH  24  31
ATOM     31  O   UNL     1       5.709   4.304  18.020  0.00  0.00    +0.000 OA
BRANCH  31  32
ATOM     32  C   UNL     1       6.290   4.273  16.703  0.00  0.00    +0.000 C 
BRANCH  32  34
ATOM     33  C   UNL     1       5.296   6.175  15.396  0.00  0.00    +0.000 C 
ATOM     34  C   UNL     1       6.539   5.682  16.149  0.00  0.00    +0.000 C 
ATOM     35  C   UNL     1       6.899   6.651  17.272  0.00  0.00    +0.000 C 
ENDBRANCH  32  34
ENDBRANCH  31  32
ENDBRANCH  24  31
ENDBRANCH  23  30
ENDBRANCH   1  23
TORSDOF 6
ENDMDL
MODEL 6
REMARK VINA RESULT:      -7.9      3.135      5.141
REMARK  Name = 
REMARK  9 active torsions:
REMARK  status: ('A' for Active; 'I' for Inactive)
REMARK    1  A    between atoms: C_1  and  C_2
REMARK    2  A    between atoms: C_2  and  C_3
REMARK    3  A    between atoms: C_2  and  C_4
REMARK    4  A    between atoms: C_4  and  O_5
REMARK    5  A    between atoms: O_5  and  C_6
REMARK    6  A    between atoms: C_12  and  C_13
REMARK    7  A    between atoms: C_13  and  C_14
REMARK    8  A    between atoms: C_16  and  C_17
REMARK    9  A    between atoms: N_26  and  C_27
REMARK                            x       y       z     vdW  Elec       q    Type
REMARK                         _______ _______ _______ _____ _____    ______ ____
ROOT
ATOM      1  C   UNL     1       2.263   7.681  19.342  0.00  0.00    +0.000 A 
ATOM      2  N   UNL     1       1.424   8.412  20.068  0.00  0.00    +0.000 NA
ATOM      3  C   UNL     1       0.928   9.466  19.300  0.00  0.00    +0.000 A 
ATOM      4  C   UNL     1       1.433   9.540  18.018  0.00  0.00    +0.000 A 
ATOM      5  S   UNL     1       2.530   8.257  17.736  0.00  0.00    +0.000 S 
ENDROOT
BRANCH   3   6
ATOM      6  C   UNL     1      -0.061  10.481  19.806  0.00  0.00    +0.000 A 
ATOM      7  N   UNL     1      -1.212  10.749  19.207  0.00  0.00    +0.000 NA
ATOM      8  C   UNL     1      -1.781  11.755  19.948  0.00  0.00    +0.000 A 
ATOM      9  C   UNL     1      -2.991  12.427  19.798  0.00  0.00    +0.000 A 
ATOM     10  C   UNL     1      -3.250  13.456  20.705  0.00  0.00    +0.000 A 
ATOM     11  C   UNL     1      -2.342  13.799  21.721  0.00  0.00    +0.000 A 
ATOM     12  N   UNL     1      -2.707  14.824  22.587  0.00  0.00    +0.000 N 
ATOM     13  C   UNL     1      -2.050  14.973  23.890  0.00  0.00    +0.000 C 
ATOM     14  C   UNL     1      -3.074  15.623  24.868  0.00  0.00    +0.000 C 
ATOM     15  N   UNL     1      -3.603  16.927  24.388  0.00  0.00    +0.000 NA
ATOM     16  C   UNL     1      -4.634  17.434  25.295  0.00  0.00    +0.000 C 
ATOM     17  C   UNL     1      -4.157  16.767  23.022  0.00  0.00    +0.000 C 
ATOM     18  C   UNL     1      -3.151  16.118  22.037  0.00  0.00    +0.000 C 
ATOM     19  N   UNL     1      -1.185  13.101  21.919  0.00  0.00    +0.000 NA
ATOM     20  C   UNL     1      -0.969  12.124  21.009  0.00  0.00    +0.000 A 
ATOM     21  N   UNL     1       0.098  11.262  20.930  0.00  0.00    +0.000 N 
ATOM     22  H   UNL     1       0.885  11.232  21.556  0.00  0.00    +0.000 HD
ENDBRANCH   3   6
BRANCH   1  23
ATOM     23  C   UNL     1       3.037   6.461  19.825  0.00  0.00    +0.000 C 
BRANCH  23  30
ATOM     24  C   UNL     1       3.923   4.871  17.982  0.00  0.00    +0.000 A 
ATOM     25  C   UNL     1       3.746   3.700  17.220  0.00  0.00    +0.000 A 
ATOM     26  C   UNL     1       2.649   2.861  17.420  0.00  0.00    +0.000 A 
ATOM     27  C   UNL     1       1.712   3.184  18.387  0.00  0.00    +0.000 A 
ATOM     28 CL   UNL     1       0.398   2.120  18.682  0.00  0.00    +0.000 Cl
ATOM     29  C   UNL     1       1.846   4.355  19.131  0.00  0.00    +0.000 A 
ATOM     30  C   UNL     1       2.937   5.229  18.932  0.00  0.00    +0.000 A 
BRANCH  24  31
ATOM     31  O   UNL     1       5.033   5.678  17.857  0.00  0.00    +0.000 OA
BRANCH  31  32
ATOM     32  C   UNL     1       5.425   5.998  16.509  0.00  0.00    +0.000 C 
BRANCH  32  34
ATOM     33  C   UNL     1       7.409   4.729  17.387  0.00  0.00    +0.000 C 
ATOM     34  C   UNL     1       6.817   5.449  16.168  0.00  0.00    +0.000 C 
ATOM     35  C   UNL     1       6.748   4.502  14.973  0.00  0.00    +0.000 C 
ENDBRANCH  32  34
ENDBRANCH  31  32
ENDBRANCH  24  31
ENDBRANCH  23  30
ENDBRANCH   1  23
TORSDOF 6
ENDMDL
MODEL 7
REMARK VINA RESULT:      -7.8      2.550      4.216
REMARK  Name = 
REMARK  9 active torsions:
REMARK  status: ('A' for Active; 'I' for Inactive)
REMARK    1  A    between atoms: C_1  and  C_2
REMARK    2  A    between atoms: C_2  and  C_3
REMARK    3  A    between atoms: C_2  and  C_4
REMARK    4  A    between atoms: C_4  and  O_5
REMARK    5  A    between atoms: O_5  and  C_6
REMARK    6  A    between atoms: C_12  and  C_13
REMARK    7  A    between atoms: C_13  and  C_14
REMARK    8  A    between atoms: C_16  and  C_17
REMARK    9  A    between atoms: N_26  and  C_27
REMARK                            x       y       z     vdW  Elec       q    Type
REMARK                         _______ _______ _______ _____ _____    ______ ____
ROOT
ATOM      1  C   UNL     1       2.809   5.385  18.515  0.00  0.00    +0.000 A 
ATOM      2  N   UNL     1       2.497   6.670  18.384  0.00  0.00    +0.000 NA
ATOM      3  C   UNL     1       1.926   7.142  19.566  0.00  0.00    +0.000 A 
ATOM      4  C   UNL     1       1.775   6.195  20.559  0.00  0.00    +0.000 A 
ATOM      5  S   UNL     1       2.380   4.684  20.034  0.00  0.00    +0.000 S 
ENDROOT
BRANCH   3   6
ATOM      6  C   UNL     1       1.471   8.562  19.770  0.00  0.00    +0.000 A 
ATOM      7  N   UNL     1       1.551   9.502  18.840  0.00  0.00    +0.000 NA
ATOM      8  C   UNL     1       1.089  10.647  19.439  0.00  0.00    +0.000 A 
ATOM      9  C   UNL     1       0.935  11.939  18.945  0.00  0.00    +0.000 A 
ATOM     10  C   UNL     1       0.484  12.904  19.847  0.00  0.00    +0.000 A 
ATOM     11  C   UNL     1       0.195  12.593  21.186  0.00  0.00    +0.000 A 
ATOM     12  N   UNL     1      -0.272  13.622  21.996  0.00  0.00    +0.000 N 
ATOM     13  C   UNL     1      -0.979  13.328  23.247  0.00  0.00    +0.000 C 
ATOM     14  C   UNL     1      -1.972  14.498  23.518  0.00  0.00    +0.000 C 
ATOM     15  N   UNL     1      -1.313  15.830  23.581  0.00  0.00    +0.000 NA
ATOM     16  C   UNL     1      -2.307  16.893  23.733  0.00  0.00    +0.000 C 
ATOM     17  C   UNL     1      -0.514  16.048  22.352  0.00  0.00    +0.000 C 
ATOM     18  C   UNL     1       0.477  14.891  22.065  0.00  0.00    +0.000 C 
ATOM     19  N   UNL     1       0.275  11.316  21.663  0.00  0.00    +0.000 NA
ATOM     20  C   UNL     1       0.730  10.418  20.759  0.00  0.00    +0.000 A 
ATOM     21  N   UNL     1       0.933   9.070  20.932  0.00  0.00    +0.000 N 
ATOM     22  H   UNL     1       0.762   8.548  21.775  0.00  0.00    +0.000 HD
ENDBRANCH   3   6
BRANCH   1  23
ATOM     23  C   UNL     1       3.423   4.496  17.441  0.00  0.00    +0.000 C 
BRANCH  23  30
ATOM     24  C   UNL     1       5.662   4.279  16.157  0.00  0.00    +0.000 A 
ATOM     25  C   UNL     1       7.067   4.370  16.170  0.00  0.00    +0.000 A 
ATOM     26  C   UNL     1       7.759   4.767  17.314  0.00  0.00    +0.000 A 
ATOM     27  C   UNL     1       7.052   5.077  18.464  0.00  0.00    +0.000 A 
ATOM     28 CL   UNL     1       7.896   5.630  19.854  0.00  0.00    +0.000 Cl
ATOM     29  C   UNL     1       5.664   4.962  18.487  0.00  0.00    +0.000 A 
ATOM     30  C   UNL     1       4.944   4.543  17.347  0.00  0.00    +0.000 A 
BRANCH  24  31
ATOM     31  O   UNL     1       4.948   3.961  15.021  0.00  0.00    +0.000 OA
BRANCH  31  32
ATOM     32  C   UNL     1       5.489   4.459  13.783  0.00  0.00    +0.000 C 
BRANCH  32  34
ATOM     33  C   UNL     1       4.509   3.308  11.775  0.00  0.00    +0.000 C 
ATOM     34  C   UNL     1       5.692   3.341  12.752  0.00  0.00    +0.000 C 
ATOM     35  C   UNL     1       7.002   3.535  11.993  0.00  0.00    +0.000 C 
ENDBRANCH  32  34
ENDBRANCH  31  32
ENDBRANCH  24  31
ENDBRANCH  23  30
ENDBRANCH   1  23
TORSDOF 6
ENDMDL
MODEL 8
REMARK VINA RESULT:      -7.8      3.088      5.173
REMARK  Name = 
REMARK  9 active torsions:
REMARK  status: ('A' for Active; 'I' for Inactive)
REMARK    1  A    between atoms: C_1  and  C_2
REMARK    2  A    between atoms: C_2  and  C_3
REMARK    3  A    between atoms: C_2  and  C_4
REMARK    4  A    between atoms: C_4  and  O_5
REMARK    5  A    between atoms: O_5  and  C_6
REMARK    6  A    between atoms: C_12  and  C_13
REMARK    7  A    between atoms: C_13  and  C_14
REMARK    8  A    between atoms: C_16  and  C_17
REMARK    9  A    between atoms: N_26  and  C_27
REMARK                            x       y       z     vdW  Elec       q    Type
REMARK                         _______ _______ _______ _____ _____    ______ ____
ROOT
ATOM      1  C   UNL     1       2.567   7.262  19.176  0.00  0.00    +0.000 A 
ATOM      2  N   UNL     1       1.750   8.009  19.911  0.00  0.00    +0.000 NA
ATOM      3  C   UNL     1       1.303   9.098  19.163  0.00  0.00    +0.000 A 
ATOM      4  C   UNL     1       1.822   9.181  17.887  0.00  0.00    +0.000 A 
ATOM      5  S   UNL     1       2.871   7.864  17.586  0.00  0.00    +0.000 S 
ENDROOT
BRANCH   3   6
ATOM      6  C   UNL     1       0.348  10.139  19.684  0.00  0.00    +0.000 A 
ATOM      7  N   UNL     1      -0.770  10.488  19.065  0.00  0.00    +0.000 NA
ATOM      8  C   UNL     1      -1.312  11.490  19.832  0.00  0.00    +0.000 A 
ATOM      9  C   UNL     1      -2.483  12.227  19.677  0.00  0.00    +0.000 A 
ATOM     10  C   UNL     1      -2.719  13.229  20.619  0.00  0.00    +0.000 A 
ATOM     11  C   UNL     1      -1.826  13.485  21.673  0.00  0.00    +0.000 A 
ATOM     12  N   UNL     1      -2.167  14.490  22.571  0.00  0.00    +0.000 N 
ATOM     13  C   UNL     1      -1.542  14.553  23.897  0.00  0.00    +0.000 C 
ATOM     14  C   UNL     1      -2.562  15.212  24.873  0.00  0.00    +0.000 C 
ATOM     15  N   UNL     1      -3.013  16.560  24.434  0.00  0.00    +0.000 NA
ATOM     16  C   UNL     1      -4.045  17.080  25.333  0.00  0.00    +0.000 C 
ATOM     17  C   UNL     1      -3.533  16.484  23.048  0.00  0.00    +0.000 C 
ATOM     18  C   UNL     1      -2.532  15.826  22.065  0.00  0.00    +0.000 C 
ATOM     19  N   UNL     1      -0.711  12.723  21.874  0.00  0.00    +0.000 NA
ATOM     20  C   UNL     1      -0.514  11.774  20.930  0.00  0.00    +0.000 A 
ATOM     21  N   UNL     1       0.512  10.865  20.844  0.00  0.00    +0.000 N 
ATOM     22  H   UNL     1       1.277  10.771  21.490  0.00  0.00    +0.000 HD
ENDBRANCH   3   6
BRANCH   1  23
ATOM     23  C   UNL     1       3.289   6.002  19.637  0.00  0.00    +0.000 C 
BRANCH  23  30
ATOM     24  C   UNL     1       3.491   4.099  17.892  0.00  0.00    +0.000 A 
ATOM     25  C   UNL     1       4.243   3.474  16.879  0.00  0.00    +0.000 A 
ATOM     26  C   UNL     1       5.475   3.983  16.469  0.00  0.00    +0.000 A 
ATOM     27  C   UNL     1       5.973   5.127  17.071  0.00  0.00    +0.000 A 
ATOM     28 CL   UNL     1       7.457   5.795  16.522  0.00  0.00    +0.000 Cl
ATOM     29  C   UNL     1       5.264   5.744  18.099  0.00  0.00    +0.000 A 
ATOM     30  C   UNL     1       4.024   5.235  18.544  0.00  0.00    +0.000 A 
BRANCH  24  31
ATOM     31  O   UNL     1       2.238   3.661  18.266  0.00  0.00    +0.000 OA
BRANCH  31  32
ATOM     32  C   UNL     1       2.207   2.466  19.069  0.00  0.00    +0.000 C 
BRANCH  32  34
ATOM     33  C   UNL     1       2.498   2.736  21.551  0.00  0.00    +0.000 C 
ATOM     34  C   UNL     1       1.481   2.687  20.403  0.00  0.00    +0.000 C 
ATOM     35  C   UNL     1       0.658   3.972  20.366  0.00  0.00    +0.000 C 
ENDBRANCH  32  34
ENDBRANCH  31  32
ENDBRANCH  24  31
ENDBRANCH  23  30
ENDBRANCH   1  23
TORSDOF 6
ENDMDL
MODEL 9
REMARK VINA RESULT:      -7.7      3.191      5.217
REMARK  Name = 
REMARK  9 active torsions:
REMARK  status: ('A' for Active; 'I' for Inactive)
REMARK    1  A    between atoms: C_1  and  C_2
REMARK    2  A    between atoms: C_2  and  C_3
REMARK    3  A    between atoms: C_2  and  C_4
REMARK    4  A    between atoms: C_4  and  O_5
REMARK    5  A    between atoms: O_5  and  C_6
REMARK    6  A    between atoms: C_12  and  C_13
REMARK    7  A    between atoms: C_13  and  C_14
REMARK    8  A    between atoms: C_16  and  C_17
REMARK    9  A    between atoms: N_26  and  C_27
REMARK                            x       y       z     vdW  Elec       q    Type
REMARK                         _______ _______ _______ _____ _____    ______ ____
ROOT
ATOM      1  C   UNL     1       2.152   7.694  19.527  0.00  0.00    +0.000 A 
ATOM      2  N   UNL     1       1.421   8.613  20.150  0.00  0.00    +0.000 NA
ATOM      3  C   UNL     1       1.047   9.611  19.250  0.00  0.00    +0.000 A 
ATOM      4  C   UNL     1       1.535   9.453  17.969  0.00  0.00    +0.000 A 
ATOM      5  S   UNL     1       2.460   8.018  17.859  0.00  0.00    +0.000 S 
ENDROOT
BRANCH   3   6
ATOM      6  C   UNL     1       0.198  10.798  19.619  0.00  0.00    +0.000 A 
ATOM      7  N   UNL     1       0.453  12.036  19.222  0.00  0.00    +0.000 NA
ATOM      8  C   UNL     1      -0.514  12.813  19.812  0.00  0.00    +0.000 A 
ATOM      9  C   UNL     1      -0.751  14.183  19.747  0.00  0.00    +0.000 A 
ATOM     10  C   UNL     1      -1.801  14.673  20.525  0.00  0.00    +0.000 A 
ATOM     11  C   UNL     1      -2.584  13.831  21.332  0.00  0.00    +0.000 A 
ATOM     12  N   UNL     1      -3.621  14.417  22.050  0.00  0.00    +0.000 N 
ATOM     13  C   UNL     1      -4.723  13.602  22.573  0.00  0.00    +0.000 C 
ATOM     14  C   UNL     1      -5.994  14.501  22.632  0.00  0.00    +0.000 C 
ATOM     15  N   UNL     1      -5.810  15.731  23.447  0.00  0.00    +0.000 NA
ATOM     16  C   UNL     1      -6.999  16.582  23.378  0.00  0.00    +0.000 C 
ATOM     17  C   UNL     1      -4.620  16.474  22.967  0.00  0.00    +0.000 C 
ATOM     18  C   UNL     1      -3.348  15.592  22.898  0.00  0.00    +0.000 C 
ATOM     19  N   UNL     1      -2.405  12.478  21.349  0.00  0.00    +0.000 NA
ATOM     20  C   UNL     1      -1.369  12.049  20.593  0.00  0.00    +0.000 A 
ATOM     21  N   UNL     1      -0.927  10.761  20.413  0.00  0.00    +0.000 N 
ATOM     22  H   UNL     1      -1.327   9.934  20.824  0.00  0.00    +0.000 HD
ENDBRANCH   3   6
BRANCH   1  23
ATOM     23  C   UNL     1       2.778   6.461  20.166  0.00  0.00    +0.000 C 
BRANCH  23  30
ATOM     24  C   UNL     1       4.032   4.906  18.518  0.00  0.00    +0.000 A 
ATOM     25  C   UNL     1       4.028   3.739  17.730  0.00  0.00    +0.000 A 
ATOM     26  C   UNL     1       2.931   2.879  17.709  0.00  0.00    +0.000 A 
ATOM     27  C   UNL     1       1.819   3.176  18.479  0.00  0.00    +0.000 A 
ATOM     28 CL   UNL     1       0.493   2.085  18.509  0.00  0.00    +0.000 Cl
ATOM     29  C   UNL     1       1.784   4.341  19.242  0.00  0.00    +0.000 A 
ATOM     30  C   UNL     1       2.876   5.237  19.263  0.00  0.00    +0.000 A 
BRANCH  24  31
ATOM     31  O   UNL     1       5.129   5.734  18.615  0.00  0.00    +0.000 OA
BRANCH  31  32
ATOM     32  C   UNL     1       5.899   5.896  17.409  0.00  0.00    +0.000 C 
BRANCH  32  34
ATOM     33  C   UNL     1       7.616   7.728  17.523  0.00  0.00    +0.000 C 
ATOM     34  C   UNL     1       7.369   6.225  17.703  0.00  0.00    +0.000 C 
ATOM     35  C   UNL     1       7.750   5.788  19.115  0.00  0.00    +0.000 C 
ENDBRANCH  32  34
ENDBRANCH  31  32
ENDBRANCH  24  31
ENDBRANCH  23  30
ENDBRANCH   1  23
TORSDOF 6
ENDMDL
