MODEL 1
REMARK VINA RESULT:      -7.5      0.000      0.000
REMARK  Name = 
REMARK  3 active torsions:
REMARK  status: ('A' for Active; 'I' for Inactive)
REMARK    1  A    between atoms: C_1  and  C_2
REMARK    2  A    between atoms: C_10  and  C_11
REMARK    3  A    between atoms: N_13  and  C_14
REMARK                            x       y       z     vdW  Elec       q    Type
REMARK                         _______ _______ _______ _____ _____    ______ ____
ROOT
ATOM      1  C   UNL     1       7.106   5.997  17.708  0.00  0.00    +0.000 C 
ATOM      2  C   UNL     1       6.863   5.384  16.380  0.00  0.00    +0.000 A 
ATOM      3  N   UNL     1       7.647   5.755  15.317  0.00  0.00    +0.000 NA
ATOM      4  C   UNL     1       7.192   5.078  14.293  0.00  0.00    +0.000 A 
ATOM      5  C   UNL     1       7.637   5.053  12.940  0.00  0.00    +0.000 A 
ATOM      6  C   UNL     1       7.000   4.282  12.039  0.00  0.00    +0.000 A 
ATOM      7  C   UNL     1       5.869   3.458  12.420  0.00  0.00    +0.000 A 
ATOM      8  C   UNL     1       5.458   3.458  13.705  0.00  0.00    +0.000 A 
ATOM      9  N   UNL     1       6.105   4.272  14.643  0.00  0.00    +0.000 N 
ATOM     10  C   UNL     1       5.879   4.470  16.002  0.00  0.00    +0.000 A 
ENDROOT
BRANCH  10  11
ATOM     11  C   UNL     1       4.883   3.862  16.865  0.00  0.00    +0.000 C 
ATOM     12  O   UNL     1       4.789   2.651  17.026  0.00  0.00    +0.000 OA
ATOM     13  N   UNL     1       4.097   4.752  17.559  0.00  0.00    +0.000 N 
ATOM     14  H   UNL     1       4.401   5.715  17.555  0.00  0.00    +0.000 HD
BRANCH  13  15
ATOM     15  C   UNL     1       3.115   4.417  18.583  0.00  0.00    +0.000 C 
ATOM     16  C   UNL     1       1.775   3.913  18.035  0.00  0.00    +0.000 C 
ATOM     17  C   UNL     1       0.976   3.263  19.167  0.00  0.00    +0.000 C 
ATOM     18  C   UNL     1       0.780   4.205  20.357  0.00  0.00    +0.000 C 
ATOM     19  C   UNL     1       2.073   4.892  20.805  0.00  0.00    +0.000 C 
ATOM     20  C   UNL     1       2.855   5.503  19.633  0.00  0.00    +0.000 C 
ENDBRANCH  13  15
ENDBRANCH  10  11
TORSDOF 2
ENDMDL
MODEL 2
REMARK VINA RESULT:      -7.5      0.335      1.207
REMARK  Name = 
REMARK  3 active torsions:
REMARK  status: ('A' for Active; 'I' for Inactive)
REMARK    1  A    between atoms: C_1  and  C_2
REMARK    2  A    between atoms: C_10  and  C_11
REMARK    3  A    between atoms: N_13  and  C_14
REMARK                            x       y       z     vdW  Elec       q    Type
REMARK                         _______ _______ _______ _____ _____    ______ ____
ROOT
ATOM      1  C   UNL     1       7.010   6.082  17.702  0.00  0.00    +0.000 C 
ATOM      2  C   UNL     1       6.781   5.443  16.382  0.00  0.00    +0.000 A 
ATOM      3  N   UNL     1       7.609   5.755  15.335  0.00  0.00    +0.000 NA
ATOM      4  C   UNL     1       7.158   5.069  14.315  0.00  0.00    +0.000 A 
ATOM      5  C   UNL     1       7.642   4.990  12.977  0.00  0.00    +0.000 A 
ATOM      6  C   UNL     1       7.001   4.220  12.078  0.00  0.00    +0.000 A 
ATOM      7  C   UNL     1       5.828   3.451  12.446  0.00  0.00    +0.000 A 
ATOM      8  C   UNL     1       5.380   3.502  13.717  0.00  0.00    +0.000 A 
ATOM      9  N   UNL     1       6.031   4.315  14.653  0.00  0.00    +0.000 N 
ATOM     10  C   UNL     1       5.774   4.558  15.999  0.00  0.00    +0.000 A 
ENDROOT
BRANCH  10  11
ATOM     11  C   UNL     1       4.729   4.012  16.847  0.00  0.00    +0.000 C 
ATOM     12  O   UNL     1       4.718   2.847  17.226  0.00  0.00    +0.000 OA
ATOM     13  N   UNL     1       3.788   4.923  17.266  0.00  0.00    +0.000 N 
ATOM     14  H   UNL     1       4.008   5.897  17.111  0.00  0.00    +0.000 HD
BRANCH  13  15
ATOM     15  C   UNL     1       2.714   4.675  18.220  0.00  0.00    +0.000 C 
ATOM     16  C   UNL     1       3.098   4.924  19.683  0.00  0.00    +0.000 C 
ATOM     17  C   UNL     1       1.829   4.984  20.536  0.00  0.00    +0.000 C 
ATOM     18  C   UNL     1       0.964   3.730  20.386  0.00  0.00    +0.000 C 
ATOM     19  C   UNL     1       0.731   3.327  18.926  0.00  0.00    +0.000 C 
ATOM     20  C   UNL     1       2.027   3.310  18.104  0.00  0.00    +0.000 C 
ENDBRANCH  13  15
ENDBRANCH  10  11
TORSDOF 2
ENDMDL
MODEL 3
REMARK VINA RESULT:      -7.5      1.243      1.246
REMARK  Name = 
REMARK  3 active torsions:
REMARK  status: ('A' for Active; 'I' for Inactive)
REMARK    1  A    between atoms: C_1  and  C_2
REMARK    2  A    between atoms: C_10  and  C_11
REMARK    3  A    between atoms: N_13  and  C_14
REMARK                            x       y       z     vdW  Elec       q    Type
REMARK                         _______ _______ _______ _____ _____    ______ ____
ROOT
ATOM      1  C   UNL     1       7.327   6.382  17.474  0.00  0.00    +0.000 C 
ATOM      2  C   UNL     1       6.893   5.644  16.262  0.00  0.00    +0.000 A 
ATOM      3  N   UNL     1       7.714   5.620  15.163  0.00  0.00    +0.000 NA
ATOM      4  C   UNL     1       7.069   4.927  14.259  0.00  0.00    +0.000 A 
ATOM      5  C   UNL     1       7.453   4.566  12.935  0.00  0.00    +0.000 A 
ATOM      6  C   UNL     1       6.611   3.851  12.166  0.00  0.00    +0.000 A 
ATOM      7  C   UNL     1       5.317   3.423  12.663  0.00  0.00    +0.000 A 
ATOM      8  C   UNL     1       4.959   3.740  13.924  0.00  0.00    +0.000 A 
ATOM      9  N   UNL     1       5.823   4.500  14.723  0.00  0.00    +0.000 N 
ATOM     10  C   UNL     1       5.696   4.969  16.027  0.00  0.00    +0.000 A 
ENDROOT
BRANCH  10  11
ATOM     11  C   UNL     1       4.602   4.790  16.966  0.00  0.00    +0.000 C 
ATOM     12  O   UNL     1       3.743   5.642  17.158  0.00  0.00    +0.000 OA
ATOM     13  N   UNL     1       4.553   3.556  17.569  0.00  0.00    +0.000 N 
ATOM     14  H   UNL     1       5.146   2.840  17.174  0.00  0.00    +0.000 HD
BRANCH  13  15
ATOM     15  C   UNL     1       3.495   3.068  18.446  0.00  0.00    +0.000 C 
ATOM     16  C   UNL     1       2.086   3.155  17.848  0.00  0.00    +0.000 C 
ATOM     17  C   UNL     1       1.127   2.304  18.684  0.00  0.00    +0.000 C 
ATOM     18  C   UNL     1       1.137   2.697  20.163  0.00  0.00    +0.000 C 
ATOM     19  C   UNL     1       2.547   2.825  20.746  0.00  0.00    +0.000 C 
ATOM     20  C   UNL     1       3.480   3.661  19.860  0.00  0.00    +0.000 C 
ENDBRANCH  13  15
ENDBRANCH  10  11
TORSDOF 2
ENDMDL
MODEL 4
REMARK VINA RESULT:      -7.4      1.228      1.723
REMARK  Name = 
REMARK  3 active torsions:
REMARK  status: ('A' for Active; 'I' for Inactive)
REMARK    1  A    between atoms: C_1  and  C_2
REMARK    2  A    between atoms: C_10  and  C_11
REMARK    3  A    between atoms: N_13  and  C_14
REMARK                            x       y       z     vdW  Elec       q    Type
REMARK                         _______ _______ _______ _____ _____    ______ ____
ROOT
ATOM      1  C   UNL     1       7.444   6.448  17.202  0.00  0.00    +0.000 C 
ATOM      2  C   UNL     1       6.932   5.681  16.040  0.00  0.00    +0.000 A 
ATOM      3  N   UNL     1       7.756   5.466  14.965  0.00  0.00    +0.000 NA
ATOM      4  C   UNL     1       7.037   4.793  14.102  0.00  0.00    +0.000 A 
ATOM      5  C   UNL     1       7.386   4.284  12.817  0.00  0.00    +0.000 A 
ATOM      6  C   UNL     1       6.468   3.626  12.086  0.00  0.00    +0.000 A 
ATOM      7  C   UNL     1       5.123   3.408  12.586  0.00  0.00    +0.000 A 
ATOM      8  C   UNL     1       4.795   3.866  13.812  0.00  0.00    +0.000 A 
ATOM      9  N   UNL     1       5.740   4.568  14.569  0.00  0.00    +0.000 N 
ATOM     10  C   UNL     1       5.661   5.149  15.831  0.00  0.00    +0.000 A 
ENDROOT
BRANCH  10  11
ATOM     11  C   UNL     1       4.542   5.186  16.757  0.00  0.00    +0.000 C 
ATOM     12  O   UNL     1       3.909   6.207  16.996  0.00  0.00    +0.000 OA
ATOM     13  N   UNL     1       4.189   3.968  17.288  0.00  0.00    +0.000 N 
ATOM     14  H   UNL     1       4.600   3.154  16.853  0.00  0.00    +0.000 HD
BRANCH  13  15
ATOM     15  C   UNL     1       3.033   3.701  18.134  0.00  0.00    +0.000 C 
ATOM     16  C   UNL     1       3.244   4.027  19.617  0.00  0.00    +0.000 C 
ATOM     17  C   UNL     1       1.890   4.054  20.329  0.00  0.00    +0.000 C 
ATOM     18  C   UNL     1       1.108   2.752  20.144  0.00  0.00    +0.000 C 
ATOM     19  C   UNL     1       1.052   2.281  18.688  0.00  0.00    +0.000 C 
ATOM     20  C   UNL     1       2.427   2.298  18.007  0.00  0.00    +0.000 C 
ENDBRANCH  13  15
ENDBRANCH  10  11
TORSDOF 2
ENDMDL
MODEL 5
REMARK VINA RESULT:      -7.4      1.013      1.064
REMARK  Name = 
REMARK  3 active torsions:
REMARK  status: ('A' for Active; 'I' for Inactive)
REMARK    1  A    between atoms: C_1  and  C_2
REMARK    2  A    between atoms: C_10  and  C_11
REMARK    3  A    between atoms: N_13  and  C_14
REMARK                            x       y       z     vdW  Elec       q    Type
REMARK                         _______ _______ _______ _____ _____    ______ ____
ROOT
ATOM      1  C   UNL     1       7.552   6.601  18.351  0.00  0.00    +0.000 C 
ATOM      2  C   UNL     1       7.163   5.839  17.139  0.00  0.00    +0.000 A 
ATOM      3  N   UNL     1       7.742   6.154  15.935  0.00  0.00    +0.000 NA
ATOM      4  C   UNL     1       7.196   5.346  15.062  0.00  0.00    +0.000 A 
ATOM      5  C   UNL     1       7.431   5.214  13.663  0.00  0.00    +0.000 A 
ATOM      6  C   UNL     1       6.733   4.313  12.948  0.00  0.00    +0.000 A 
ATOM      7  C   UNL     1       5.748   3.454  13.578  0.00  0.00    +0.000 A 
ATOM      8  C   UNL     1       5.539   3.556  14.906  0.00  0.00    +0.000 A 
ATOM      9  N   UNL     1       6.249   4.506  15.652  0.00  0.00    +0.000 N 
ATOM     10  C   UNL     1       6.216   4.824  17.006  0.00  0.00    +0.000 A 
ENDROOT
BRANCH  10  11
ATOM     11  C   UNL     1       5.418   4.239  18.069  0.00  0.00    +0.000 C 
ATOM     12  O   UNL     1       5.902   3.825  19.115  0.00  0.00    +0.000 OA
ATOM     13  N   UNL     1       4.061   4.255  17.850  0.00  0.00    +0.000 N 
ATOM     14  H   UNL     1       3.738   4.829  17.084  0.00  0.00    +0.000 HD
BRANCH  13  15
ATOM     15  C   UNL     1       3.031   3.854  18.800  0.00  0.00    +0.000 C 
ATOM     16  C   UNL     1       1.719   3.391  18.155  0.00  0.00    +0.000 C 
ATOM     17  C   UNL     1       0.867   2.669  19.201  0.00  0.00    +0.000 C 
ATOM     18  C   UNL     1       0.612   3.528  20.441  0.00  0.00    +0.000 C 
ATOM     19  C   UNL     1       1.882   4.181  20.996  0.00  0.00    +0.000 C 
ATOM     20  C   UNL     1       2.718   4.867  19.907  0.00  0.00    +0.000 C 
ENDBRANCH  13  15
ENDBRANCH  10  11
TORSDOF 2
ENDMDL
MODEL 6
REMARK VINA RESULT:      -7.4      1.597      1.919
REMARK  Name = 
REMARK  3 active torsions:
REMARK  status: ('A' for Active; 'I' for Inactive)
REMARK    1  A    between atoms: C_1  and  C_2
REMARK    2  A    between atoms: C_10  and  C_11
REMARK    3  A    between atoms: N_13  and  C_14
REMARK                            x       y       z     vdW  Elec       q    Type
REMARK                         _______ _______ _______ _____ _____    ______ ____
ROOT
ATOM      1  C   UNL     1       7.797   7.060  18.513  0.00  0.00    +0.000 C 
ATOM      2  C   UNL     1       7.269   6.174  17.446  0.00  0.00    +0.000 A 
ATOM      3  N   UNL     1       7.728   6.324  16.162  0.00  0.00    +0.000 NA
ATOM      4  C   UNL     1       7.077   5.438  15.452  0.00  0.00    +0.000 A 
ATOM      5  C   UNL     1       7.164   5.133  14.062  0.00  0.00    +0.000 A 
ATOM      6  C   UNL     1       6.377   4.178  13.535  0.00  0.00    +0.000 A 
ATOM      7  C   UNL     1       5.443   3.433  14.359  0.00  0.00    +0.000 A 
ATOM      8  C   UNL     1       5.374   3.700  15.680  0.00  0.00    +0.000 A 
ATOM      9  N   UNL     1       6.177   4.706  16.230  0.00  0.00    +0.000 N 
ATOM     10  C   UNL     1       6.291   5.183  17.532  0.00  0.00    +0.000 A 
ENDROOT
BRANCH  10  11
ATOM     11  C   UNL     1       5.594   4.755  18.732  0.00  0.00    +0.000 C 
ATOM     12  O   UNL     1       6.118   4.744  19.840  0.00  0.00    +0.000 OA
ATOM     13  N   UNL     1       4.269   4.437  18.550  0.00  0.00    +0.000 N 
ATOM     14  H   UNL     1       3.862   4.707  17.666  0.00  0.00    +0.000 HD
BRANCH  13  15
ATOM     15  C   UNL     1       3.311   4.106  19.598  0.00  0.00    +0.000 C 
ATOM     16  C   UNL     1       3.467   2.694  20.174  0.00  0.00    +0.000 C 
ATOM     17  C   UNL     1       2.674   2.589  21.479  0.00  0.00    +0.000 C 
ATOM     18  C   UNL     1       1.201   2.964  21.298  0.00  0.00    +0.000 C 
ATOM     19  C   UNL     1       1.000   4.277  20.535  0.00  0.00    +0.000 C 
ATOM     20  C   UNL     1       1.838   4.349  19.251  0.00  0.00    +0.000 C 
ENDBRANCH  13  15
ENDBRANCH  10  11
TORSDOF 2
ENDMDL
MODEL 7
REMARK VINA RESULT:      -7.1      1.462      6.564
REMARK  Name = 
REMARK  3 active torsions:
REMARK  status: ('A' for Active; 'I' for Inactive)
REMARK    1  A    between atoms: C_1  and  C_2
REMARK    2  A    between atoms: C_10  and  C_11
REMARK    3  A    between atoms: N_13  and  C_14
REMARK                            x       y       z     vdW  Elec       q    Type
REMARK                         _______ _______ _______ _____ _____    ______ ____
ROOT
ATOM      1  C   UNL     1       6.763   5.561  19.094  0.00  0.00    +0.000 C 
ATOM      2  C   UNL     1       5.367   5.076  18.965  0.00  0.00    +0.000 A 
ATOM      3  N   UNL     1       4.661   4.760  20.098  0.00  0.00    +0.000 NA
ATOM      4  C   UNL     1       3.492   4.348  19.678  0.00  0.00    +0.000 A 
ATOM      5  C   UNL     1       2.354   3.911  20.417  0.00  0.00    +0.000 A 
ATOM      6  C   UNL     1       1.246   3.512  19.767  0.00  0.00    +0.000 A 
ATOM      7  C   UNL     1       1.176   3.529  18.318  0.00  0.00    +0.000 A 
ATOM      8  C   UNL     1       2.241   3.965  17.614  0.00  0.00    +0.000 A 
ATOM      9  N   UNL     1       3.403   4.364  18.284  0.00  0.00    +0.000 N 
ATOM     10  C   UNL     1       4.625   4.832  17.810  0.00  0.00    +0.000 A 
ENDROOT
BRANCH  10  11
ATOM     11  C   UNL     1       5.054   5.057  16.440  0.00  0.00    +0.000 C 
ATOM     12  O   UNL     1       4.908   6.128  15.863  0.00  0.00    +0.000 OA
ATOM     13  N   UNL     1       5.712   4.000  15.859  0.00  0.00    +0.000 N 
ATOM     14  H   UNL     1       6.002   3.257  16.479  0.00  0.00    +0.000 HD
BRANCH  13  15
ATOM     15  C   UNL     1       6.357   4.001  14.552  0.00  0.00    +0.000 C 
ATOM     16  C   UNL     1       7.151   5.275  14.239  0.00  0.00    +0.000 C 
ATOM     17  C   UNL     1       8.059   5.023  13.033  0.00  0.00    +0.000 C 
ATOM     18  C   UNL     1       7.282   4.530  11.810  0.00  0.00    +0.000 C 
ATOM     19  C   UNL     1       6.316   3.385  12.130  0.00  0.00    +0.000 C 
ATOM     20  C   UNL     1       5.448   3.669  13.363  0.00  0.00    +0.000 C 
ENDBRANCH  13  15
ENDBRANCH  10  11
TORSDOF 2
ENDMDL
MODEL 8
REMARK VINA RESULT:      -7.1      1.530      6.502
REMARK  Name = 
REMARK  3 active torsions:
REMARK  status: ('A' for Active; 'I' for Inactive)
REMARK    1  A    between atoms: C_1  and  C_2
REMARK    2  A    between atoms: C_10  and  C_11
REMARK    3  A    between atoms: N_13  and  C_14
REMARK                            x       y       z     vdW  Elec       q    Type
REMARK                         _______ _______ _______ _____ _____    ______ ____
ROOT
ATOM      1  C   UNL     1       6.759   5.553  19.072  0.00  0.00    +0.000 C 
ATOM      2  C   UNL     1       5.348   5.106  18.968  0.00  0.00    +0.000 A 
ATOM      3  N   UNL     1       4.700   4.669  20.095  0.00  0.00    +0.000 NA
ATOM      4  C   UNL     1       3.501   4.325  19.698  0.00  0.00    +0.000 A 
ATOM      5  C   UNL     1       2.397   3.821  20.445  0.00  0.00    +0.000 A 
ATOM      6  C   UNL     1       1.246   3.516  19.817  0.00  0.00    +0.000 A 
ATOM      7  C   UNL     1       1.098   3.703  18.386  0.00  0.00    +0.000 A 
ATOM      8  C   UNL     1       2.130   4.204  17.677  0.00  0.00    +0.000 A 
ATOM      9  N   UNL     1       3.336   4.506  18.322  0.00  0.00    +0.000 N 
ATOM     10  C   UNL     1       4.539   5.009  17.836  0.00  0.00    +0.000 A 
ENDROOT
BRANCH  10  11
ATOM     11  C   UNL     1       4.896   5.387  16.480  0.00  0.00    +0.000 C 
ATOM     12  O   UNL     1       4.863   6.545  16.079  0.00  0.00    +0.000 OA
ATOM     13  N   UNL     1       5.355   4.357  15.694  0.00  0.00    +0.000 N 
ATOM     14  H   UNL     1       5.580   3.495  16.171  0.00  0.00    +0.000 HD
BRANCH  13  15
ATOM     15  C   UNL     1       5.899   4.478  14.347  0.00  0.00    +0.000 C 
ATOM     16  C   UNL     1       5.667   3.252  13.457  0.00  0.00    +0.000 C 
ATOM     17  C   UNL     1       5.947   3.622  11.999  0.00  0.00    +0.000 C 
ATOM     18  C   UNL     1       7.349   4.204  11.803  0.00  0.00    +0.000 C 
ATOM     19  C   UNL     1       7.697   5.299  12.817  0.00  0.00    +0.000 C 
ATOM     20  C   UNL     1       7.372   4.893  14.261  0.00  0.00    +0.000 C 
ENDBRANCH  13  15
ENDBRANCH  10  11
TORSDOF 2
ENDMDL
MODEL 9
REMARK VINA RESULT:      -6.8      0.885      1.294
REMARK  Name = 
REMARK  3 active torsions:
REMARK  status: ('A' for Active; 'I' for Inactive)
REMARK    1  A    between atoms: C_1  and  C_2
REMARK    2  A    between atoms: C_10  and  C_11
REMARK    3  A    between atoms: N_13  and  C_14
REMARK                            x       y       z     vdW  Elec       q    Type
REMARK                         _______ _______ _______ _____ _____    ______ ____
ROOT
ATOM      1  C   UNL     1       6.893   6.137  17.662  0.00  0.00    +0.000 C 
ATOM      2  C   UNL     1       6.703   5.494  16.338  0.00  0.00    +0.000 A 
ATOM      3  N   UNL     1       7.604   5.749  15.335  0.00  0.00    +0.000 NA
ATOM      4  C   UNL     1       7.172   5.075  14.298  0.00  0.00    +0.000 A 
ATOM      5  C   UNL     1       7.724   4.954  12.990  0.00  0.00    +0.000 A 
ATOM      6  C   UNL     1       7.093   4.209  12.064  0.00  0.00    +0.000 A 
ATOM      7  C   UNL     1       5.861   3.508  12.373  0.00  0.00    +0.000 A 
ATOM      8  C   UNL     1       5.347   3.599  13.617  0.00  0.00    +0.000 A 
ATOM      9  N   UNL     1       5.989   4.387  14.580  0.00  0.00    +0.000 N 
ATOM     10  C   UNL     1       5.672   4.660  15.907  0.00  0.00    +0.000 A 
ENDROOT
BRANCH  10  11
ATOM     11  C   UNL     1       4.554   4.182  16.702  0.00  0.00    +0.000 C 
ATOM     12  O   UNL     1       3.805   3.287  16.327  0.00  0.00    +0.000 OA
ATOM     13  N   UNL     1       4.444   4.752  17.948  0.00  0.00    +0.000 N 
ATOM     14  H   UNL     1       5.236   5.292  18.265  0.00  0.00    +0.000 HD
BRANCH  13  15
ATOM     15  C   UNL     1       3.500   4.365  18.990  0.00  0.00    +0.000 C 
ATOM     16  C   UNL     1       3.037   5.521  19.885  0.00  0.00    +0.000 C 
ATOM     17  C   UNL     1       1.808   5.082  20.683  0.00  0.00    +0.000 C 
ATOM     18  C   UNL     1       2.062   3.809  21.494  0.00  0.00    +0.000 C 
ATOM     19  C   UNL     1       2.721   2.693  20.677  0.00  0.00    +0.000 C 
ATOM     20  C   UNL     1       3.930   3.186  19.870  0.00  0.00    +0.000 C 
ENDBRANCH  13  15
ENDBRANCH  10  11
TORSDOF 2
ENDMDL
