MODEL 1
REMARK VINA RESULT:      -7.3      0.000      0.000
REMARK  Name = 
REMARK  4 active torsions:
REMARK  status: ('A' for Active; 'I' for Inactive)
REMARK    1  A    between atoms: C_2  and  O_3
REMARK    2  A    between atoms: C_2  and  C_4
REMARK    3  A    between atoms: N_9  and  C_10
REMARK    4  A    between atoms: C_20  and  O_21
REMARK                            x       y       z     vdW  Elec       q    Type
REMARK                         _______ _______ _______ _____ _____    ______ ____
ROOT
ATOM      1  C   UNL     1       3.658   3.434  19.791  0.00  0.00    +0.000 A 
ATOM      2  C   UNL     1       3.942   4.350  18.762  0.00  0.00    +0.000 A 
ATOM      3  C   UNL     1       3.340   5.615  18.811  0.00  0.00    +0.000 A 
ATOM      4  S   UNL     1       3.531   6.962  17.758  0.00  0.00    +0.000 S 
ATOM      5  C   UNL     1       2.379   7.864  18.677  0.00  0.00    +0.000 A 
ATOM      6  N   UNL     1       2.026   9.105  18.259  0.00  0.00    +0.000 N 
ATOM      7  N   UNL     1       1.911   7.226  19.724  0.00  0.00    +0.000 NA
ATOM      8  C   UNL     1       2.443   5.961  19.819  0.00  0.00    +0.000 A 
ATOM      9  C   UNL     1       2.145   5.028  20.831  0.00  0.00    +0.000 A 
ATOM     10  C   UNL     1       2.768   3.780  20.812  0.00  0.00    +0.000 A 
ATOM     11  H   UNL     1       2.467   9.428  17.405  0.00  0.00    +0.000 HD
ENDROOT
BRANCH   6  12
ATOM     12  C   UNL     1       0.820   9.768  18.568  0.00  0.00    +0.000 A 
ATOM     13  C   UNL     1      -0.338   9.669  17.780  0.00  0.00    +0.000 A 
ATOM     14  C   UNL     1      -1.474  10.432  18.065  0.00  0.00    +0.000 A 
ATOM     15  C   UNL     1      -1.463  11.291  19.153  0.00  0.00    +0.000 A 
ATOM     16  F   UNL     1      -2.540  12.044  19.412  0.00  0.00    +0.000 F 
ATOM     17  C   UNL     1      -0.348  11.383  19.975  0.00  0.00    +0.000 A 
ATOM     18  C   UNL     1       0.786  10.618  19.686  0.00  0.00    +0.000 A 
ENDBRANCH   6  12
BRANCH   1  20
ATOM     19  O   UNL     1       5.093   1.722  20.601  0.00  0.00    +0.000 OA
ATOM     20  C   UNL     1       4.343   2.115  19.723  0.00  0.00    +0.000 C 
BRANCH  20  21
ATOM     21  O   UNL     1       4.001   1.362  18.657  0.00  0.00    +0.000 OA
ATOM     22  H   UNL     1       4.725   0.762  18.373  0.00  0.00    +0.000 HD
ENDBRANCH  20  21
ENDBRANCH   1  20
BRANCH  10  23
ATOM     23  O   UNL     1       2.513   2.894  21.828  0.00  0.00    +0.000 OA
ATOM     24  H   UNL     1       1.640   3.102  22.213  0.00  0.00    +0.000 HD
ENDBRANCH  10  23
TORSDOF 4
ENDMDL
MODEL 2
REMARK VINA RESULT:      -7.2      0.180      1.065
REMARK  Name = 
REMARK  4 active torsions:
REMARK  status: ('A' for Active; 'I' for Inactive)
REMARK    1  A    between atoms: C_2  and  O_3
REMARK    2  A    between atoms: C_2  and  C_4
REMARK    3  A    between atoms: N_9  and  C_10
REMARK    4  A    between atoms: C_20  and  O_21
REMARK                            x       y       z     vdW  Elec       q    Type
REMARK                         _______ _______ _______ _____ _____    ______ ____
ROOT
ATOM      1  C   UNL     1       3.611   3.476  19.766  0.00  0.00    +0.000 A 
ATOM      2  C   UNL     1       3.914   4.362  18.716  0.00  0.00    +0.000 A 
ATOM      3  C   UNL     1       3.348   5.645  18.744  0.00  0.00    +0.000 A 
ATOM      4  S   UNL     1       3.569   6.964  17.662  0.00  0.00    +0.000 S 
ATOM      5  C   UNL     1       2.452   7.918  18.571  0.00  0.00    +0.000 A 
ATOM      6  N   UNL     1       2.130   9.160  18.131  0.00  0.00    +0.000 N 
ATOM      7  N   UNL     1       1.975   7.315  19.634  0.00  0.00    +0.000 NA
ATOM      8  C   UNL     1       2.470   6.038  19.751  0.00  0.00    +0.000 A 
ATOM      9  C   UNL     1       2.154   5.134  20.785  0.00  0.00    +0.000 A 
ATOM     10  C   UNL     1       2.741   3.869  20.787  0.00  0.00    +0.000 A 
ATOM     11  H   UNL     1       2.573   9.452  17.266  0.00  0.00    +0.000 HD
ENDROOT
BRANCH   6  12
ATOM     12  C   UNL     1       0.947   9.863  18.435  0.00  0.00    +0.000 A 
ATOM     13  C   UNL     1       0.839  10.765  19.505  0.00  0.00    +0.000 A 
ATOM     14  C   UNL     1      -0.385  11.354  19.834  0.00  0.00    +0.000 A 
ATOM     15  C   UNL     1      -1.510  11.053  19.082  0.00  0.00    +0.000 A 
ATOM     16  F   UNL     1      -2.690  11.594  19.413  0.00  0.00    +0.000 F 
ATOM     17  C   UNL     1      -1.430  10.196  17.993  0.00  0.00    +0.000 A 
ATOM     18  C   UNL     1      -0.203   9.609  17.668  0.00  0.00    +0.000 A 
ENDBRANCH   6  12
BRANCH   1  20
ATOM     19  O   UNL     1       4.988   1.731  20.609  0.00  0.00    +0.000 OA
ATOM     20  C   UNL     1       4.258   2.136  19.719  0.00  0.00    +0.000 C 
BRANCH  20  21
ATOM     21  O   UNL     1       3.903   1.382  18.658  0.00  0.00    +0.000 OA
ATOM     22  H   UNL     1       4.261   0.468  18.712  0.00  0.00    +0.000 HD
ENDBRANCH  20  21
ENDBRANCH   1  20
BRANCH  10  23
ATOM     23  O   UNL     1       2.469   3.011  21.822  0.00  0.00    +0.000 OA
ATOM     24  H   UNL     1       1.668   3.323  22.285  0.00  0.00    +0.000 HD
ENDBRANCH  10  23
TORSDOF 4
ENDMDL
MODEL 3
REMARK VINA RESULT:      -7.0      5.948      7.507
REMARK  Name = 
REMARK  4 active torsions:
REMARK  status: ('A' for Active; 'I' for Inactive)
REMARK    1  A    between atoms: C_2  and  O_3
REMARK    2  A    between atoms: C_2  and  C_4
REMARK    3  A    between atoms: N_9  and  C_10
REMARK    4  A    between atoms: C_20  and  O_21
REMARK                            x       y       z     vdW  Elec       q    Type
REMARK                         _______ _______ _______ _____ _____    ______ ____
ROOT
ATOM      1  C   UNL     1       2.526   3.008  19.950  0.00  0.00    +0.000 A 
ATOM      2  C   UNL     1       3.626   3.884  19.905  0.00  0.00    +0.000 A 
ATOM      3  C   UNL     1       4.149   4.233  18.651  0.00  0.00    +0.000 A 
ATOM      4  S   UNL     1       5.427   5.315  18.258  0.00  0.00    +0.000 S 
ATOM      5  C   UNL     1       5.240   4.951  16.580  0.00  0.00    +0.000 A 
ATOM      6  N   UNL     1       6.095   5.506  15.684  0.00  0.00    +0.000 N 
ATOM      7  N   UNL     1       4.266   4.113  16.319  0.00  0.00    +0.000 NA
ATOM      8  C   UNL     1       3.637   3.700  17.470  0.00  0.00    +0.000 A 
ATOM      9  C   UNL     1       2.551   2.805  17.527  0.00  0.00    +0.000 A 
ATOM     10  C   UNL     1       2.000   2.481  18.767  0.00  0.00    +0.000 A 
ATOM     11  H   UNL     1       6.813   6.109  16.071  0.00  0.00    +0.000 HD
ENDROOT
BRANCH   6  12
ATOM     12  C   UNL     1       6.405   4.990  14.410  0.00  0.00    +0.000 A 
ATOM     13  C   UNL     1       5.661   3.975  13.786  0.00  0.00    +0.000 A 
ATOM     14  C   UNL     1       6.072   3.419  12.572  0.00  0.00    +0.000 A 
ATOM     15  C   UNL     1       7.227   3.886  11.964  0.00  0.00    +0.000 A 
ATOM     16  F   UNL     1       7.640   3.335  10.815  0.00  0.00    +0.000 F 
ATOM     17  C   UNL     1       7.964   4.916  12.534  0.00  0.00    +0.000 A 
ATOM     18  C   UNL     1       7.549   5.469  13.749  0.00  0.00    +0.000 A 
ENDBRANCH   6  12
BRANCH   1  20
ATOM     19  O   UNL     1       2.693   2.398  22.241  0.00  0.00    +0.000 OA
ATOM     20  C   UNL     1       1.978   2.689  21.296  0.00  0.00    +0.000 C 
BRANCH  20  21
ATOM     21  O   UNL     1       0.641   2.831  21.402  0.00  0.00    +0.000 OA
ATOM     22  H   UNL     1       0.219   3.062  20.545  0.00  0.00    +0.000 HD
ENDBRANCH  20  21
ENDBRANCH   1  20
BRANCH  10  23
ATOM     23  O   UNL     1       0.911   1.648  18.814  0.00  0.00    +0.000 OA
ATOM     24  H   UNL     1       0.530   1.680  19.712  0.00  0.00    +0.000 HD
ENDBRANCH  10  23
TORSDOF 4
ENDMDL
MODEL 4
REMARK VINA RESULT:      -7.0      5.881      7.511
REMARK  Name = 
REMARK  4 active torsions:
REMARK  status: ('A' for Active; 'I' for Inactive)
REMARK    1  A    between atoms: C_2  and  O_3
REMARK    2  A    between atoms: C_2  and  C_4
REMARK    3  A    between atoms: N_9  and  C_10
REMARK    4  A    between atoms: C_20  and  O_21
REMARK                            x       y       z     vdW  Elec       q    Type
REMARK                         _______ _______ _______ _____ _____    ______ ____
ROOT
ATOM      1  C   UNL     1       2.587   2.984  19.978  0.00  0.00    +0.000 A 
ATOM      2  C   UNL     1       3.571   3.988  19.920  0.00  0.00    +0.000 A 
ATOM      3  C   UNL     1       4.121   4.310  18.671  0.00  0.00    +0.000 A 
ATOM      4  S   UNL     1       5.277   5.516  18.260  0.00  0.00    +0.000 S 
ATOM      5  C   UNL     1       5.238   5.013  16.608  0.00  0.00    +0.000 A 
ATOM      6  N   UNL     1       6.070   5.608  15.716  0.00  0.00    +0.000 N 
ATOM      7  N   UNL     1       4.392   4.041  16.364  0.00  0.00    +0.000 NA
ATOM      8  C   UNL     1       3.751   3.635  17.510  0.00  0.00    +0.000 A 
ATOM      9  C   UNL     1       2.782   2.614  17.582  0.00  0.00    +0.000 A 
ATOM     10  C   UNL     1       2.201   2.312  18.814  0.00  0.00    +0.000 A 
ATOM     11  H   UNL     1       6.684   6.323  16.091  0.00  0.00    +0.000 HD
ENDROOT
BRANCH   6  12
ATOM     12  C   UNL     1       6.517   5.046  14.503  0.00  0.00    +0.000 A 
ATOM     13  C   UNL     1       7.614   5.541  13.781  0.00  0.00    +0.000 A 
ATOM     14  C   UNL     1       7.951   5.020  12.529  0.00  0.00    +0.000 A 
ATOM     15  C   UNL     1       7.198   3.986  11.996  0.00  0.00    +0.000 A 
ATOM     16  F   UNL     1       7.501   3.504  10.783  0.00  0.00    +0.000 F 
ATOM     17  C   UNL     1       6.130   3.446  12.701  0.00  0.00    +0.000 A 
ATOM     18  C   UNL     1       5.797   3.971  13.953  0.00  0.00    +0.000 A 
ENDBRANCH   6  12
BRANCH   1  20
ATOM     19  O   UNL     1       2.691   2.421  22.284  0.00  0.00    +0.000 OA
ATOM     20  C   UNL     1       2.002   2.695  21.315  0.00  0.00    +0.000 C 
BRANCH  20  21
ATOM     21  O   UNL     1       0.662   2.842  21.383  0.00  0.00    +0.000 OA
ATOM     22  H   UNL     1       0.200   1.993  21.558  0.00  0.00    +0.000 HD
ENDBRANCH  20  21
ENDBRANCH   1  20
BRANCH  10  23
ATOM     23  O   UNL     1       1.222   1.352  18.870  0.00  0.00    +0.000 OA
ATOM     24  H   UNL     1       1.534   0.559  18.394  0.00  0.00    +0.000 HD
ENDBRANCH  10  23
TORSDOF 4
ENDMDL
MODEL 5
REMARK VINA RESULT:      -6.9      5.451      8.388
REMARK  Name = 
REMARK  4 active torsions:
REMARK  status: ('A' for Active; 'I' for Inactive)
REMARK    1  A    between atoms: C_2  and  O_3
REMARK    2  A    between atoms: C_2  and  C_4
REMARK    3  A    between atoms: N_9  and  C_10
REMARK    4  A    between atoms: C_20  and  O_21
REMARK                            x       y       z     vdW  Elec       q    Type
REMARK                         _______ _______ _______ _____ _____    ______ ____
ROOT
ATOM      1  C   UNL     1      -1.053  12.308  19.887  0.00  0.00    +0.000 A 
ATOM      2  C   UNL     1      -0.539  11.607  20.993  0.00  0.00    +0.000 A 
ATOM      3  C   UNL     1       0.166  10.417  20.759  0.00  0.00    +0.000 A 
ATOM      4  S   UNL     1       0.964   9.378  21.874  0.00  0.00    +0.000 S 
ATOM      5  C   UNL     1       1.399   8.308  20.590  0.00  0.00    +0.000 A 
ATOM      6  N   UNL     1       2.052   7.155  20.882  0.00  0.00    +0.000 N 
ATOM      7  N   UNL     1       1.015   8.713  19.402  0.00  0.00    +0.000 NA
ATOM      8  C   UNL     1       0.324   9.899  19.476  0.00  0.00    +0.000 A 
ATOM      9  C   UNL     1      -0.216  10.595  18.376  0.00  0.00    +0.000 A 
ATOM     10  C   UNL     1      -0.886  11.799  18.595  0.00  0.00    +0.000 A 
ATOM     11  H   UNL     1       2.239   6.988  21.865  0.00  0.00    +0.000 HD
ENDROOT
BRANCH   6  12
ATOM     12  C   UNL     1       2.061   5.989  20.090  0.00  0.00    +0.000 A 
ATOM     13  C   UNL     1       2.739   5.893  18.865  0.00  0.00    +0.000 A 
ATOM     14  C   UNL     1       2.628   4.753  18.063  0.00  0.00    +0.000 A 
ATOM     15  C   UNL     1       1.846   3.692  18.492  0.00  0.00    +0.000 A 
ATOM     16  F   UNL     1       1.714   2.611  17.713  0.00  0.00    +0.000 F 
ATOM     17  C   UNL     1       1.193   3.739  19.717  0.00  0.00    +0.000 A 
ATOM     18  C   UNL     1       1.307   4.881  20.515  0.00  0.00    +0.000 A 
ENDBRANCH   6  12
BRANCH   1  20
ATOM     19  O   UNL     1      -2.617  13.676  21.039  0.00  0.00    +0.000 OA
ATOM     20  C   UNL     1      -1.764  13.583  20.172  0.00  0.00    +0.000 C 
BRANCH  20  21
ATOM     21  O   UNL     1      -1.328  14.638  19.454  0.00  0.00    +0.000 OA
ATOM     22  H   UNL     1      -0.763  14.368  18.696  0.00  0.00    +0.000 HD
ENDBRANCH  20  21
ENDBRANCH   1  20
BRANCH  10  23
ATOM     23  O   UNL     1      -1.367  12.498  17.517  0.00  0.00    +0.000 OA
ATOM     24  H   UNL     1      -1.908  11.897  16.970  0.00  0.00    +0.000 HD
ENDBRANCH  10  23
TORSDOF 4
ENDMDL
MODEL 6
REMARK VINA RESULT:      -6.8      0.991      1.533
REMARK  Name = 
REMARK  4 active torsions:
REMARK  status: ('A' for Active; 'I' for Inactive)
REMARK    1  A    between atoms: C_2  and  O_3
REMARK    2  A    between atoms: C_2  and  C_4
REMARK    3  A    between atoms: N_9  and  C_10
REMARK    4  A    between atoms: C_20  and  O_21
REMARK                            x       y       z     vdW  Elec       q    Type
REMARK                         _______ _______ _______ _____ _____    ______ ____
ROOT
ATOM      1  C   UNL     1       3.374   4.371  19.593  0.00  0.00    +0.000 A 
ATOM      2  C   UNL     1       3.609   5.291  18.556  0.00  0.00    +0.000 A 
ATOM      3  C   UNL     1       2.981   6.544  18.621  0.00  0.00    +0.000 A 
ATOM      4  S   UNL     1       3.113   7.893  17.562  0.00  0.00    +0.000 S 
ATOM      5  C   UNL     1       1.969   8.771  18.514  0.00  0.00    +0.000 A 
ATOM      6  N   UNL     1       1.577  10.004  18.105  0.00  0.00    +0.000 N 
ATOM      7  N   UNL     1       1.546   8.125  19.574  0.00  0.00    +0.000 NA
ATOM      8  C   UNL     1       2.107   6.872  19.654  0.00  0.00    +0.000 A 
ATOM      9  C   UNL     1       1.859   5.935  20.676  0.00  0.00    +0.000 A 
ATOM     10  C   UNL     1       2.508   4.700  20.640  0.00  0.00    +0.000 A 
ATOM     11  H   UNL     1       1.986  10.334  17.238  0.00  0.00    +0.000 HD
ENDROOT
BRANCH   6  12
ATOM     12  C   UNL     1       0.367  10.641  18.448  0.00  0.00    +0.000 A 
ATOM     13  C   UNL     1       0.286  11.700  19.367  0.00  0.00    +0.000 A 
ATOM     14  C   UNL     1      -0.948  12.225  19.757  0.00  0.00    +0.000 A 
ATOM     15  C   UNL     1      -2.113  11.702  19.218  0.00  0.00    +0.000 A 
ATOM     16  F   UNL     1      -3.299  12.184  19.613  0.00  0.00    +0.000 F 
ATOM     17  C   UNL     1      -2.067  10.681  18.278  0.00  0.00    +0.000 A 
ATOM     18  C   UNL     1      -0.829  10.159  17.890  0.00  0.00    +0.000 A 
ENDBRANCH   6  12
BRANCH   1  20
ATOM     19  O   UNL     1       3.496   1.998  19.534  0.00  0.00    +0.000 OA
ATOM     20  C   UNL     1       4.085   3.067  19.506  0.00  0.00    +0.000 C 
BRANCH  20  21
ATOM     21  O   UNL     1       5.416   3.168  19.311  0.00  0.00    +0.000 OA
ATOM     22  H   UNL     1       5.650   3.906  18.706  0.00  0.00    +0.000 HD
ENDBRANCH  20  21
ENDBRANCH   1  20
BRANCH  10  23
ATOM     23  O   UNL     1       2.301   3.810  21.663  0.00  0.00    +0.000 OA
ATOM     24  H   UNL     1       1.350   3.800  21.883  0.00  0.00    +0.000 HD
ENDBRANCH  10  23
TORSDOF 4
ENDMDL
MODEL 7
REMARK VINA RESULT:      -6.7      5.466      8.422
REMARK  Name = 
REMARK  4 active torsions:
REMARK  status: ('A' for Active; 'I' for Inactive)
REMARK    1  A    between atoms: C_2  and  O_3
REMARK    2  A    between atoms: C_2  and  C_4
REMARK    3  A    between atoms: N_9  and  C_10
REMARK    4  A    between atoms: C_20  and  O_21
REMARK                            x       y       z     vdW  Elec       q    Type
REMARK                         _______ _______ _______ _____ _____    ______ ____
ROOT
ATOM      1  C   UNL     1      -0.887  12.378  19.899  0.00  0.00    +0.000 A 
ATOM      2  C   UNL     1      -0.354  11.676  20.995  0.00  0.00    +0.000 A 
ATOM      3  C   UNL     1       0.286  10.451  20.754  0.00  0.00    +0.000 A 
ATOM      4  S   UNL     1       1.087   9.397  21.853  0.00  0.00    +0.000 S 
ATOM      5  C   UNL     1       1.415   8.285  20.572  0.00  0.00    +0.000 A 
ATOM      6  N   UNL     1       2.028   7.110  20.858  0.00  0.00    +0.000 N 
ATOM      7  N   UNL     1       0.996   8.685  19.395  0.00  0.00    +0.000 NA
ATOM      8  C   UNL     1       0.362   9.903  19.476  0.00  0.00    +0.000 A 
ATOM      9  C   UNL     1      -0.196  10.603  18.388  0.00  0.00    +0.000 A 
ATOM     10  C   UNL     1      -0.801  11.840  18.612  0.00  0.00    +0.000 A 
ATOM     11  H   UNL     1       2.252   6.952  21.835  0.00  0.00    +0.000 HD
ENDROOT
BRANCH   6  12
ATOM     12  C   UNL     1       1.950   5.930  20.090  0.00  0.00    +0.000 A 
ATOM     13  C   UNL     1       1.288   4.769  20.523  0.00  0.00    +0.000 A 
ATOM     14  C   UNL     1       1.332   3.590  19.776  0.00  0.00    +0.000 A 
ATOM     15  C   UNL     1       2.030   3.567  18.578  0.00  0.00    +0.000 A 
ATOM     16  F   UNL     1       2.098   2.430  17.874  0.00  0.00    +0.000 F 
ATOM     17  C   UNL     1       2.663   4.708  18.102  0.00  0.00    +0.000 A 
ATOM     18  C   UNL     1       2.616   5.886  18.853  0.00  0.00    +0.000 A 
ENDBRANCH   6  12
BRANCH   1  20
ATOM     19  O   UNL     1      -2.269  13.857  21.144  0.00  0.00    +0.000 OA
ATOM     20  C   UNL     1      -1.526  13.690  20.191  0.00  0.00    +0.000 C 
BRANCH  20  21
ATOM     21  O   UNL     1      -1.151  14.690  19.367  0.00  0.00    +0.000 OA
ATOM     22  H   UNL     1      -1.495  15.563  19.656  0.00  0.00    +0.000 HD
ENDBRANCH  20  21
ENDBRANCH   1  20
BRANCH  10  23
ATOM     23  O   UNL     1      -1.299  12.540  17.543  0.00  0.00    +0.000 OA
ATOM     24  H   UNL     1      -2.076  13.053  17.839  0.00  0.00    +0.000 HD
ENDBRANCH  10  23
TORSDOF 4
ENDMDL
MODEL 8
REMARK VINA RESULT:      -6.7      1.846      2.406
REMARK  Name = 
REMARK  4 active torsions:
REMARK  status: ('A' for Active; 'I' for Inactive)
REMARK    1  A    between atoms: C_2  and  O_3
REMARK    2  A    between atoms: C_2  and  C_4
REMARK    3  A    between atoms: N_9  and  C_10
REMARK    4  A    between atoms: C_20  and  O_21
REMARK                            x       y       z     vdW  Elec       q    Type
REMARK                         _______ _______ _______ _____ _____    ______ ____
ROOT
ATOM      1  C   UNL     1       2.808   3.551  19.147  0.00  0.00    +0.000 A 
ATOM      2  C   UNL     1       2.746   4.719  18.366  0.00  0.00    +0.000 A 
ATOM      3  C   UNL     1       2.394   5.923  18.994  0.00  0.00    +0.000 A 
ATOM      4  S   UNL     1       2.295   7.512  18.342  0.00  0.00    +0.000 S 
ATOM      5  C   UNL     1       1.774   8.123  19.871  0.00  0.00    +0.000 A 
ATOM      6  N   UNL     1       1.443   9.434  19.980  0.00  0.00    +0.000 N 
ATOM      7  N   UNL     1       1.716   7.218  20.818  0.00  0.00    +0.000 NA
ATOM      8  C   UNL     1       2.065   5.975  20.346  0.00  0.00    +0.000 A 
ATOM      9  C   UNL     1       2.106   4.795  21.115  0.00  0.00    +0.000 A 
ATOM     10  C   UNL     1       2.492   3.600  20.508  0.00  0.00    +0.000 A 
ATOM     11  H   UNL     1       1.517   9.983  19.130  0.00  0.00    +0.000 HD
ENDROOT
BRANCH   6  12
ATOM     12  C   UNL     1       0.582   9.990  20.948  0.00  0.00    +0.000 A 
ATOM     13  C   UNL     1       0.435   9.467  22.243  0.00  0.00    +0.000 A 
ATOM     14  C   UNL     1      -0.512   9.985  23.130  0.00  0.00    +0.000 A 
ATOM     15  C   UNL     1      -1.312  11.045  22.731  0.00  0.00    +0.000 A 
ATOM     16  F   UNL     1      -2.240  11.525  23.568  0.00  0.00    +0.000 F 
ATOM     17  C   UNL     1      -1.166  11.611  21.471  0.00  0.00    +0.000 A 
ATOM     18  C   UNL     1      -0.217  11.089  20.587  0.00  0.00    +0.000 A 
ENDBRANCH   6  12
BRANCH   1  20
ATOM     19  O   UNL     1       2.668   1.905  17.438  0.00  0.00    +0.000 OA
ATOM     20  C   UNL     1       3.218   2.301  18.452  0.00  0.00    +0.000 C 
BRANCH  20  21
ATOM     21  O   UNL     1       4.297   1.692  18.989  0.00  0.00    +0.000 OA
ATOM     22  H   UNL     1       4.467   0.811  18.589  0.00  0.00    +0.000 HD
ENDBRANCH  20  21
ENDBRANCH   1  20
BRANCH  10  23
ATOM     23  O   UNL     1       2.578   2.463  21.272  0.00  0.00    +0.000 OA
ATOM     24  H   UNL     1       2.401   2.698  22.203  0.00  0.00    +0.000 HD
ENDBRANCH  10  23
TORSDOF 4
ENDMDL
MODEL 9
REMARK VINA RESULT:      -6.7      1.778      2.213
REMARK  Name = 
REMARK  4 active torsions:
REMARK  status: ('A' for Active; 'I' for Inactive)
REMARK    1  A    between atoms: C_2  and  O_3
REMARK    2  A    between atoms: C_2  and  C_4
REMARK    3  A    between atoms: N_9  and  C_10
REMARK    4  A    between atoms: C_20  and  O_21
REMARK                            x       y       z     vdW  Elec       q    Type
REMARK                         _______ _______ _______ _____ _____    ______ ____
ROOT
ATOM      1  C   UNL     1       2.972   3.471  19.293  0.00  0.00    +0.000 A 
ATOM      2  C   UNL     1       2.942   4.621  18.483  0.00  0.00    +0.000 A 
ATOM      3  C   UNL     1       2.514   5.828  19.056  0.00  0.00    +0.000 A 
ATOM      4  S   UNL     1       2.427   7.400  18.363  0.00  0.00    +0.000 S 
ATOM      5  C   UNL     1       1.774   8.029  19.834  0.00  0.00    +0.000 A 
ATOM      6  N   UNL     1       1.404   9.333  19.889  0.00  0.00    +0.000 N 
ATOM      7  N   UNL     1       1.665   7.141  20.794  0.00  0.00    +0.000 NA
ATOM      8  C   UNL     1       2.080   5.898  20.378  0.00  0.00    +0.000 A 
ATOM      9  C   UNL     1       2.090   4.736  21.173  0.00  0.00    +0.000 A 
ATOM     10  C   UNL     1       2.550   3.539  20.624  0.00  0.00    +0.000 A 
ATOM     11  H   UNL     1       1.530   9.866  19.035  0.00  0.00    +0.000 HD
ENDROOT
BRANCH   6  12
ATOM     12  C   UNL     1       0.457   9.885  20.776  0.00  0.00    +0.000 A 
ATOM     13  C   UNL     1      -0.396  10.946  20.432  0.00  0.00    +0.000 A 
ATOM     14  C   UNL     1      -1.239  11.533  21.378  0.00  0.00    +0.000 A 
ATOM     15  C   UNL     1      -1.245  11.050  22.678  0.00  0.00    +0.000 A 
ATOM     16  F   UNL     1      -2.031  11.629  23.595  0.00  0.00    +0.000 F 
ATOM     17  C   UNL     1      -0.443   9.977  23.042  0.00  0.00    +0.000 A 
ATOM     18  C   UNL     1       0.400   9.393  22.091  0.00  0.00    +0.000 A 
ENDBRANCH   6  12
BRANCH   1  20
ATOM     19  O   UNL     1       2.987   1.775  17.628  0.00  0.00    +0.000 OA
ATOM     20  C   UNL     1       3.465   2.218  18.659  0.00  0.00    +0.000 C 
BRANCH  20  21
ATOM     21  O   UNL     1       4.533   1.666  19.272  0.00  0.00    +0.000 OA
ATOM     22  H   UNL     1       4.325   0.792  19.672  0.00  0.00    +0.000 HD
ENDBRANCH  20  21
ENDBRANCH   1  20
BRANCH  10  23
ATOM     23  O   UNL     1       2.605   2.421  21.417  0.00  0.00    +0.000 OA
ATOM     24  H   UNL     1       1.703   2.210  21.724  0.00  0.00    +0.000 HD
ENDBRANCH  10  23
TORSDOF 4
ENDMDL
