MODEL 1
REMARK VINA RESULT:      -9.3      0.000      0.000
REMARK  Name = 
REMARK  7 active torsions:
REMARK  status: ('A' for Active; 'I' for Inactive)
REMARK    1  A    between atoms: C_1  and  C_2
REMARK    2  A    between atoms: C_2  and  O_3
REMARK    3  A    between atoms: O_3  and  C_4
REMARK    4  A    between atoms: C_7  and  N_8
REMARK    5  A    between atoms: N_8  and  C_9
REMARK    6  A    between atoms: C_10  and  C_11
REMARK    7  A    between atoms: C_18  and  C_19
REMARK                            x       y       z     vdW  Elec       q    Type
REMARK                         _______ _______ _______ _____ _____    ______ ____
ROOT
ATOM      1  C   UNL     1       3.375   4.726  19.394  0.00  0.00    +0.000 A 
ATOM      2  C   UNL     1       2.708   3.559  19.804  0.00  0.00    +0.000 A 
ATOM      3  C   UNL     1       2.787   2.441  18.993  0.00  0.00    +0.000 A 
ATOM      4  N   UNL     1       3.432   2.399  17.804  0.00  0.00    +0.000 NA
ATOM      5  C   UNL     1       4.096   3.493  17.406  0.00  0.00    +0.000 A 
ATOM      6  C   UNL     1       4.768   3.451  16.183  0.00  0.00    +0.000 A 
ATOM      7  C   UNL     1       5.509   4.532  15.665  0.00  0.00    +0.000 A 
ATOM      8  C   UNL     1       5.587   5.672  16.464  0.00  0.00    +0.000 A 
ATOM      9  C   UNL     1       4.960   5.721  17.707  0.00  0.00    +0.000 A 
ATOM     10  C   UNL     1       4.138   4.671  18.176  0.00  0.00    +0.000 A 
ENDROOT
BRANCH   7  11
ATOM     11  C   UNL     1       6.201   4.470  14.359  0.00  0.00    +0.000 A 
ATOM     12  C   UNL     1       5.767   3.627  13.326  0.00  0.00    +0.000 A 
ATOM     13  C   UNL     1       6.464   3.610  12.125  0.00  0.00    +0.000 A 
ATOM     14  N   UNL     1       7.542   4.374  11.867  0.00  0.00    +0.000 NA
ATOM     15  C   UNL     1       7.950   5.189  12.855  0.00  0.00    +0.000 A 
ATOM     16  C   UNL     1       7.327   5.265  14.090  0.00  0.00    +0.000 A 
ENDBRANCH   7  11
BRANCH   2  17
ATOM     17  C   UNL     1       1.906   3.420  21.045  0.00  0.00    +0.000 C 
ATOM     18  N   UNL     1       0.606   3.019  20.924  0.00  0.00    +0.000 N 
ATOM     19  O   UNL     1       2.401   3.616  22.148  0.00  0.00    +0.000 OA
ATOM     20  H   UNL     1       0.276   2.581  20.071  0.00  0.00    +0.000 HD
ATOM     21  H   UNL     1       0.134   2.778  21.790  0.00  0.00    +0.000 HD
ENDBRANCH   2  17
BRANCH   1  22
ATOM     22  N   UNL     1       3.221   5.945  20.117  0.00  0.00    +0.000 N 
ATOM     23  H   UNL     1       3.827   6.034  20.929  0.00  0.00    +0.000 HD
BRANCH  22  27
ATOM     24  C   UNL     1       0.894   9.442  19.607  0.00  0.00    +0.000 A 
ATOM     25  C   UNL     1       0.827   8.702  20.792  0.00  0.00    +0.000 A 
ATOM     26  C   UNL     1       1.541   7.501  20.933  0.00  0.00    +0.000 A 
ATOM     27  C   UNL     1       2.330   7.013  19.886  0.00  0.00    +0.000 A 
ATOM     28  C   UNL     1       2.344   7.730  18.684  0.00  0.00    +0.000 A 
ATOM     29  C   UNL     1       1.656   8.935  18.555  0.00  0.00    +0.000 A 
ATOM     30  F   UNL     1       1.804   9.600  17.401  0.00  0.00    +0.000 F 
BRANCH  24  31
ATOM     31  O   UNL     1       0.196  10.622  19.620  0.00  0.00    +0.000 OA
BRANCH  31  33
ATOM     32  C   UNL     1      -1.209  12.037  18.284  0.00  0.00    +0.000 C 
ATOM     33  C   UNL     1      -1.019  10.648  18.867  0.00  0.00    +0.000 C 
ENDBRANCH  31  33
ENDBRANCH  24  31
ENDBRANCH  22  27
ENDBRANCH   1  22
TORSDOF 6
ENDMDL
MODEL 2
REMARK VINA RESULT:      -9.2      3.622      7.760
REMARK  Name = 
REMARK  7 active torsions:
REMARK  status: ('A' for Active; 'I' for Inactive)
REMARK    1  A    between atoms: C_1  and  C_2
REMARK    2  A    between atoms: C_2  and  O_3
REMARK    3  A    between atoms: O_3  and  C_4
REMARK    4  A    between atoms: C_7  and  N_8
REMARK    5  A    between atoms: N_8  and  C_9
REMARK    6  A    between atoms: C_10  and  C_11
REMARK    7  A    between atoms: C_18  and  C_19
REMARK                            x       y       z     vdW  Elec       q    Type
REMARK                         _______ _______ _______ _____ _____    ______ ____
ROOT
ATOM      1  C   UNL     1       3.341   4.724  18.808  0.00  0.00    +0.000 A 
ATOM      2  C   UNL     1       3.153   3.458  19.387  0.00  0.00    +0.000 A 
ATOM      3  C   UNL     1       2.310   3.356  20.479  0.00  0.00    +0.000 A 
ATOM      4  N   UNL     1       1.678   4.401  21.062  0.00  0.00    +0.000 NA
ATOM      5  C   UNL     1       1.825   5.615  20.511  0.00  0.00    +0.000 A 
ATOM      6  C   UNL     1       1.169   6.695  21.106  0.00  0.00    +0.000 A 
ATOM      7  C   UNL     1       1.235   8.013  20.612  0.00  0.00    +0.000 A 
ATOM      8  C   UNL     1       1.970   8.203  19.442  0.00  0.00    +0.000 A 
ATOM      9  C   UNL     1       2.597   7.132  18.808  0.00  0.00    +0.000 A 
ATOM     10  C   UNL     1       2.608   5.832  19.361  0.00  0.00    +0.000 A 
ENDROOT
BRANCH   7  11
ATOM     11  C   UNL     1       0.545   9.145  21.268  0.00  0.00    +0.000 A 
ATOM     12  C   UNL     1      -0.138   8.997  22.483  0.00  0.00    +0.000 A 
ATOM     13  C   UNL     1      -0.772  10.097  23.045  0.00  0.00    +0.000 A 
ATOM     14  N   UNL     1      -0.766  11.330  22.504  0.00  0.00    +0.000 NA
ATOM     15  C   UNL     1      -0.103  11.472  21.343  0.00  0.00    +0.000 A 
ATOM     16  C   UNL     1       0.549  10.431  20.702  0.00  0.00    +0.000 A 
ENDBRANCH   7  11
BRANCH   2  17
ATOM     17  C   UNL     1       3.795   2.201  18.929  0.00  0.00    +0.000 C 
ATOM     18  N   UNL     1       4.813   1.692  19.683  0.00  0.00    +0.000 N 
ATOM     19  O   UNL     1       3.400   1.613  17.929  0.00  0.00    +0.000 OA
ATOM     20  H   UNL     1       4.951   1.995  20.640  0.00  0.00    +0.000 HD
ATOM     21  H   UNL     1       5.121   0.756  19.437  0.00  0.00    +0.000 HD
ENDBRANCH   2  17
BRANCH   1  22
ATOM     22  N   UNL     1       4.297   4.916  17.769  0.00  0.00    +0.000 N 
ATOM     23  H   UNL     1       4.063   4.458  16.891  0.00  0.00    +0.000 HD
BRANCH  22  27
ATOM     24  C   UNL     1       7.787   7.264  18.230  0.00  0.00    +0.000 A 
ATOM     25  C   UNL     1       6.766   7.659  17.358  0.00  0.00    +0.000 A 
ATOM     26  C   UNL     1       5.643   6.843  17.147  0.00  0.00    +0.000 A 
ATOM     27  C   UNL     1       5.523   5.611  17.800  0.00  0.00    +0.000 A 
ATOM     28  C   UNL     1       6.576   5.200  18.626  0.00  0.00    +0.000 A 
ATOM     29  C   UNL     1       7.677   6.022  18.854  0.00  0.00    +0.000 A 
ATOM     30  F   UNL     1       8.590   5.586  19.732  0.00  0.00    +0.000 F 
BRANCH  24  31
ATOM     31  O   UNL     1       8.798   8.177  18.389  0.00  0.00    +0.000 OA
BRANCH  31  33
ATOM     32  C   UNL     1       9.267  10.449  19.002  0.00  0.00    +0.000 C 
ATOM     33  C   UNL     1       8.479   9.535  18.081  0.00  0.00    +0.000 C 
ENDBRANCH  31  33
ENDBRANCH  24  31
ENDBRANCH  22  27
ENDBRANCH   1  22
TORSDOF 6
ENDMDL
MODEL 3
REMARK VINA RESULT:      -8.7      0.958      1.565
REMARK  Name = 
REMARK  7 active torsions:
REMARK  status: ('A' for Active; 'I' for Inactive)
REMARK    1  A    between atoms: C_1  and  C_2
REMARK    2  A    between atoms: C_2  and  O_3
REMARK    3  A    between atoms: O_3  and  C_4
REMARK    4  A    between atoms: C_7  and  N_8
REMARK    5  A    between atoms: N_8  and  C_9
REMARK    6  A    between atoms: C_10  and  C_11
REMARK    7  A    between atoms: C_18  and  C_19
REMARK                            x       y       z     vdW  Elec       q    Type
REMARK                         _______ _______ _______ _____ _____    ______ ____
ROOT
ATOM      1  C   UNL     1       3.303   4.903  19.243  0.00  0.00    +0.000 A 
ATOM      2  C   UNL     1       2.566   3.772  19.629  0.00  0.00    +0.000 A 
ATOM      3  C   UNL     1       2.598   2.659  18.809  0.00  0.00    +0.000 A 
ATOM      4  N   UNL     1       3.262   2.591  17.631  0.00  0.00    +0.000 NA
ATOM      5  C   UNL     1       3.993   3.651  17.256  0.00  0.00    +0.000 A 
ATOM      6  C   UNL     1       4.685   3.582  16.045  0.00  0.00    +0.000 A 
ATOM      7  C   UNL     1       5.494   4.625  15.551  0.00  0.00    +0.000 A 
ATOM      8  C   UNL     1       5.620   5.752  16.363  0.00  0.00    +0.000 A 
ATOM      9  C   UNL     1       4.973   5.824  17.595  0.00  0.00    +0.000 A 
ATOM     10  C   UNL     1       4.086   4.817  18.039  0.00  0.00    +0.000 A 
ENDROOT
BRANCH   7  11
ATOM     11  C   UNL     1       6.206   4.536  14.258  0.00  0.00    +0.000 A 
ATOM     12  C   UNL     1       7.333   5.319  13.974  0.00  0.00    +0.000 A 
ATOM     13  C   UNL     1       7.953   5.194  12.737  0.00  0.00    +0.000 A 
ATOM     14  N   UNL     1       7.551   4.343  11.774  0.00  0.00    +0.000 NA
ATOM     15  C   UNL     1       6.476   3.587  12.052  0.00  0.00    +0.000 A 
ATOM     16  C   UNL     1       5.785   3.651  13.251  0.00  0.00    +0.000 A 
ENDBRANCH   7  11
BRANCH   2  17
ATOM     17  C   UNL     1       1.733   3.667  20.853  0.00  0.00    +0.000 C 
ATOM     18  N   UNL     1       0.522   3.046  20.751  0.00  0.00    +0.000 N 
ATOM     19  O   UNL     1       2.135   4.084  21.932  0.00  0.00    +0.000 OA
ATOM     20  H   UNL     1       0.309   2.451  19.957  0.00  0.00    +0.000 HD
ATOM     21  H   UNL     1       0.051   2.846  21.628  0.00  0.00    +0.000 HD
ENDBRANCH   2  17
BRANCH   1  22
ATOM     22  N   UNL     1       3.204   6.123  19.974  0.00  0.00    +0.000 N 
ATOM     23  H   UNL     1       3.668   6.111  20.879  0.00  0.00    +0.000 HD
BRANCH  22  27
ATOM     24  C   UNL     1       0.798   9.412  18.834  0.00  0.00    +0.000 A 
ATOM     25  C   UNL     1       1.643   8.787  17.911  0.00  0.00    +0.000 A 
ATOM     26  C   UNL     1       2.497   7.745  18.307  0.00  0.00    +0.000 A 
ATOM     27  C   UNL     1       2.528   7.313  19.638  0.00  0.00    +0.000 A 
ATOM     28  C   UNL     1       1.721   7.983  20.564  0.00  0.00    +0.000 A 
ATOM     29  C   UNL     1       0.855   8.999  20.165  0.00  0.00    +0.000 A 
ATOM     30  F   UNL     1       0.052   9.518  21.104  0.00  0.00    +0.000 F 
BRANCH  24  31
ATOM     31  O   UNL     1      -0.025  10.374  18.308  0.00  0.00    +0.000 OA
BRANCH  31  33
ATOM     32  C   UNL     1      -2.018  10.022  17.017  0.00  0.00    +0.000 C 
ATOM     33  C   UNL     1      -1.430  10.132  18.412  0.00  0.00    +0.000 C 
ENDBRANCH  31  33
ENDBRANCH  24  31
ENDBRANCH  22  27
ENDBRANCH   1  22
TORSDOF 6
ENDMDL
MODEL 4
REMARK VINA RESULT:      -8.6      3.482      6.458
REMARK  Name = 
REMARK  7 active torsions:
REMARK  status: ('A' for Active; 'I' for Inactive)
REMARK    1  A    between atoms: C_1  and  C_2
REMARK    2  A    between atoms: C_2  and  O_3
REMARK    3  A    between atoms: O_3  and  C_4
REMARK    4  A    between atoms: C_7  and  N_8
REMARK    5  A    between atoms: N_8  and  C_9
REMARK    6  A    between atoms: C_10  and  C_11
REMARK    7  A    between atoms: C_18  and  C_19
REMARK                            x       y       z     vdW  Elec       q    Type
REMARK                         _______ _______ _______ _____ _____    ______ ____
ROOT
ATOM      1  C   UNL     1       0.307  10.453  20.216  0.00  0.00    +0.000 A 
ATOM      2  C   UNL     1       0.128  10.418  21.608  0.00  0.00    +0.000 A 
ATOM      3  C   UNL     1       0.657   9.350  22.310  0.00  0.00    +0.000 A 
ATOM      4  N   UNL     1       1.307   8.306  21.744  0.00  0.00    +0.000 NA
ATOM      5  C   UNL     1       1.510   8.331  20.419  0.00  0.00    +0.000 A 
ATOM      6  C   UNL     1       2.186   7.258  19.833  0.00  0.00    +0.000 A 
ATOM      7  C   UNL     1       2.470   7.178  18.455  0.00  0.00    +0.000 A 
ATOM      8  C   UNL     1       2.077   8.265  17.674  0.00  0.00    +0.000 A 
ATOM      9  C   UNL     1       1.440   9.364  18.245  0.00  0.00    +0.000 A 
ATOM     10  C   UNL     1       1.071   9.396  19.609  0.00  0.00    +0.000 A 
ENDROOT
BRANCH   7  11
ATOM     11  C   UNL     1       3.173   6.024  17.853  0.00  0.00    +0.000 A 
ATOM     12  C   UNL     1       4.425   6.155  17.237  0.00  0.00    +0.000 A 
ATOM     13  C   UNL     1       5.031   5.035  16.684  0.00  0.00    +0.000 A 
ATOM     14  N   UNL     1       4.499   3.798  16.711  0.00  0.00    +0.000 NA
ATOM     15  C   UNL     1       3.303   3.673  17.311  0.00  0.00    +0.000 A 
ATOM     16  C   UNL     1       2.617   4.734  17.878  0.00  0.00    +0.000 A 
ENDBRANCH   7  11
BRANCH   2  17
ATOM     17  C   UNL     1      -0.598  11.437  22.406  0.00  0.00    +0.000 C 
ATOM     18  N   UNL     1      -1.596  11.009  23.234  0.00  0.00    +0.000 N 
ATOM     19  O   UNL     1      -0.287  12.621  22.359  0.00  0.00    +0.000 OA
ATOM     20  H   UNL     1      -1.666  10.033  23.500  0.00  0.00    +0.000 HD
ATOM     21  H   UNL     1      -1.962  11.700  23.882  0.00  0.00    +0.000 HD
ENDBRANCH   2  17
BRANCH   1  22
ATOM     22  N   UNL     1      -0.328  11.454  19.424  0.00  0.00    +0.000 N 
ATOM     23  H   UNL     1       0.259  12.256  19.208  0.00  0.00    +0.000 HD
BRANCH  22  27
ATOM     24  C   UNL     1      -4.404  11.264  18.305  0.00  0.00    +0.000 A 
ATOM     25  C   UNL     1      -3.455  10.428  17.706  0.00  0.00    +0.000 A 
ATOM     26  C   UNL     1      -2.092  10.543  18.022  0.00  0.00    +0.000 A 
ATOM     27  C   UNL     1      -1.650  11.503  18.939  0.00  0.00    +0.000 A 
ATOM     28  C   UNL     1      -2.600  12.372  19.489  0.00  0.00    +0.000 A 
ATOM     29  C   UNL     1      -3.955  12.239  19.194  0.00  0.00    +0.000 A 
ATOM     30  F   UNL     1      -4.800  13.054  19.839  0.00  0.00    +0.000 F 
BRANCH  24  31
ATOM     31  O   UNL     1      -5.705  11.010  17.952  0.00  0.00    +0.000 OA
BRANCH  31  33
ATOM     32  C   UNL     1      -7.396  11.171  19.648  0.00  0.00    +0.000 C 
ATOM     33  C   UNL     1      -6.473  10.241  18.880  0.00  0.00    +0.000 C 
ENDBRANCH  31  33
ENDBRANCH  24  31
ENDBRANCH  22  27
ENDBRANCH   1  22
TORSDOF 6
ENDMDL
MODEL 5
REMARK VINA RESULT:      -8.6      3.319      6.318
REMARK  Name = 
REMARK  7 active torsions:
REMARK  status: ('A' for Active; 'I' for Inactive)
REMARK    1  A    between atoms: C_1  and  C_2
REMARK    2  A    between atoms: C_2  and  O_3
REMARK    3  A    between atoms: O_3  and  C_4
REMARK    4  A    between atoms: C_7  and  N_8
REMARK    5  A    between atoms: N_8  and  C_9
REMARK    6  A    between atoms: C_10  and  C_11
REMARK    7  A    between atoms: C_18  and  C_19
REMARK                            x       y       z     vdW  Elec       q    Type
REMARK                         _______ _______ _______ _____ _____    ______ ____
ROOT
ATOM      1  C   UNL     1       0.248  10.480  20.234  0.00  0.00    +0.000 A 
ATOM      2  C   UNL     1       0.095  10.461  21.630  0.00  0.00    +0.000 A 
ATOM      3  C   UNL     1       0.664   9.417  22.336  0.00  0.00    +0.000 A 
ATOM      4  N   UNL     1       1.330   8.381  21.773  0.00  0.00    +0.000 NA
ATOM      5  C   UNL     1       1.508   8.392  20.444  0.00  0.00    +0.000 A 
ATOM      6  C   UNL     1       2.201   7.329  19.861  0.00  0.00    +0.000 A 
ATOM      7  C   UNL     1       2.461   7.236  18.479  0.00  0.00    +0.000 A 
ATOM      8  C   UNL     1       2.026   8.301  17.691  0.00  0.00    +0.000 A 
ATOM      9  C   UNL     1       1.372   9.392  18.258  0.00  0.00    +0.000 A 
ATOM     10  C   UNL     1       1.028   9.434  19.628  0.00  0.00    +0.000 A 
ENDROOT
BRANCH   7  11
ATOM     11  C   UNL     1       3.183   6.092  17.880  0.00  0.00    +0.000 A 
ATOM     12  C   UNL     1       2.643   4.799  17.860  0.00  0.00    +0.000 A 
ATOM     13  C   UNL     1       3.373   3.766  17.289  0.00  0.00    +0.000 A 
ATOM     14  N   UNL     1       4.585   3.921  16.724  0.00  0.00    +0.000 NA
ATOM     15  C   UNL     1       5.098   5.164  16.736  0.00  0.00    +0.000 A 
ATOM     16  C   UNL     1       4.449   6.253  17.293  0.00  0.00    +0.000 A 
ENDBRANCH   7  11
BRANCH   2  17
ATOM     17  C   UNL     1      -0.642  11.473  22.427  0.00  0.00    +0.000 C 
ATOM     18  N   UNL     1      -1.647  11.036  23.242  0.00  0.00    +0.000 N 
ATOM     19  O   UNL     1      -0.335  12.658  22.390  0.00  0.00    +0.000 OA
ATOM     20  H   UNL     1      -1.717  10.058  23.501  0.00  0.00    +0.000 HD
ATOM     21  H   UNL     1      -2.022  11.722  23.890  0.00  0.00    +0.000 HD
ENDBRANCH   2  17
BRANCH   1  22
ATOM     22  N   UNL     1      -0.427  11.454  19.440  0.00  0.00    +0.000 N 
ATOM     23  H   UNL     1       0.055  12.346  19.367  0.00  0.00    +0.000 HD
BRANCH  22  27
ATOM     24  C   UNL     1      -4.089  11.645  17.329  0.00  0.00    +0.000 A 
ATOM     25  C   UNL     1      -4.021  11.998  18.681  0.00  0.00    +0.000 A 
ATOM     26  C   UNL     1      -2.823  11.862  19.402  0.00  0.00    +0.000 A 
ATOM     27  C   UNL     1      -1.671  11.363  18.783  0.00  0.00    +0.000 A 
ATOM     28  C   UNL     1      -1.765  10.960  17.446  0.00  0.00    +0.000 A 
ATOM     29  C   UNL     1      -2.947  11.120  16.726  0.00  0.00    +0.000 A 
ATOM     30  F   UNL     1      -2.916  10.794  15.427  0.00  0.00    +0.000 F 
BRANCH  24  31
ATOM     31  O   UNL     1      -5.300  11.880  16.729  0.00  0.00    +0.000 OA
BRANCH  31  33
ATOM     32  C   UNL     1      -6.799  13.743  16.922  0.00  0.00    +0.000 C 
ATOM     33  C   UNL     1      -6.316  12.452  17.556  0.00  0.00    +0.000 C 
ENDBRANCH  31  33
ENDBRANCH  24  31
ENDBRANCH  22  27
ENDBRANCH   1  22
TORSDOF 6
ENDMDL
MODEL 6
REMARK VINA RESULT:      -8.6      0.903      1.254
REMARK  Name = 
REMARK  7 active torsions:
REMARK  status: ('A' for Active; 'I' for Inactive)
REMARK    1  A    between atoms: C_1  and  C_2
REMARK    2  A    between atoms: C_2  and  O_3
REMARK    3  A    between atoms: O_3  and  C_4
REMARK    4  A    between atoms: C_7  and  N_8
REMARK    5  A    between atoms: N_8  and  C_9
REMARK    6  A    between atoms: C_10  and  C_11
REMARK    7  A    between atoms: C_18  and  C_19
REMARK                            x       y       z     vdW  Elec       q    Type
REMARK                         _______ _______ _______ _____ _____    ______ ____
ROOT
ATOM      1  C   UNL     1       3.343   4.768  19.338  0.00  0.00    +0.000 A 
ATOM      2  C   UNL     1       2.632   3.620  19.727  0.00  0.00    +0.000 A 
ATOM      3  C   UNL     1       2.675   2.512  18.900  0.00  0.00    +0.000 A 
ATOM      4  N   UNL     1       3.325   2.464  17.714  0.00  0.00    +0.000 NA
ATOM      5  C   UNL     1       4.030   3.539  17.335  0.00  0.00    +0.000 A 
ATOM      6  C   UNL     1       4.707   3.490  16.115  0.00  0.00    +0.000 A 
ATOM      7  C   UNL     1       5.489   4.551  15.616  0.00  0.00    +0.000 A 
ATOM      8  C   UNL     1       5.604   5.676  16.433  0.00  0.00    +0.000 A 
ATOM      9  C   UNL     1       4.973   5.729  17.673  0.00  0.00    +0.000 A 
ATOM     10  C   UNL     1       4.111   4.703  18.123  0.00  0.00    +0.000 A 
ENDROOT
BRANCH   7  11
ATOM     11  C   UNL     1       6.185   4.483  14.313  0.00  0.00    +0.000 A 
ATOM     12  C   UNL     1       5.777   3.610  13.296  0.00  0.00    +0.000 A 
ATOM     13  C   UNL     1       6.477   3.588  12.097  0.00  0.00    +0.000 A 
ATOM     14  N   UNL     1       7.534   4.377  11.825  0.00  0.00    +0.000 NA
ATOM     15  C   UNL     1       7.918   5.220  12.799  0.00  0.00    +0.000 A 
ATOM     16  C   UNL     1       7.291   5.303  14.031  0.00  0.00    +0.000 A 
ENDBRANCH   7  11
BRANCH   2  17
ATOM     17  C   UNL     1       1.819   3.492  20.962  0.00  0.00    +0.000 C 
ATOM     18  N   UNL     1       0.512   3.117  20.830  0.00  0.00    +0.000 N 
ATOM     19  O   UNL     1       2.310   3.674  22.069  0.00  0.00    +0.000 OA
ATOM     20  H   UNL     1       0.179   2.689  19.974  0.00  0.00    +0.000 HD
ATOM     21  H   UNL     1       0.030   2.883  21.692  0.00  0.00    +0.000 HD
ENDBRANCH   2  17
BRANCH   1  22
ATOM     22  N   UNL     1       3.229   5.981  20.077  0.00  0.00    +0.000 N 
ATOM     23  H   UNL     1       3.680   5.964  20.989  0.00  0.00    +0.000 HD
BRANCH  22  27
ATOM     24  C   UNL     1       0.838   9.272  18.912  0.00  0.00    +0.000 A 
ATOM     25  C   UNL     1       1.731   8.679  18.013  0.00  0.00    +0.000 A 
ATOM     26  C   UNL     1       2.579   7.637  18.421  0.00  0.00    +0.000 A 
ATOM     27  C   UNL     1       2.555   7.172  19.740  0.00  0.00    +0.000 A 
ATOM     28  C   UNL     1       1.699   7.810  20.646  0.00  0.00    +0.000 A 
ATOM     29  C   UNL     1       0.840   8.826  20.233  0.00  0.00    +0.000 A 
ATOM     30  F   UNL     1      -0.010   9.312  21.148  0.00  0.00    +0.000 F 
BRANCH  24  31
ATOM     31  O   UNL     1       0.027  10.238  18.373  0.00  0.00    +0.000 OA
BRANCH  31  33
ATOM     32  C   UNL     1      -0.986  12.271  19.147  0.00  0.00    +0.000 C 
ATOM     33  C   UNL     1       0.310  11.586  18.754  0.00  0.00    +0.000 C 
ENDBRANCH  31  33
ENDBRANCH  24  31
ENDBRANCH  22  27
ENDBRANCH   1  22
TORSDOF 6
ENDMDL
MODEL 7
REMARK VINA RESULT:      -8.3      3.717      6.725
REMARK  Name = 
REMARK  7 active torsions:
REMARK  status: ('A' for Active; 'I' for Inactive)
REMARK    1  A    between atoms: C_1  and  C_2
REMARK    2  A    between atoms: C_2  and  O_3
REMARK    3  A    between atoms: O_3  and  C_4
REMARK    4  A    between atoms: C_7  and  N_8
REMARK    5  A    between atoms: N_8  and  C_9
REMARK    6  A    between atoms: C_10  and  C_11
REMARK    7  A    between atoms: C_18  and  C_19
REMARK                            x       y       z     vdW  Elec       q    Type
REMARK                         _______ _______ _______ _____ _____    ______ ____
ROOT
ATOM      1  C   UNL     1       0.030  10.679  20.275  0.00  0.00    +0.000 A 
ATOM      2  C   UNL     1      -0.148  10.672  21.668  0.00  0.00    +0.000 A 
ATOM      3  C   UNL     1       0.425   9.644  22.396  0.00  0.00    +0.000 A 
ATOM      4  N   UNL     1       1.117   8.614  21.856  0.00  0.00    +0.000 NA
ATOM      5  C   UNL     1       1.320   8.614  20.530  0.00  0.00    +0.000 A 
ATOM      6  C   UNL     1       2.040   7.557  19.971  0.00  0.00    +0.000 A 
ATOM      7  C   UNL     1       2.327   7.453  18.595  0.00  0.00    +0.000 A 
ATOM      8  C   UNL     1       1.890   8.503  17.788  0.00  0.00    +0.000 A 
ATOM      9  C   UNL     1       1.208   9.589  18.331  0.00  0.00    +0.000 A 
ATOM     10  C   UNL     1       0.838   9.640  19.694  0.00  0.00    +0.000 A 
ENDROOT
BRANCH   7  11
ATOM     11  C   UNL     1       3.078   6.315  18.022  0.00  0.00    +0.000 A 
ATOM     12  C   UNL     1       2.516   5.036  17.906  0.00  0.00    +0.000 A 
ATOM     13  C   UNL     1       3.276   4.007  17.365  0.00  0.00    +0.000 A 
ATOM     14  N   UNL     1       4.537   4.155  16.917  0.00  0.00    +0.000 NA
ATOM     15  C   UNL     1       5.070   5.384  17.021  0.00  0.00    +0.000 A 
ATOM     16  C   UNL     1       4.395   6.468  17.558  0.00  0.00    +0.000 A 
ENDBRANCH   7  11
BRANCH   2  17
ATOM     17  C   UNL     1      -0.916  11.680  22.440  0.00  0.00    +0.000 C 
ATOM     18  N   UNL     1      -0.471  12.970  22.427  0.00  0.00    +0.000 N 
ATOM     19  O   UNL     1      -1.942  11.376  23.037  0.00  0.00    +0.000 OA
ATOM     20  H   UNL     1       0.185  13.286  21.722  0.00  0.00    +0.000 HD
ATOM     21  H   UNL     1      -1.101  13.660  22.827  0.00  0.00    +0.000 HD
ENDBRANCH   2  17
BRANCH   1  22
ATOM     22  N   UNL     1      -0.645  11.634  19.459  0.00  0.00    +0.000 N 
ATOM     23  H   UNL     1      -0.074  12.427  19.178  0.00  0.00    +0.000 HD
BRANCH  22  27
ATOM     24  C   UNL     1      -4.754  11.332  18.494  0.00  0.00    +0.000 A 
ATOM     25  C   UNL     1      -3.805  10.532  17.849  0.00  0.00    +0.000 A 
ATOM     26  C   UNL     1      -2.434  10.685  18.114  0.00  0.00    +0.000 A 
ATOM     27  C   UNL     1      -1.986  11.648  19.025  0.00  0.00    +0.000 A 
ATOM     28  C   UNL     1      -2.939  12.481  19.622  0.00  0.00    +0.000 A 
ATOM     29  C   UNL     1      -4.301  12.310  19.378  0.00  0.00    +0.000 A 
ATOM     30  F   UNL     1      -5.144  13.091  20.066  0.00  0.00    +0.000 F 
BRANCH  24  31
ATOM     31  O   UNL     1      -6.059  11.043  18.189  0.00  0.00    +0.000 OA
BRANCH  31  33
ATOM     32  C   UNL     1      -7.416  10.699  20.139  0.00  0.00    +0.000 C 
ATOM     33  C   UNL     1      -6.687  10.035  18.985  0.00  0.00    +0.000 C 
ENDBRANCH  31  33
ENDBRANCH  24  31
ENDBRANCH  22  27
ENDBRANCH   1  22
TORSDOF 6
ENDMDL
MODEL 8
REMARK VINA RESULT:      -8.2      3.528      6.580
REMARK  Name = 
REMARK  7 active torsions:
REMARK  status: ('A' for Active; 'I' for Inactive)
REMARK    1  A    between atoms: C_1  and  C_2
REMARK    2  A    between atoms: C_2  and  O_3
REMARK    3  A    between atoms: O_3  and  C_4
REMARK    4  A    between atoms: C_7  and  N_8
REMARK    5  A    between atoms: N_8  and  C_9
REMARK    6  A    between atoms: C_10  and  C_11
REMARK    7  A    between atoms: C_18  and  C_19
REMARK                            x       y       z     vdW  Elec       q    Type
REMARK                         _______ _______ _______ _____ _____    ______ ____
ROOT
ATOM      1  C   UNL     1       0.034  10.589  20.233  0.00  0.00    +0.000 A 
ATOM      2  C   UNL     1      -0.082  10.585  21.633  0.00  0.00    +0.000 A 
ATOM      3  C   UNL     1       0.569   9.590  22.340  0.00  0.00    +0.000 A 
ATOM      4  N   UNL     1       1.285   8.590  21.776  0.00  0.00    +0.000 NA
ATOM      5  C   UNL     1       1.430   8.589  20.443  0.00  0.00    +0.000 A 
ATOM      6  C   UNL     1       2.173   7.562  19.858  0.00  0.00    +0.000 A 
ATOM      7  C   UNL     1       2.405   7.462  18.472  0.00  0.00    +0.000 A 
ATOM      8  C   UNL     1       1.884   8.484  17.679  0.00  0.00    +0.000 A 
ATOM      9  C   UNL     1       1.176   9.541  18.246  0.00  0.00    +0.000 A 
ATOM     10  C   UNL     1       0.864   9.585  19.624  0.00  0.00    +0.000 A 
ENDROOT
BRANCH   7  11
ATOM     11  C   UNL     1       3.183   6.356  17.872  0.00  0.00    +0.000 A 
ATOM     12  C   UNL     1       4.421   6.569  17.250  0.00  0.00    +0.000 A 
ATOM     13  C   UNL     1       5.099   5.489  16.700  0.00  0.00    +0.000 A 
ATOM     14  N   UNL     1       4.653   4.219  16.736  0.00  0.00    +0.000 NA
ATOM     15  C   UNL     1       3.470   4.017  17.341  0.00  0.00    +0.000 A 
ATOM     16  C   UNL     1       2.716   5.032  17.906  0.00  0.00    +0.000 A 
ENDBRANCH   7  11
BRANCH   2  17
ATOM     17  C   UNL     1      -0.862  11.561  22.433  0.00  0.00    +0.000 C 
ATOM     18  N   UNL     1      -0.536  12.882  22.325  0.00  0.00    +0.000 N 
ATOM     19  O   UNL     1      -1.799  11.202  23.136  0.00  0.00    +0.000 OA
ATOM     20  H   UNL     1       0.023  13.217  21.548  0.00  0.00    +0.000 HD
ATOM     21  H   UNL     1      -1.184  13.535  22.754  0.00  0.00    +0.000 HD
ENDBRANCH   2  17
BRANCH   1  22
ATOM     22  N   UNL     1      -0.720  11.505  19.442  0.00  0.00    +0.000 N 
ATOM     23  H   UNL     1      -0.236  12.372  19.223  0.00  0.00    +0.000 HD
BRANCH  22  27
ATOM     24  C   UNL     1      -4.601  11.582  17.758  0.00  0.00    +0.000 A 
ATOM     25  C   UNL     1      -4.340  12.194  18.988  0.00  0.00    +0.000 A 
ATOM     26  C   UNL     1      -3.072  12.104  19.584  0.00  0.00    +0.000 A 
ATOM     27  C   UNL     1      -2.040  11.392  18.962  0.00  0.00    +0.000 A 
ATOM     28  C   UNL     1      -2.328  10.735  17.759  0.00  0.00    +0.000 A 
ATOM     29  C   UNL     1      -3.579  10.847  17.157  0.00  0.00    +0.000 A 
ATOM     30  F   UNL     1      -3.733  10.263  15.961  0.00  0.00    +0.000 F 
BRANCH  24  31
ATOM     31  O   UNL     1      -5.861  11.794  17.260  0.00  0.00    +0.000 OA
BRANCH  31  33
ATOM     32  C   UNL     1      -7.658  13.227  17.949  0.00  0.00    +0.000 C 
ATOM     33  C   UNL     1      -6.316  13.149  17.245  0.00  0.00    +0.000 C 
ENDBRANCH  31  33
ENDBRANCH  24  31
ENDBRANCH  22  27
ENDBRANCH   1  22
TORSDOF 6
ENDMDL
MODEL 9
REMARK VINA RESULT:      -8.2      2.935      7.774
REMARK  Name = 
REMARK  7 active torsions:
REMARK  status: ('A' for Active; 'I' for Inactive)
REMARK    1  A    between atoms: C_1  and  C_2
REMARK    2  A    between atoms: C_2  and  O_3
REMARK    3  A    between atoms: O_3  and  C_4
REMARK    4  A    between atoms: C_7  and  N_8
REMARK    5  A    between atoms: N_8  and  C_9
REMARK    6  A    between atoms: C_10  and  C_11
REMARK    7  A    between atoms: C_18  and  C_19
REMARK                            x       y       z     vdW  Elec       q    Type
REMARK                         _______ _______ _______ _____ _____    ______ ____
ROOT
ATOM      1  C   UNL     1       3.126   4.453  18.346  0.00  0.00    +0.000 A 
ATOM      2  C   UNL     1       3.279   3.550  19.411  0.00  0.00    +0.000 A 
ATOM      3  C   UNL     1       2.940   3.974  20.683  0.00  0.00    +0.000 A 
ATOM      4  N   UNL     1       2.506   5.219  20.987  0.00  0.00    +0.000 NA
ATOM      5  C   UNL     1       2.329   6.090  19.983  0.00  0.00    +0.000 A 
ATOM      6  C   UNL     1       1.874   7.373  20.292  0.00  0.00    +0.000 A 
ATOM      7  C   UNL     1       1.639   8.370  19.323  0.00  0.00    +0.000 A 
ATOM      8  C   UNL     1       1.842   8.003  17.992  0.00  0.00    +0.000 A 
ATOM      9  C   UNL     1       2.254   6.716  17.658  0.00  0.00    +0.000 A 
ATOM     10  C   UNL     1       2.582   5.752  18.639  0.00  0.00    +0.000 A 
ENDROOT
BRANCH   7  11
ATOM     11  C   UNL     1       1.173   9.728  19.675  0.00  0.00    +0.000 A 
ATOM     12  C   UNL     1       1.253  10.799  18.774  0.00  0.00    +0.000 A 
ATOM     13  C   UNL     1       0.804  12.053  19.168  0.00  0.00    +0.000 A 
ATOM     14  N   UNL     1       0.268  12.319  20.374  0.00  0.00    +0.000 NA
ATOM     15  C   UNL     1       0.183  11.288  21.232  0.00  0.00    +0.000 A 
ATOM     16  C   UNL     1       0.616  10.007  20.934  0.00  0.00    +0.000 A 
ENDBRANCH   7  11
BRANCH   2  17
ATOM     17  C   UNL     1       3.789   2.161  19.292  0.00  0.00    +0.000 C 
ATOM     18  N   UNL     1       4.840   1.796  20.083  0.00  0.00    +0.000 N 
ATOM     19  O   UNL     1       3.259   1.352  18.541  0.00  0.00    +0.000 OA
ATOM     20  H   UNL     1       5.093   2.346  20.896  0.00  0.00    +0.000 HD
ATOM     21  H   UNL     1       5.061   0.805  20.097  0.00  0.00    +0.000 HD
ENDBRANCH   2  17
BRANCH   1  22
ATOM     22  N   UNL     1       3.583   4.121  17.037  0.00  0.00    +0.000 N 
ATOM     23  H   UNL     1       2.911   3.605  16.474  0.00  0.00    +0.000 HD
BRANCH  22  27
ATOM     24  C   UNL     1       7.116   5.234  14.992  0.00  0.00    +0.000 A 
ATOM     25  C   UNL     1       6.249   4.276  14.457  0.00  0.00    +0.000 A 
ATOM     26  C   UNL     1       5.116   3.851  15.170  0.00  0.00    +0.000 A 
ATOM     27  C   UNL     1       4.834   4.372  16.438  0.00  0.00    +0.000 A 
ATOM     28  C   UNL     1       5.738   5.287  16.988  0.00  0.00    +0.000 A 
ATOM     29  C   UNL     1       6.847   5.727  16.268  0.00  0.00    +0.000 A 
ATOM     30  F   UNL     1       7.605   6.674  16.837  0.00  0.00    +0.000 F 
BRANCH  24  31
ATOM     31  O   UNL     1       8.151   5.602  14.171  0.00  0.00    +0.000 OA
BRANCH  31  33
ATOM     32  C   UNL     1       8.094   6.254  11.862  0.00  0.00    +0.000 C 
ATOM     33  C   UNL     1       8.113   5.091  12.837  0.00  0.00    +0.000 C 
ENDBRANCH  31  33
ENDBRANCH  24  31
ENDBRANCH  22  27
ENDBRANCH   1  22
TORSDOF 6
ENDMDL
