MODEL 1
REMARK VINA RESULT:      -8.4      0.000      0.000
REMARK  Name = 
REMARK  6 active torsions:
REMARK  status: ('A' for Active; 'I' for Inactive)
REMARK    1  A    between atoms: C_1  and  C_2
REMARK    2  A    between atoms: C_2  and  C_3
REMARK    3  A    between atoms: N_10  and  O_11
REMARK    4  A    between atoms: O_11  and  C_12
REMARK    5  A    between atoms: C_12  and  C_13
REMARK    6  A    between atoms: C_14  and  C_15
REMARK                            x       y       z     vdW  Elec       q    Type
REMARK                         _______ _______ _______ _____ _____    ______ ____
ROOT
ATOM      1  C   UNL     1       6.279   4.215  15.071  0.00  0.00    +0.000 C 
ATOM      2  C   UNL     1       5.723   5.294  16.004  0.00  0.00    +0.000 C 
ATOM      3  C   UNL     1       5.299   6.519  15.195  0.00  0.00    +0.000 C 
ATOM      4  N   UNL     1       4.585   4.798  16.746  0.00  0.00    +0.000 N 
ATOM      5  C   UNL     1       4.740   3.869  17.720  0.00  0.00    +0.000 C 
ATOM      6  N   UNL     1       3.814   3.069  18.104  0.00  0.00    +0.000 NA
ATOM      7  N   UNL     1       5.969   3.842  18.271  0.00  0.00    +0.000 N 
ATOM      8  C   UNL     1       6.997   4.681  18.034  0.00  0.00    +0.000 C 
ATOM      9  N   UNL     1       8.139   4.683  18.619  0.00  0.00    +0.000 NA
ATOM     10  N   UNL     1       6.739   5.648  17.009  0.00  0.00    +0.000 N 
ATOM     11  H   UNL     1       3.722   4.755  16.217  0.00  0.00    +0.000 HD
ATOM     12  H   UNL     1       2.947   3.239  17.588  0.00  0.00    +0.000 HD
ATOM     13  H   UNL     1       6.064   3.163  19.010  0.00  0.00    +0.000 HD
ATOM     14  H   UNL     1       8.188   3.919  19.296  0.00  0.00    +0.000 HD
ENDROOT
BRANCH  10  15
ATOM     15  O   UNL     1       7.637   6.712  16.784  0.00  0.00    +0.000 OA
BRANCH  15  16
ATOM     16  C   UNL     1       7.201   7.870  17.513  0.00  0.00    +0.000 C 
BRANCH  16  17
ATOM     17  C   UNL     1       8.358   8.689  18.015  0.00  0.00    +0.000 C 
ATOM     18  C   UNL     1       8.345  10.008  18.266  0.00  0.00    +0.000 C 
BRANCH  18  19
ATOM     19  C   UNL     1       9.495  10.781  18.759  0.00  0.00    +0.000 A 
ATOM     20  C   UNL     1       9.697  11.047  20.120  0.00  0.00    +0.000 A 
ATOM     21  C   UNL     1      10.835  11.740  20.548  0.00  0.00    +0.000 A 
ATOM     22  C   UNL     1      11.784  12.167  19.621  0.00  0.00    +0.000 A 
ATOM     23  C   UNL     1      11.601  11.896  18.267  0.00  0.00    +0.000 A 
ATOM     24  C   UNL     1      10.467  11.202  17.840  0.00  0.00    +0.000 A 
ENDBRANCH  18  19
ENDBRANCH  16  17
ENDBRANCH  15  16
ENDBRANCH  10  15
TORSDOF 4
ENDMDL
MODEL 2
REMARK VINA RESULT:      -8.3      0.790      1.333
REMARK  Name = 
REMARK  6 active torsions:
REMARK  status: ('A' for Active; 'I' for Inactive)
REMARK    1  A    between atoms: C_1  and  C_2
REMARK    2  A    between atoms: C_2  and  C_3
REMARK    3  A    between atoms: N_10  and  O_11
REMARK    4  A    between atoms: O_11  and  C_12
REMARK    5  A    between atoms: C_12  and  C_13
REMARK    6  A    between atoms: C_14  and  C_15
REMARK                            x       y       z     vdW  Elec       q    Type
REMARK                         _______ _______ _______ _____ _____    ______ ____
ROOT
ATOM      1  C   UNL     1       6.491   4.043  16.119  0.00  0.00    +0.000 C 
ATOM      2  C   UNL     1       5.861   5.313  16.696  0.00  0.00    +0.000 C 
ATOM      3  C   UNL     1       5.389   6.225  15.564  0.00  0.00    +0.000 C 
ATOM      4  N   UNL     1       4.735   4.991  17.546  0.00  0.00    +0.000 N 
ATOM      5  C   UNL     1       4.919   4.395  18.748  0.00  0.00    +0.000 C 
ATOM      6  N   UNL     1       4.029   3.690  19.344  0.00  0.00    +0.000 NA
ATOM      7  N   UNL     1       6.137   4.597  19.288  0.00  0.00    +0.000 N 
ATOM      8  C   UNL     1       7.124   5.389  18.821  0.00  0.00    +0.000 C 
ATOM      9  N   UNL     1       8.252   5.625  19.386  0.00  0.00    +0.000 NA
ATOM     10  N   UNL     1       6.836   6.001  17.559  0.00  0.00    +0.000 N 
ATOM     11  H   UNL     1       3.887   4.748  17.048  0.00  0.00    +0.000 HD
ATOM     12  H   UNL     1       3.165   3.653  18.798  0.00  0.00    +0.000 HD
ATOM     13  H   UNL     1       6.252   4.169  20.193  0.00  0.00    +0.000 HD
ATOM     14  H   UNL     1       8.327   5.093  20.256  0.00  0.00    +0.000 HD
ENDROOT
BRANCH  10  15
ATOM     15  O   UNL     1       7.681   7.002  17.037  0.00  0.00    +0.000 OA
BRANCH  15  16
ATOM     16  C   UNL     1       7.288   8.281  17.561  0.00  0.00    +0.000 C 
BRANCH  16  17
ATOM     17  C   UNL     1       8.451   9.030  18.151  0.00  0.00    +0.000 C 
ATOM     18  C   UNL     1       8.680  10.349  18.043  0.00  0.00    +0.000 C 
BRANCH  18  19
ATOM     19  C   UNL     1       9.827  11.053  18.634  0.00  0.00    +0.000 A 
ATOM     20  C   UNL     1      10.864  11.593  17.860  0.00  0.00    +0.000 A 
ATOM     21  C   UNL     1      11.907  12.303  18.464  0.00  0.00    +0.000 A 
ATOM     22  C   UNL     1      11.921  12.487  19.845  0.00  0.00    +0.000 A 
ATOM     23  C   UNL     1      10.890  11.968  20.624  0.00  0.00    +0.000 A 
ATOM     24  C   UNL     1       9.847  11.261  20.021  0.00  0.00    +0.000 A 
ENDBRANCH  18  19
ENDBRANCH  16  17
ENDBRANCH  15  16
ENDBRANCH  10  15
TORSDOF 4
ENDMDL
MODEL 3
REMARK VINA RESULT:      -8.0      1.050      1.379
REMARK  Name = 
REMARK  6 active torsions:
REMARK  status: ('A' for Active; 'I' for Inactive)
REMARK    1  A    between atoms: C_1  and  C_2
REMARK    2  A    between atoms: C_2  and  C_3
REMARK    3  A    between atoms: N_10  and  O_11
REMARK    4  A    between atoms: O_11  and  C_12
REMARK    5  A    between atoms: C_12  and  C_13
REMARK    6  A    between atoms: C_14  and  C_15
REMARK                            x       y       z     vdW  Elec       q    Type
REMARK                         _______ _______ _______ _____ _____    ______ ____
ROOT
ATOM      1  C   UNL     1       5.340   4.880  15.129  0.00  0.00    +0.000 C 
ATOM      2  C   UNL     1       5.275   5.728  16.402  0.00  0.00    +0.000 C 
ATOM      3  C   UNL     1       4.832   7.150  16.063  0.00  0.00    +0.000 C 
ATOM      4  N   UNL     1       4.349   5.157  17.355  0.00  0.00    +0.000 N 
ATOM      5  C   UNL     1       4.637   4.001  18.000  0.00  0.00    +0.000 C 
ATOM      6  N   UNL     1       3.753   3.211  18.488  0.00  0.00    +0.000 NA
ATOM      7  N   UNL     1       5.953   3.729  18.091  0.00  0.00    +0.000 N 
ATOM      8  C   UNL     1       6.985   4.511  17.712  0.00  0.00    +0.000 C 
ATOM      9  N   UNL     1       8.234   4.266  17.871  0.00  0.00    +0.000 NA
ATOM     10  N   UNL     1       6.590   5.726  17.064  0.00  0.00    +0.000 N 
ATOM     11  H   UNL     1       3.372   5.325  17.147  0.00  0.00    +0.000 HD
ATOM     12  H   UNL     1       2.810   3.580  18.339  0.00  0.00    +0.000 HD
ATOM     13  H   UNL     1       6.155   2.879  18.593  0.00  0.00    +0.000 HD
ATOM     14  H   UNL     1       8.360   3.353  18.312  0.00  0.00    +0.000 HD
ENDROOT
BRANCH  10  15
ATOM     15  O   UNL     1       7.539   6.732  16.787  0.00  0.00    +0.000 OA
BRANCH  15  16
ATOM     16  C   UNL     1       7.708   7.564  17.945  0.00  0.00    +0.000 C 
BRANCH  16  17
ATOM     17  C   UNL     1       8.305   8.900  17.598  0.00  0.00    +0.000 C 
ATOM     18  C   UNL     1       8.805   9.794  18.467  0.00  0.00    +0.000 C 
BRANCH  18  19
ATOM     19  C   UNL     1       9.386  11.092  18.095  0.00  0.00    +0.000 A 
ATOM     20  C   UNL     1       8.600  12.216  17.804  0.00  0.00    +0.000 A 
ATOM     21  C   UNL     1       9.198  13.445  17.509  0.00  0.00    +0.000 A 
ATOM     22  C   UNL     1      10.586  13.566  17.508  0.00  0.00    +0.000 A 
ATOM     23  C   UNL     1      11.378  12.461  17.809  0.00  0.00    +0.000 A 
ATOM     24  C   UNL     1      10.781  11.234  18.107  0.00  0.00    +0.000 A 
ENDBRANCH  18  19
ENDBRANCH  16  17
ENDBRANCH  15  16
ENDBRANCH  10  15
TORSDOF 4
ENDMDL
MODEL 4
REMARK VINA RESULT:      -8.0      5.683      7.144
REMARK  Name = 
REMARK  6 active torsions:
REMARK  status: ('A' for Active; 'I' for Inactive)
REMARK    1  A    between atoms: C_1  and  C_2
REMARK    2  A    between atoms: C_2  and  C_3
REMARK    3  A    between atoms: N_10  and  O_11
REMARK    4  A    between atoms: O_11  and  C_12
REMARK    5  A    between atoms: C_12  and  C_13
REMARK    6  A    between atoms: C_14  and  C_15
REMARK                            x       y       z     vdW  Elec       q    Type
REMARK                         _______ _______ _______ _____ _____    ______ ____
ROOT
ATOM      1  C   UNL     1       4.469   2.845  19.702  0.00  0.00    +0.000 C 
ATOM      2  C   UNL     1       3.053   2.970  19.135  0.00  0.00    +0.000 C 
ATOM      3  C   UNL     1       2.949   2.211  17.813  0.00  0.00    +0.000 C 
ATOM      4  N   UNL     1       2.078   2.441  20.063  0.00  0.00    +0.000 N 
ATOM      5  C   UNL     1       1.797   3.087  21.221  0.00  0.00    +0.000 C 
ATOM      6  N   UNL     1       1.323   2.515  22.266  0.00  0.00    +0.000 NA
ATOM      7  N   UNL     1       2.063   4.407  21.199  0.00  0.00    +0.000 N 
ATOM      8  C   UNL     1       2.468   5.149  20.148  0.00  0.00    +0.000 C 
ATOM      9  N   UNL     1       2.649   6.419  20.127  0.00  0.00    +0.000 NA
ATOM     10  N   UNL     1       2.715   4.391  18.958  0.00  0.00    +0.000 N 
ATOM     11  H   UNL     1       2.022   1.430  20.087  0.00  0.00    +0.000 HD
ATOM     12  H   UNL     1       1.172   1.516  22.099  0.00  0.00    +0.000 HD
ATOM     13  H   UNL     1       1.827   4.879  22.058  0.00  0.00    +0.000 HD
ATOM     14  H   UNL     1       2.469   6.814  21.053  0.00  0.00    +0.000 HD
ENDROOT
BRANCH  10  15
ATOM     15  O   UNL     1       2.954   5.042  17.730  0.00  0.00    +0.000 OA
BRANCH  15  16
ATOM     16  C   UNL     1       4.286   5.580  17.724  0.00  0.00    +0.000 C 
BRANCH  16  17
ATOM     17  C   UNL     1       4.937   5.461  16.373  0.00  0.00    +0.000 C 
ATOM     18  C   UNL     1       5.321   4.321  15.776  0.00  0.00    +0.000 C 
BRANCH  18  19
ATOM     19  C   UNL     1       5.953   4.238  14.451  0.00  0.00    +0.000 A 
ATOM     20  C   UNL     1       5.423   3.466  13.409  0.00  0.00    +0.000 A 
ATOM     21  C   UNL     1       6.029   3.461  12.148  0.00  0.00    +0.000 A 
ATOM     22  C   UNL     1       7.166   4.232  11.915  0.00  0.00    +0.000 A 
ATOM     23  C   UNL     1       7.695   5.014  12.939  0.00  0.00    +0.000 A 
ATOM     24  C   UNL     1       7.088   5.022  14.197  0.00  0.00    +0.000 A 
ENDBRANCH  18  19
ENDBRANCH  16  17
ENDBRANCH  15  16
ENDBRANCH  10  15
TORSDOF 4
ENDMDL
MODEL 5
REMARK VINA RESULT:      -7.7      6.009      7.623
REMARK  Name = 
REMARK  6 active torsions:
REMARK  status: ('A' for Active; 'I' for Inactive)
REMARK    1  A    between atoms: C_1  and  C_2
REMARK    2  A    between atoms: C_2  and  C_3
REMARK    3  A    between atoms: N_10  and  O_11
REMARK    4  A    between atoms: O_11  and  C_12
REMARK    5  A    between atoms: C_12  and  C_13
REMARK    6  A    between atoms: C_14  and  C_15
REMARK                            x       y       z     vdW  Elec       q    Type
REMARK                         _______ _______ _______ _____ _____    ______ ____
ROOT
ATOM      1  C   UNL     1       1.425   2.542  18.827  0.00  0.00    +0.000 C 
ATOM      2  C   UNL     1       2.176   3.521  19.732  0.00  0.00    +0.000 C 
ATOM      3  C   UNL     1       1.221   4.122  20.762  0.00  0.00    +0.000 C 
ATOM      4  N   UNL     1       3.262   2.858  20.421  0.00  0.00    +0.000 N 
ATOM      5  C   UNL     1       4.365   2.449  19.751  0.00  0.00    +0.000 C 
ATOM      6  N   UNL     1       5.136   1.503  20.146  0.00  0.00    +0.000 NA
ATOM      7  N   UNL     1       4.602   3.120  18.607  0.00  0.00    +0.000 N 
ATOM      8  C   UNL     1       3.936   4.190  18.127  0.00  0.00    +0.000 C 
ATOM      9  N   UNL     1       4.219   4.861  17.071  0.00  0.00    +0.000 NA
ATOM     10  N   UNL     1       2.800   4.573  18.911  0.00  0.00    +0.000 N 
ATOM     11  H   UNL     1       2.976   2.289  21.208  0.00  0.00    +0.000 HD
ATOM     12  H   UNL     1       4.813   1.115  21.036  0.00  0.00    +0.000 HD
ATOM     13  H   UNL     1       5.439   2.822  18.131  0.00  0.00    +0.000 HD
ATOM     14  H   UNL     1       5.028   4.450  16.600  0.00  0.00    +0.000 HD
ENDROOT
BRANCH  10  15
ATOM     15  O   UNL     1       2.122   5.781  18.650  0.00  0.00    +0.000 OA
BRANCH  15  16
ATOM     16  C   UNL     1       2.788   6.860  19.326  0.00  0.00    +0.000 C 
BRANCH  16  17
ATOM     17  C   UNL     1       1.823   7.917  19.788  0.00  0.00    +0.000 C 
ATOM     18  C   UNL     1       1.446   8.146  21.056  0.00  0.00    +0.000 C 
BRANCH  18  19
ATOM     19  C   UNL     1       0.501   9.192  21.476  0.00  0.00    +0.000 A 
ATOM     20  C   UNL     1       0.025   9.296  22.789  0.00  0.00    +0.000 A 
ATOM     21  C   UNL     1      -0.831  10.340  23.155  0.00  0.00    +0.000 A 
ATOM     22  C   UNL     1      -1.213  11.294  22.214  0.00  0.00    +0.000 A 
ATOM     23  C   UNL     1      -0.736  11.210  20.909  0.00  0.00    +0.000 A 
ATOM     24  C   UNL     1       0.120  10.168  20.544  0.00  0.00    +0.000 A 
ENDBRANCH  18  19
ENDBRANCH  16  17
ENDBRANCH  15  16
ENDBRANCH  10  15
TORSDOF 4
ENDMDL
MODEL 6
REMARK VINA RESULT:      -7.7      5.728      7.196
REMARK  Name = 
REMARK  6 active torsions:
REMARK  status: ('A' for Active; 'I' for Inactive)
REMARK    1  A    between atoms: C_1  and  C_2
REMARK    2  A    between atoms: C_2  and  C_3
REMARK    3  A    between atoms: N_10  and  O_11
REMARK    4  A    between atoms: O_11  and  C_12
REMARK    5  A    between atoms: C_12  and  C_13
REMARK    6  A    between atoms: C_14  and  C_15
REMARK                            x       y       z     vdW  Elec       q    Type
REMARK                         _______ _______ _______ _____ _____    ______ ____
ROOT
ATOM      1  C   UNL     1       4.113   2.473  19.543  0.00  0.00    +0.000 C 
ATOM      2  C   UNL     1       2.729   2.877  19.028  0.00  0.00    +0.000 C 
ATOM      3  C   UNL     1       2.480   2.256  17.654  0.00  0.00    +0.000 C 
ATOM      4  N   UNL     1       1.692   2.443  19.939  0.00  0.00    +0.000 N 
ATOM      5  C   UNL     1       1.541   3.030  21.151  0.00  0.00    +0.000 C 
ATOM      6  N   UNL     1       0.992   2.461  22.160  0.00  0.00    +0.000 NA
ATOM      7  N   UNL     1       2.024   4.285  21.224  0.00  0.00    +0.000 N 
ATOM      8  C   UNL     1       2.533   5.032  20.224  0.00  0.00    +0.000 C 
ATOM      9  N   UNL     1       2.923   6.252  20.298  0.00  0.00    +0.000 NA
ATOM     10  N   UNL     1       2.632   4.344  18.972  0.00  0.00    +0.000 N 
ATOM     11  H   UNL     1       1.469   1.457  19.885  0.00  0.00    +0.000 HD
ATOM     12  H   UNL     1       0.674   1.518  21.921  0.00  0.00    +0.000 HD
ATOM     13  H   UNL     1       1.883   4.718  22.124  0.00  0.00    +0.000 HD
ATOM     14  H   UNL     1       2.826   6.595  21.256  0.00  0.00    +0.000 HD
ENDROOT
BRANCH  10  15
ATOM     15  O   UNL     1       2.959   5.045  17.792  0.00  0.00    +0.000 OA
BRANCH  15  16
ATOM     16  C   UNL     1       4.358   5.368  17.799  0.00  0.00    +0.000 C 
BRANCH  16  17
ATOM     17  C   UNL     1       4.950   5.341  16.417  0.00  0.00    +0.000 C 
ATOM     18  C   UNL     1       5.435   4.260  15.783  0.00  0.00    +0.000 C 
BRANCH  18  19
ATOM     19  C   UNL     1       6.006   4.266  14.428  0.00  0.00    +0.000 A 
ATOM     20  C   UNL     1       7.178   4.962  14.106  0.00  0.00    +0.000 A 
ATOM     21  C   UNL     1       7.714   4.894  12.816  0.00  0.00    +0.000 A 
ATOM     22  C   UNL     1       7.088   4.123  11.838  0.00  0.00    +0.000 A 
ATOM     23  C   UNL     1       5.930   3.416  12.149  0.00  0.00    +0.000 A 
ATOM     24  C   UNL     1       5.396   3.482  13.438  0.00  0.00    +0.000 A 
ENDBRANCH  18  19
ENDBRANCH  16  17
ENDBRANCH  15  16
ENDBRANCH  10  15
TORSDOF 4
ENDMDL
MODEL 7
REMARK VINA RESULT:      -7.7      3.950      7.260
REMARK  Name = 
REMARK  6 active torsions:
REMARK  status: ('A' for Active; 'I' for Inactive)
REMARK    1  A    between atoms: C_1  and  C_2
REMARK    2  A    between atoms: C_2  and  C_3
REMARK    3  A    between atoms: N_10  and  O_11
REMARK    4  A    between atoms: O_11  and  C_12
REMARK    5  A    between atoms: C_12  and  C_13
REMARK    6  A    between atoms: C_14  and  C_15
REMARK                            x       y       z     vdW  Elec       q    Type
REMARK                         _______ _______ _______ _____ _____    ______ ____
ROOT
ATOM      1  C   UNL     1       6.733   4.823  14.741  0.00  0.00    +0.000 C 
ATOM      2  C   UNL     1       5.916   4.799  16.035  0.00  0.00    +0.000 C 
ATOM      3  C   UNL     1       4.573   4.110  15.793  0.00  0.00    +0.000 C 
ATOM      4  N   UNL     1       6.627   4.098  17.081  0.00  0.00    +0.000 N 
ATOM      5  C   UNL     1       7.732   4.635  17.652  0.00  0.00    +0.000 C 
ATOM      6  N   UNL     1       8.650   3.947  18.226  0.00  0.00    +0.000 NA
ATOM      7  N   UNL     1       7.804   5.977  17.568  0.00  0.00    +0.000 N 
ATOM      8  C   UNL     1       6.873   6.824  17.084  0.00  0.00    +0.000 C 
ATOM      9  N   UNL     1       6.928   8.105  17.077  0.00  0.00    +0.000 NA
ATOM     10  N   UNL     1       5.725   6.174  16.525  0.00  0.00    +0.000 N 
ATOM     11  H   UNL     1       6.607   3.088  17.002  0.00  0.00    +0.000 HD
ATOM     12  H   UNL     1       8.426   2.949  18.207  0.00  0.00    +0.000 HD
ATOM     13  H   UNL     1       8.619   6.365  18.018  0.00  0.00    +0.000 HD
ATOM     14  H   UNL     1       7.816   8.421  17.474  0.00  0.00    +0.000 HD
ENDROOT
BRANCH  10  15
ATOM     15  O   UNL     1       4.586   6.919  16.158  0.00  0.00    +0.000 OA
BRANCH  15  16
ATOM     16  C   UNL     1       3.991   7.493  17.332  0.00  0.00    +0.000 C 
BRANCH  16  17
ATOM     17  C   UNL     1       3.580   6.442  18.327  0.00  0.00    +0.000 C 
ATOM     18  C   UNL     1       2.490   5.662  18.251  0.00  0.00    +0.000 C 
BRANCH  18  19
ATOM     19  C   UNL     1       2.117   4.641  19.241  0.00  0.00    +0.000 A 
ATOM     20  C   UNL     1       2.503   4.715  20.586  0.00  0.00    +0.000 A 
ATOM     21  C   UNL     1       2.078   3.748  21.502  0.00  0.00    +0.000 A 
ATOM     22  C   UNL     1       1.257   2.702  21.086  0.00  0.00    +0.000 A 
ATOM     23  C   UNL     1       0.854   2.624  19.755  0.00  0.00    +0.000 A 
ATOM     24  C   UNL     1       1.277   3.592  18.840  0.00  0.00    +0.000 A 
ENDBRANCH  18  19
ENDBRANCH  16  17
ENDBRANCH  15  16
ENDBRANCH  10  15
TORSDOF 4
ENDMDL
MODEL 8
REMARK VINA RESULT:      -7.7      1.087      1.504
REMARK  Name = 
REMARK  6 active torsions:
REMARK  status: ('A' for Active; 'I' for Inactive)
REMARK    1  A    between atoms: C_1  and  C_2
REMARK    2  A    between atoms: C_2  and  C_3
REMARK    3  A    between atoms: N_10  and  O_11
REMARK    4  A    between atoms: O_11  and  C_12
REMARK    5  A    between atoms: C_12  and  C_13
REMARK    6  A    between atoms: C_14  and  C_15
REMARK                            x       y       z     vdW  Elec       q    Type
REMARK                         _______ _______ _______ _____ _____    ______ ____
ROOT
ATOM      1  C   UNL     1       6.808   4.760  15.848  0.00  0.00    +0.000 C 
ATOM      2  C   UNL     1       5.566   5.393  16.479  0.00  0.00    +0.000 C 
ATOM      3  C   UNL     1       4.991   6.461  15.548  0.00  0.00    +0.000 C 
ATOM      4  N   UNL     1       4.552   4.394  16.738  0.00  0.00    +0.000 N 
ATOM      5  C   UNL     1       4.720   3.469  17.713  0.00  0.00    +0.000 C 
ATOM      6  N   UNL     1       4.137   2.327  17.727  0.00  0.00    +0.000 NA
ATOM      7  N   UNL     1       5.567   3.841  18.692  0.00  0.00    +0.000 N 
ATOM      8  C   UNL     1       6.167   5.038  18.851  0.00  0.00    +0.000 C 
ATOM      9  N   UNL     1       6.917   5.398  19.829  0.00  0.00    +0.000 NA
ATOM     10  N   UNL     1       5.915   5.966  17.789  0.00  0.00    +0.000 N 
ATOM     11  H   UNL     1       4.034   4.097  15.920  0.00  0.00    +0.000 HD
ATOM     12  H   UNL     1       3.522   2.220  16.916  0.00  0.00    +0.000 HD
ATOM     13  H   UNL     1       5.664   3.154  19.423  0.00  0.00    +0.000 HD
ATOM     14  H   UNL     1       7.033   4.624  20.486  0.00  0.00    +0.000 HD
ENDROOT
BRANCH  10  15
ATOM     15  O   UNL     1       6.309   7.314  17.906  0.00  0.00    +0.000 OA
BRANCH  15  16
ATOM     16  C   UNL     1       7.678   7.451  17.490  0.00  0.00    +0.000 C 
BRANCH  16  17
ATOM     17  C   UNL     1       8.216   8.828  17.768  0.00  0.00    +0.000 C 
ATOM     18  C   UNL     1       8.850   9.221  18.884  0.00  0.00    +0.000 C 
BRANCH  18  19
ATOM     19  C   UNL     1       9.368  10.576  19.124  0.00  0.00    +0.000 A 
ATOM     20  C   UNL     1       9.557  11.506  18.093  0.00  0.00    +0.000 A 
ATOM     21  C   UNL     1      10.000  12.802  18.376  0.00  0.00    +0.000 A 
ATOM     22  C   UNL     1      10.251  13.184  19.692  0.00  0.00    +0.000 A 
ATOM     23  C   UNL     1      10.054  12.274  20.728  0.00  0.00    +0.000 A 
ATOM     24  C   UNL     1       9.609  10.980  20.445  0.00  0.00    +0.000 A 
ENDBRANCH  18  19
ENDBRANCH  16  17
ENDBRANCH  15  16
ENDBRANCH  10  15
TORSDOF 4
ENDMDL
MODEL 9
REMARK VINA RESULT:      -7.6      6.138      7.470
REMARK  Name = 
REMARK  6 active torsions:
REMARK  status: ('A' for Active; 'I' for Inactive)
REMARK    1  A    between atoms: C_1  and  C_2
REMARK    2  A    between atoms: C_2  and  C_3
REMARK    3  A    between atoms: N_10  and  O_11
REMARK    4  A    between atoms: O_11  and  C_12
REMARK    5  A    between atoms: C_12  and  C_13
REMARK    6  A    between atoms: C_14  and  C_15
REMARK                            x       y       z     vdW  Elec       q    Type
REMARK                         _______ _______ _______ _____ _____    ______ ____
ROOT
ATOM      1  C   UNL     1       2.002   3.921  17.659  0.00  0.00    +0.000 C 
ATOM      2  C   UNL     1       2.213   3.585  19.137  0.00  0.00    +0.000 C 
ATOM      3  C   UNL     1       0.900   3.746  19.904  0.00  0.00    +0.000 C 
ATOM      4  N   UNL     1       2.691   2.229  19.296  0.00  0.00    +0.000 N 
ATOM      5  C   UNL     1       3.946   1.886  18.918  0.00  0.00    +0.000 C 
ATOM      6  N   UNL     1       4.300   0.694  18.603  0.00  0.00    +0.000 NA
ATOM      7  N   UNL     1       4.819   2.911  18.892  0.00  0.00    +0.000 N 
ATOM      8  C   UNL     1       4.608   4.183  19.288  0.00  0.00    +0.000 C 
ATOM      9  N   UNL     1       5.472   5.131  19.322  0.00  0.00    +0.000 NA
ATOM     10  N   UNL     1       3.262   4.453  19.697  0.00  0.00    +0.000 N 
ATOM     11  H   UNL     1       1.979   1.516  19.194  0.00  0.00    +0.000 HD
ATOM     12  H   UNL     1       3.515   0.043  18.691  0.00  0.00    +0.000 HD
ATOM     13  H   UNL     1       5.754   2.637  18.633  0.00  0.00    +0.000 HD
ATOM     14  H   UNL     1       6.372   4.798  18.970  0.00  0.00    +0.000 HD
ENDROOT
BRANCH  10  15
ATOM     15  O   UNL     1       2.933   5.675  20.318  0.00  0.00    +0.000 OA
BRANCH  15  16
ATOM     16  C   UNL     1       2.765   6.692  19.317  0.00  0.00    +0.000 C 
BRANCH  16  17
ATOM     17  C   UNL     1       1.919   7.834  19.808  0.00  0.00    +0.000 C 
ATOM     18  C   UNL     1       1.257   7.885  20.975  0.00  0.00    +0.000 C 
BRANCH  18  19
ATOM     19  C   UNL     1       0.439   9.019  21.429  0.00  0.00    +0.000 A 
ATOM     20  C   UNL     1      -0.020   9.141  22.747  0.00  0.00    +0.000 A 
ATOM     21  C   UNL     1      -0.749  10.265  23.146  0.00  0.00    +0.000 A 
ATOM     22  C   UNL     1      -1.021  11.283  22.234  0.00  0.00    +0.000 A 
ATOM     23  C   UNL     1      -0.559  11.181  20.924  0.00  0.00    +0.000 A 
ATOM     24  C   UNL     1       0.172  10.059  20.526  0.00  0.00    +0.000 A 
ENDBRANCH  18  19
ENDBRANCH  16  17
ENDBRANCH  15  16
ENDBRANCH  10  15
TORSDOF 4
ENDMDL
