MODEL 1
REMARK VINA RESULT:      -7.5      0.000      0.000
REMARK  Name = 
REMARK  10 active torsions:
REMARK  status: ('A' for Active; 'I' for Inactive)
REMARK    1  A    between atoms: C_1  and  O_2
REMARK    2  A    between atoms: O_2  and  C_3
REMARK    3  A    between atoms: C_3  and  C_4
REMARK    4  A    between atoms: C_4  and  C_5
REMARK    5  A    between atoms: C_5  and  N_6
REMARK    6  A    between atoms: C_7  and  S_8
REMARK    7  A    between atoms: S_8  and  C_9
REMARK    8  A    between atoms: C_9  and  C_10
REMARK    9  A    between atoms: C_24  and  C_25
REMARK   10  A    between atoms: C_29  and  C_30
REMARK                            x       y       z     vdW  Elec       q    Type
REMARK                         _______ _______ _______ _____ _____    ______ ____
ROOT
ATOM      1  N   UNL     1       5.539   5.609  17.852  0.00  0.00    +0.000 N 
ATOM      2  C   UNL     1       6.739   6.112  18.304  0.00  0.00    +0.000 A 
ATOM      3  N   UNL     1       7.053   5.538  19.442  0.00  0.00    +0.000 NA
ATOM      4  N   UNL     1       6.073   4.621  19.739  0.00  0.00    +0.000 NA
ATOM      5  C   UNL     1       5.180   4.622  18.766  0.00  0.00    +0.000 A 
ENDROOT
BRANCH   5   6
ATOM      6  C   UNL     1       3.998   3.689  18.730  0.00  0.00    +0.000 A 
ATOM      7  C   UNL     1       3.754   2.548  17.913  0.00  0.00    +0.000 A 
ATOM      8  C   UNL     1       2.515   2.064  18.266  0.00  0.00    +0.000 A 
ATOM      9  O   UNL     1       1.982   2.815  19.255  0.00  0.00    +0.000 OA
ATOM     10  C   UNL     1       2.881   3.801  19.544  0.00  0.00    +0.000 A 
ATOM     11  C   UNL     1       2.462   4.748  20.597  0.00  0.00    +0.000 C 
ENDBRANCH   5   6
BRANCH   1  12
ATOM     12  C   UNL     1       4.698   5.979  16.728  0.00  0.00    +0.000 C 
BRANCH  12  13
ATOM     13  C   UNL     1       5.183   5.748  15.302  0.00  0.00    +0.000 C 
BRANCH  13  14
ATOM     14  C   UNL     1       5.606   4.305  15.056  0.00  0.00    +0.000 C 
BRANCH  14  16
ATOM     15  C   UNL     1       6.200   3.609  12.890  0.00  0.00    +0.000 C 
ATOM     16  O   UNL     1       6.635   4.273  14.072  0.00  0.00    +0.000 OA
ENDBRANCH  14  16
ENDBRANCH  13  14
ENDBRANCH  12  13
ENDBRANCH   1  12
BRANCH   2  17
ATOM     17  S   UNL     1       7.734   7.277  17.479  0.00  0.00    +0.000 S 
BRANCH  17  18
ATOM     18  C   UNL     1       8.487   8.229  18.827  0.00  0.00    +0.000 C 
BRANCH  18  19
ATOM     19  C   UNL     1       8.696   9.696  18.425  0.00  0.00    +0.000 C 
ATOM     20  O   UNL     1       7.964  10.201  17.577  0.00  0.00    +0.000 OA
ATOM     21  N   UNL     1       9.703  10.345  19.106  0.00  0.00    +0.000 N 
ATOM     22  C   UNL     1      10.040  11.683  19.007  0.00  0.00    +0.000 A 
ATOM     23  N   UNL     1      11.166  12.161  19.491  0.00  0.00    +0.000 NA
ATOM     24  C   UNL     1      11.253  13.527  19.222  0.00  0.00    +0.000 A 
ATOM     25  C   UNL     1      12.331  14.388  19.532  0.00  0.00    +0.000 A 
ATOM     26  C   UNL     1      12.279  15.743  19.170  0.00  0.00    +0.000 A 
ATOM     27  C   UNL     1      11.170  16.255  18.508  0.00  0.00    +0.000 A 
ATOM     28  C   UNL     1      10.082  15.432  18.201  0.00  0.00    +0.000 A 
ATOM     29  C   UNL     1      10.146  14.072  18.565  0.00  0.00    +0.000 A 
ATOM     30  S   UNL     1       8.988  12.830  18.315  0.00  0.00    +0.000 S 
ATOM     31  H   UNL     1      10.383   9.792  19.614  0.00  0.00    +0.000 HD
ENDBRANCH  18  19
ENDBRANCH  17  18
ENDBRANCH   2  17
TORSDOF 8
ENDMDL
MODEL 2
REMARK VINA RESULT:      -7.3      1.710      2.449
REMARK  Name = 
REMARK  10 active torsions:
REMARK  status: ('A' for Active; 'I' for Inactive)
REMARK    1  A    between atoms: C_1  and  O_2
REMARK    2  A    between atoms: O_2  and  C_3
REMARK    3  A    between atoms: C_3  and  C_4
REMARK    4  A    between atoms: C_4  and  C_5
REMARK    5  A    between atoms: C_5  and  N_6
REMARK    6  A    between atoms: C_7  and  S_8
REMARK    7  A    between atoms: S_8  and  C_9
REMARK    8  A    between atoms: C_9  and  C_10
REMARK    9  A    between atoms: C_24  and  C_25
REMARK   10  A    between atoms: C_29  and  C_30
REMARK                            x       y       z     vdW  Elec       q    Type
REMARK                         _______ _______ _______ _____ _____    ______ ____
ROOT
ATOM      1  N   UNL     1       5.149   5.273  18.092  0.00  0.00    +0.000 N 
ATOM      2  C   UNL     1       6.412   5.695  18.445  0.00  0.00    +0.000 A 
ATOM      3  N   UNL     1       6.775   5.108  19.561  0.00  0.00    +0.000 NA
ATOM      4  N   UNL     1       5.760   4.261  19.943  0.00  0.00    +0.000 NA
ATOM      5  C   UNL     1       4.796   4.318  19.042  0.00  0.00    +0.000 A 
ENDROOT
BRANCH   5   6
ATOM      6  C   UNL     1       3.555   3.469  19.107  0.00  0.00    +0.000 A 
ATOM      7  C   UNL     1       3.195   2.309  18.361  0.00  0.00    +0.000 A 
ATOM      8  C   UNL     1       1.946   1.929  18.794  0.00  0.00    +0.000 A 
ATOM      9  O   UNL     1       1.514   2.761  19.768  0.00  0.00    +0.000 OA
ATOM     10  C   UNL     1       2.490   3.695  19.964  0.00  0.00    +0.000 A 
ATOM     11  C   UNL     1       2.187   4.717  20.986  0.00  0.00    +0.000 C 
ENDBRANCH   5   6
BRANCH   1  12
ATOM     12  C   UNL     1       4.251   5.694  17.033  0.00  0.00    +0.000 C 
BRANCH  12  13
ATOM     13  C   UNL     1       3.596   7.069  17.087  0.00  0.00    +0.000 C 
BRANCH  13  14
ATOM     14  C   UNL     1       2.563   7.178  18.201  0.00  0.00    +0.000 C 
BRANCH  14  16
ATOM     15  C   UNL     1       1.343   9.168  17.917  0.00  0.00    +0.000 C 
ATOM     16  O   UNL     1       2.428   8.541  18.591  0.00  0.00    +0.000 OA
ENDBRANCH  14  16
ENDBRANCH  13  14
ENDBRANCH  12  13
ENDBRANCH   1  12
BRANCH   2  17
ATOM     17  S   UNL     1       7.417   6.785  17.533  0.00  0.00    +0.000 S 
BRANCH  17  18
ATOM     18  C   UNL     1       8.336   7.690  18.808  0.00  0.00    +0.000 C 
BRANCH  18  19
ATOM     19  C   UNL     1       8.577   9.149  18.394  0.00  0.00    +0.000 C 
ATOM     20  O   UNL     1       7.923   9.630  17.471  0.00  0.00    +0.000 OA
ATOM     21  N   UNL     1       9.514   9.819  19.150  0.00  0.00    +0.000 N 
ATOM     22  C   UNL     1       9.854  11.156  19.052  0.00  0.00    +0.000 A 
ATOM     23  N   UNL     1      10.929  11.651  19.626  0.00  0.00    +0.000 NA
ATOM     24  C   UNL     1      11.035  13.011  19.336  0.00  0.00    +0.000 A 
ATOM     25  C   UNL     1      12.077  13.885  19.724  0.00  0.00    +0.000 A 
ATOM     26  C   UNL     1      12.054  15.232  19.328  0.00  0.00    +0.000 A 
ATOM     27  C   UNL     1      11.009  15.722  18.555  0.00  0.00    +0.000 A 
ATOM     28  C   UNL     1       9.956  14.886  18.168  0.00  0.00    +0.000 A 
ATOM     29  C   UNL     1       9.992  13.535  18.567  0.00  0.00    +0.000 A 
ATOM     30  S   UNL     1       8.866  12.282  18.240  0.00  0.00    +0.000 S 
ATOM     31  H   UNL     1      10.146   9.281  19.731  0.00  0.00    +0.000 HD
ENDBRANCH  18  19
ENDBRANCH  17  18
ENDBRANCH   2  17
TORSDOF 8
ENDMDL
MODEL 3
REMARK VINA RESULT:      -7.2      1.186      1.483
REMARK  Name = 
REMARK  10 active torsions:
REMARK  status: ('A' for Active; 'I' for Inactive)
REMARK    1  A    between atoms: C_1  and  O_2
REMARK    2  A    between atoms: O_2  and  C_3
REMARK    3  A    between atoms: C_3  and  C_4
REMARK    4  A    between atoms: C_4  and  C_5
REMARK    5  A    between atoms: C_5  and  N_6
REMARK    6  A    between atoms: C_7  and  S_8
REMARK    7  A    between atoms: S_8  and  C_9
REMARK    8  A    between atoms: C_9  and  C_10
REMARK    9  A    between atoms: C_24  and  C_25
REMARK   10  A    between atoms: C_29  and  C_30
REMARK                            x       y       z     vdW  Elec       q    Type
REMARK                         _______ _______ _______ _____ _____    ______ ____
ROOT
ATOM      1  N   UNL     1       5.372   5.608  17.913  0.00  0.00    +0.000 N 
ATOM      2  C   UNL     1       6.598   5.894  18.474  0.00  0.00    +0.000 A 
ATOM      3  N   UNL     1       6.654   5.392  19.684  0.00  0.00    +0.000 NA
ATOM      4  N   UNL     1       5.469   4.736  19.927  0.00  0.00    +0.000 NA
ATOM      5  C   UNL     1       4.708   4.821  18.851  0.00  0.00    +0.000 A 
ENDROOT
BRANCH   5   6
ATOM      6  C   UNL     1       3.361   4.157  18.739  0.00  0.00    +0.000 A 
ATOM      7  C   UNL     1       2.937   3.071  17.919  0.00  0.00    +0.000 A 
ATOM      8  C   UNL     1       1.603   2.868  18.186  0.00  0.00    +0.000 A 
ATOM      9  O   UNL     1       1.175   3.740  19.126  0.00  0.00    +0.000 OA
ATOM     10  C   UNL     1       2.240   4.522  19.468  0.00  0.00    +0.000 A 
ATOM     11  C   UNL     1       1.960   5.563  20.478  0.00  0.00    +0.000 C 
ENDBRANCH   5   6
BRANCH   1  12
ATOM     12  C   UNL     1       4.759   6.024  16.666  0.00  0.00    +0.000 C 
BRANCH  12  13
ATOM     13  C   UNL     1       4.869   5.141  15.428  0.00  0.00    +0.000 C 
BRANCH  13  14
ATOM     14  C   UNL     1       5.781   3.940  15.648  0.00  0.00    +0.000 C 
BRANCH  14  16
ATOM     15  C   UNL     1       7.219   4.977  14.104  0.00  0.00    +0.000 C 
ATOM     16  O   UNL     1       6.608   3.756  14.504  0.00  0.00    +0.000 OA
ENDBRANCH  14  16
ENDBRANCH  13  14
ENDBRANCH  12  13
ENDBRANCH   1  12
BRANCH   2  17
ATOM     17  S   UNL     1       7.908   6.732  17.691  0.00  0.00    +0.000 S 
BRANCH  17  18
ATOM     18  C   UNL     1       7.335   8.451  17.619  0.00  0.00    +0.000 C 
BRANCH  18  19
ATOM     19  C   UNL     1       8.354   9.406  18.258  0.00  0.00    +0.000 C 
ATOM     20  O   UNL     1       9.107   8.987  19.134  0.00  0.00    +0.000 OA
ATOM     21  N   UNL     1       8.351  10.684  17.743  0.00  0.00    +0.000 N 
ATOM     22  C   UNL     1       9.220  11.709  18.070  0.00  0.00    +0.000 A 
ATOM     23  N   UNL     1       8.992  12.959  17.730  0.00  0.00    +0.000 NA
ATOM     24  C   UNL     1      10.014  13.775  18.215  0.00  0.00    +0.000 A 
ATOM     25  C   UNL     1      10.105  15.182  18.103  0.00  0.00    +0.000 A 
ATOM     26  C   UNL     1      11.190  15.867  18.671  0.00  0.00    +0.000 A 
ATOM     27  C   UNL     1      12.188  15.174  19.344  0.00  0.00    +0.000 A 
ATOM     28  C   UNL     1      12.134  13.780  19.459  0.00  0.00    +0.000 A 
ATOM     29  C   UNL     1      11.038  13.103  18.888  0.00  0.00    +0.000 A 
ATOM     30  S   UNL     1      10.693  11.422  18.877  0.00  0.00    +0.000 S 
ATOM     31  H   UNL     1       7.557  10.986  17.192  0.00  0.00    +0.000 HD
ENDBRANCH  18  19
ENDBRANCH  17  18
ENDBRANCH   2  17
TORSDOF 8
ENDMDL
MODEL 4
REMARK VINA RESULT:      -7.2      2.464      4.092
REMARK  Name = 
REMARK  10 active torsions:
REMARK  status: ('A' for Active; 'I' for Inactive)
REMARK    1  A    between atoms: C_1  and  O_2
REMARK    2  A    between atoms: O_2  and  C_3
REMARK    3  A    between atoms: C_3  and  C_4
REMARK    4  A    between atoms: C_4  and  C_5
REMARK    5  A    between atoms: C_5  and  N_6
REMARK    6  A    between atoms: C_7  and  S_8
REMARK    7  A    between atoms: S_8  and  C_9
REMARK    8  A    between atoms: C_9  and  C_10
REMARK    9  A    between atoms: C_24  and  C_25
REMARK   10  A    between atoms: C_29  and  C_30
REMARK                            x       y       z     vdW  Elec       q    Type
REMARK                         _______ _______ _______ _____ _____    ______ ____
ROOT
ATOM      1  N   UNL     1       3.841   5.247  18.510  0.00  0.00    +0.000 N 
ATOM      2  C   UNL     1       5.104   5.384  17.978  0.00  0.00    +0.000 A 
ATOM      3  N   UNL     1       5.913   4.518  18.540  0.00  0.00    +0.000 NA
ATOM      4  N   UNL     1       5.180   3.771  19.433  0.00  0.00    +0.000 NA
ATOM      5  C   UNL     1       3.922   4.171  19.390  0.00  0.00    +0.000 A 
ENDROOT
BRANCH   5   6
ATOM      6  C   UNL     1       2.823   3.526  20.193  0.00  0.00    +0.000 A 
ATOM      7  C   UNL     1       2.563   3.567  21.593  0.00  0.00    +0.000 A 
ATOM      8  C   UNL     1       1.448   2.792  21.814  0.00  0.00    +0.000 A 
ATOM      9  O   UNL     1       0.988   2.290  20.647  0.00  0.00    +0.000 OA
ATOM     10  C   UNL     1       1.818   2.736  19.659  0.00  0.00    +0.000 A 
ATOM     11  C   UNL     1       1.486   2.267  18.298  0.00  0.00    +0.000 C 
ENDBRANCH   5   6
BRANCH   1  12
ATOM     12  C   UNL     1       2.627   6.022  18.330  0.00  0.00    +0.000 C 
BRANCH  12  13
ATOM     13  C   UNL     1       2.595   7.494  18.720  0.00  0.00    +0.000 C 
BRANCH  13  14
ATOM     14  C   UNL     1       1.874   7.731  20.041  0.00  0.00    +0.000 C 
BRANCH  14  16
ATOM     15  C   UNL     1       0.448   9.210  21.185  0.00  0.00    +0.000 C 
ATOM     16  O   UNL     1       1.117   8.934  19.959  0.00  0.00    +0.000 OA
ENDBRANCH  14  16
ENDBRANCH  13  14
ENDBRANCH  12  13
ENDBRANCH   1  12
BRANCH   2  17
ATOM     17  S   UNL     1       5.564   6.483  16.709  0.00  0.00    +0.000 S 
BRANCH  17  18
ATOM     18  C   UNL     1       7.376   6.511  16.802  0.00  0.00    +0.000 C 
BRANCH  18  19
ATOM     19  C   UNL     1       7.866   7.555  17.817  0.00  0.00    +0.000 C 
ATOM     20  O   UNL     1       8.181   7.194  18.949  0.00  0.00    +0.000 OA
ATOM     21  N   UNL     1       7.945   8.842  17.332  0.00  0.00    +0.000 N 
ATOM     22  C   UNL     1       8.438   9.949  17.999  0.00  0.00    +0.000 A 
ATOM     23  N   UNL     1       8.241  11.175  17.566  0.00  0.00    +0.000 NA
ATOM     24  C   UNL     1       8.822  12.086  18.448  0.00  0.00    +0.000 A 
ATOM     25  C   UNL     1       8.782  13.497  18.362  0.00  0.00    +0.000 A 
ATOM     26  C   UNL     1       9.397  14.283  19.350  0.00  0.00    +0.000 A 
ATOM     27  C   UNL     1      10.053  13.686  20.419  0.00  0.00    +0.000 A 
ATOM     28  C   UNL     1      10.122  12.293  20.524  0.00  0.00    +0.000 A 
ATOM     29  C   UNL     1       9.498  11.514  19.530  0.00  0.00    +0.000 A 
ATOM     30  S   UNL     1       9.403   9.805  19.396  0.00  0.00    +0.000 S 
ATOM     31  H   UNL     1       7.460   9.069  16.472  0.00  0.00    +0.000 HD
ENDBRANCH  18  19
ENDBRANCH  17  18
ENDBRANCH   2  17
TORSDOF 8
ENDMDL
MODEL 5
REMARK VINA RESULT:      -7.2      1.999      3.083
REMARK  Name = 
REMARK  10 active torsions:
REMARK  status: ('A' for Active; 'I' for Inactive)
REMARK    1  A    between atoms: C_1  and  O_2
REMARK    2  A    between atoms: O_2  and  C_3
REMARK    3  A    between atoms: C_3  and  C_4
REMARK    4  A    between atoms: C_4  and  C_5
REMARK    5  A    between atoms: C_5  and  N_6
REMARK    6  A    between atoms: C_7  and  S_8
REMARK    7  A    between atoms: S_8  and  C_9
REMARK    8  A    between atoms: C_9  and  C_10
REMARK    9  A    between atoms: C_24  and  C_25
REMARK   10  A    between atoms: C_29  and  C_30
REMARK                            x       y       z     vdW  Elec       q    Type
REMARK                         _______ _______ _______ _____ _____    ______ ____
ROOT
ATOM      1  N   UNL     1       4.759   5.569  18.730  0.00  0.00    +0.000 N 
ATOM      2  C   UNL     1       6.041   5.438  18.243  0.00  0.00    +0.000 A 
ATOM      3  N   UNL     1       6.495   4.239  18.525  0.00  0.00    +0.000 NA
ATOM      4  N   UNL     1       5.499   3.551  19.177  0.00  0.00    +0.000 NA
ATOM      5  C   UNL     1       4.433   4.326  19.265  0.00  0.00    +0.000 A 
ENDROOT
BRANCH   5   6
ATOM      6  C   UNL     1       3.129   3.870  19.864  0.00  0.00    +0.000 A 
ATOM      7  C   UNL     1       2.535   4.185  21.120  0.00  0.00    +0.000 A 
ATOM      8  C   UNL     1       1.349   3.491  21.186  0.00  0.00    +0.000 A 
ATOM      9  O   UNL     1       1.158   2.782  20.051  0.00  0.00    +0.000 OA
ATOM     10  C   UNL     1       2.235   3.012  19.243  0.00  0.00    +0.000 A 
ATOM     11  C   UNL     1       2.218   2.297  17.952  0.00  0.00    +0.000 C 
ENDBRANCH   5   6
BRANCH   1  12
ATOM     12  C   UNL     1       3.862   6.708  18.793  0.00  0.00    +0.000 C 
BRANCH  12  13
ATOM     13  C   UNL     1       2.886   6.978  17.654  0.00  0.00    +0.000 C 
BRANCH  13  14
ATOM     14  C   UNL     1       2.413   8.426  17.622  0.00  0.00    +0.000 C 
BRANCH  14  16
ATOM     15  C   UNL     1       1.285   9.635  19.293  0.00  0.00    +0.000 C 
ATOM     16  O   UNL     1       1.212   8.550  18.376  0.00  0.00    +0.000 OA
ENDBRANCH  14  16
ENDBRANCH  13  14
ENDBRANCH  12  13
ENDBRANCH   1  12
BRANCH   2  17
ATOM     17  S   UNL     1       6.917   6.637  17.335  0.00  0.00    +0.000 S 
BRANCH  17  18
ATOM     18  C   UNL     1       7.997   7.407  18.573  0.00  0.00    +0.000 C 
BRANCH  18  19
ATOM     19  C   UNL     1       8.371   8.841  18.172  0.00  0.00    +0.000 C 
ATOM     20  O   UNL     1       7.889   9.328  17.151  0.00  0.00    +0.000 OA
ATOM     21  N   UNL     1       9.216   9.486  19.049  0.00  0.00    +0.000 N 
ATOM     22  C   UNL     1       9.634  10.802  18.978  0.00  0.00    +0.000 A 
ATOM     23  N   UNL     1      10.634  11.262  19.699  0.00  0.00    +0.000 NA
ATOM     24  C   UNL     1      10.851  12.607  19.402  0.00  0.00    +0.000 A 
ATOM     25  C   UNL     1      11.866  13.441  19.927  0.00  0.00    +0.000 A 
ATOM     26  C   UNL     1      11.971  14.776  19.507  0.00  0.00    +0.000 A 
ATOM     27  C   UNL     1      11.080  15.294  18.575  0.00  0.00    +0.000 A 
ATOM     28  C   UNL     1      10.057  14.499  18.048  0.00  0.00    +0.000 A 
ATOM     29  C   UNL     1       9.964  13.159  18.474  0.00  0.00    +0.000 A 
ATOM     30  S   UNL     1       8.838  11.952  18.004  0.00  0.00    +0.000 S 
ATOM     31  H   UNL     1       9.725   8.935  19.729  0.00  0.00    +0.000 HD
ENDBRANCH  18  19
ENDBRANCH  17  18
ENDBRANCH   2  17
TORSDOF 8
ENDMDL
MODEL 6
REMARK VINA RESULT:      -7.1      5.213      6.733
REMARK  Name = 
REMARK  10 active torsions:
REMARK  status: ('A' for Active; 'I' for Inactive)
REMARK    1  A    between atoms: C_1  and  O_2
REMARK    2  A    between atoms: O_2  and  C_3
REMARK    3  A    between atoms: C_3  and  C_4
REMARK    4  A    between atoms: C_4  and  C_5
REMARK    5  A    between atoms: C_5  and  N_6
REMARK    6  A    between atoms: C_7  and  S_8
REMARK    7  A    between atoms: S_8  and  C_9
REMARK    8  A    between atoms: C_9  and  C_10
REMARK    9  A    between atoms: C_24  and  C_25
REMARK   10  A    between atoms: C_29  and  C_30
REMARK                            x       y       z     vdW  Elec       q    Type
REMARK                         _______ _______ _______ _____ _____    ______ ____
ROOT
ATOM      1  N   UNL     1       2.310   6.571  19.732  0.00  0.00    +0.000 N 
ATOM      2  C   UNL     1       1.809   7.844  19.897  0.00  0.00    +0.000 A 
ATOM      3  N   UNL     1       2.129   8.578  18.858  0.00  0.00    +0.000 NA
ATOM      4  N   UNL     1       2.823   7.784  17.975  0.00  0.00    +0.000 NA
ATOM      5  C   UNL     1       2.898   6.562  18.470  0.00  0.00    +0.000 A 
ENDROOT
BRANCH   5   6
ATOM      6  C   UNL     1       3.535   5.412  17.736  0.00  0.00    +0.000 A 
ATOM      7  C   UNL     1       2.990   4.153  17.351  0.00  0.00    +0.000 A 
ATOM      8  C   UNL     1       3.997   3.458  16.721  0.00  0.00    +0.000 A 
ATOM      9  O   UNL     1       5.122   4.206  16.673  0.00  0.00    +0.000 OA
ATOM     10  C   UNL     1       4.845   5.395  17.284  0.00  0.00    +0.000 A 
ATOM     11  C   UNL     1       5.973   6.346  17.351  0.00  0.00    +0.000 C 
ENDBRANCH   5   6
BRANCH   1  12
ATOM     12  C   UNL     1       2.344   5.424  20.620  0.00  0.00    +0.000 C 
BRANCH  12  13
ATOM     13  C   UNL     1       1.216   4.399  20.589  0.00  0.00    +0.000 C 
BRANCH  13  14
ATOM     14  C   UNL     1       1.731   2.965  20.610  0.00  0.00    +0.000 C 
BRANCH  14  16
ATOM     15  C   UNL     1       3.973   2.349  20.261  0.00  0.00    +0.000 C 
ATOM     16  O   UNL     1       3.043   2.940  21.162  0.00  0.00    +0.000 OA
ENDBRANCH  14  16
ENDBRANCH  13  14
ENDBRANCH  12  13
ENDBRANCH   1  12
BRANCH   2  17
ATOM     17  S   UNL     1       0.841   8.395  21.234  0.00  0.00    +0.000 S 
BRANCH  17  18
ATOM     18  C   UNL     1      -0.179   9.709  20.511  0.00  0.00    +0.000 C 
BRANCH  18  19
ATOM     19  C   UNL     1       0.473  11.087  20.694  0.00  0.00    +0.000 C 
ATOM     20  O   UNL     1       0.419  11.640  21.791  0.00  0.00    +0.000 OA
ATOM     21  N   UNL     1       1.113  11.578  19.577  0.00  0.00    +0.000 N 
ATOM     22  C   UNL     1       1.853  12.743  19.493  0.00  0.00    +0.000 A 
ATOM     23  N   UNL     1       2.211  13.266  18.340  0.00  0.00    +0.000 NA
ATOM     24  C   UNL     1       2.919  14.447  18.558  0.00  0.00    +0.000 A 
ATOM     25  C   UNL     1       3.426  15.329  17.574  0.00  0.00    +0.000 A 
ATOM     26  C   UNL     1       4.100  16.500  17.955  0.00  0.00    +0.000 A 
ATOM     27  C   UNL     1       4.280  16.806  19.297  0.00  0.00    +0.000 A 
ATOM     28  C   UNL     1       3.803  15.947  20.294  0.00  0.00    +0.000 A 
ATOM     29  C   UNL     1       3.124  14.776  19.900  0.00  0.00    +0.000 A 
ATOM     30  S   UNL     1       2.424  13.552  20.879  0.00  0.00    +0.000 S 
ATOM     31  H   UNL     1       0.913  11.159  18.677  0.00  0.00    +0.000 HD
ENDBRANCH  18  19
ENDBRANCH  17  18
ENDBRANCH   2  17
TORSDOF 8
ENDMDL
MODEL 7
REMARK VINA RESULT:      -7.0      5.641      7.096
REMARK  Name = 
REMARK  10 active torsions:
REMARK  status: ('A' for Active; 'I' for Inactive)
REMARK    1  A    between atoms: C_1  and  O_2
REMARK    2  A    between atoms: O_2  and  C_3
REMARK    3  A    between atoms: C_3  and  C_4
REMARK    4  A    between atoms: C_4  and  C_5
REMARK    5  A    between atoms: C_5  and  N_6
REMARK    6  A    between atoms: C_7  and  S_8
REMARK    7  A    between atoms: S_8  and  C_9
REMARK    8  A    between atoms: C_9  and  C_10
REMARK    9  A    between atoms: C_24  and  C_25
REMARK   10  A    between atoms: C_29  and  C_30
REMARK                            x       y       z     vdW  Elec       q    Type
REMARK                         _______ _______ _______ _____ _____    ______ ____
ROOT
ATOM      1  N   UNL     1       2.206   6.435  19.851  0.00  0.00    +0.000 N 
ATOM      2  C   UNL     1       1.933   7.783  19.931  0.00  0.00    +0.000 A 
ATOM      3  N   UNL     1       2.234   8.359  18.791  0.00  0.00    +0.000 NA
ATOM      4  N   UNL     1       2.683   7.385  17.929  0.00  0.00    +0.000 NA
ATOM      5  C   UNL     1       2.628   6.217  18.541  0.00  0.00    +0.000 A 
ENDROOT
BRANCH   5   6
ATOM      6  C   UNL     1       2.984   4.916  17.871  0.00  0.00    +0.000 A 
ATOM      7  C   UNL     1       2.143   3.873  17.385  0.00  0.00    +0.000 A 
ATOM      8  C   UNL     1       2.972   2.897  16.880  0.00  0.00    +0.000 A 
ATOM      9  O   UNL     1       4.265   3.271  17.001  0.00  0.00    +0.000 OA
ATOM     10  C   UNL     1       4.277   4.499  17.599  0.00  0.00    +0.000 A 
ATOM     11  C   UNL     1       5.618   5.069  17.840  0.00  0.00    +0.000 C 
ENDBRANCH   5   6
BRANCH   1  12
ATOM     12  C   UNL     1       2.170   5.381  20.847  0.00  0.00    +0.000 C 
BRANCH  12  13
ATOM     13  C   UNL     1       1.112   4.287  20.766  0.00  0.00    +0.000 C 
BRANCH  13  14
ATOM     14  C   UNL     1       1.705   2.891  20.912  0.00  0.00    +0.000 C 
BRANCH  14  16
ATOM     15  C   UNL     1       3.953   2.366  20.470  0.00  0.00    +0.000 C 
ATOM     16  O   UNL     1       3.048   2.992  21.372  0.00  0.00    +0.000 OA
ENDBRANCH  14  16
ENDBRANCH  13  14
ENDBRANCH  12  13
ENDBRANCH   1  12
BRANCH   2  17
ATOM     17  S   UNL     1       1.234   8.604  21.297  0.00  0.00    +0.000 S 
BRANCH  17  18
ATOM     18  C   UNL     1      -0.357   9.205  20.666  0.00  0.00    +0.000 C 
BRANCH  18  19
ATOM     19  C   UNL     1      -0.282  10.692  20.288  0.00  0.00    +0.000 C 
ATOM     20  O   UNL     1      -1.253  11.417  20.491  0.00  0.00    +0.000 OA
ATOM     21  N   UNL     1       0.929  11.097  19.769  0.00  0.00    +0.000 N 
ATOM     22  C   UNL     1       1.295  12.388  19.433  0.00  0.00    +0.000 A 
ATOM     23  N   UNL     1       2.362  12.650  18.711  0.00  0.00    +0.000 NA
ATOM     24  C   UNL     1       2.467  14.025  18.506  0.00  0.00    +0.000 A 
ATOM     25  C   UNL     1       3.445  14.699  17.737  0.00  0.00    +0.000 A 
ATOM     26  C   UNL     1       3.401  16.095  17.604  0.00  0.00    +0.000 A 
ATOM     27  C   UNL     1       2.401  16.832  18.226  0.00  0.00    +0.000 A 
ATOM     28  C   UNL     1       1.428  16.196  19.005  0.00  0.00    +0.000 A 
ATOM     29  C   UNL     1       1.480  14.794  19.128  0.00  0.00    +0.000 A 
ATOM     30  S   UNL     1       0.432  13.745  19.994  0.00  0.00    +0.000 S 
ATOM     31  H   UNL     1       1.577  10.393  19.438  0.00  0.00    +0.000 HD
ENDBRANCH  18  19
ENDBRANCH  17  18
ENDBRANCH   2  17
TORSDOF 8
ENDMDL
MODEL 8
REMARK VINA RESULT:      -7.0      0.764      1.267
REMARK  Name = 
REMARK  10 active torsions:
REMARK  status: ('A' for Active; 'I' for Inactive)
REMARK    1  A    between atoms: C_1  and  O_2
REMARK    2  A    between atoms: O_2  and  C_3
REMARK    3  A    between atoms: C_3  and  C_4
REMARK    4  A    between atoms: C_4  and  C_5
REMARK    5  A    between atoms: C_5  and  N_6
REMARK    6  A    between atoms: C_7  and  S_8
REMARK    7  A    between atoms: S_8  and  C_9
REMARK    8  A    between atoms: C_9  and  C_10
REMARK    9  A    between atoms: C_24  and  C_25
REMARK   10  A    between atoms: C_29  and  C_30
REMARK                            x       y       z     vdW  Elec       q    Type
REMARK                         _______ _______ _______ _____ _____    ______ ____
ROOT
ATOM      1  N   UNL     1       5.052   5.431  18.158  0.00  0.00    +0.000 N 
ATOM      2  C   UNL     1       6.343   5.674  18.572  0.00  0.00    +0.000 A 
ATOM      3  N   UNL     1       6.549   5.090  19.729  0.00  0.00    +0.000 NA
ATOM      4  N   UNL     1       5.397   4.424  20.079  0.00  0.00    +0.000 NA
ATOM      5  C   UNL     1       4.504   4.585  19.119  0.00  0.00    +0.000 A 
ENDROOT
BRANCH   5   6
ATOM      6  C   UNL     1       3.145   3.936  19.139  0.00  0.00    +0.000 A 
ATOM      7  C   UNL     1       1.923   4.381  19.720  0.00  0.00    +0.000 A 
ATOM      8  C   UNL     1       0.985   3.407  19.469  0.00  0.00    +0.000 A 
ATOM      9  O   UNL     1       1.535   2.398  18.758  0.00  0.00    +0.000 OA
ATOM     10  C   UNL     1       2.847   2.717  18.551  0.00  0.00    +0.000 A 
ATOM     11  C   UNL     1       3.629   1.712  17.803  0.00  0.00    +0.000 C 
ENDBRANCH   5   6
BRANCH   1  12
ATOM     12  C   UNL     1       4.288   5.934  17.031  0.00  0.00    +0.000 C 
BRANCH  12  13
ATOM     13  C   UNL     1       4.798   5.729  15.610  0.00  0.00    +0.000 C 
BRANCH  13  14
ATOM     14  C   UNL     1       5.430   4.358  15.409  0.00  0.00    +0.000 C 
BRANCH  14  16
ATOM     15  C   UNL     1       6.153   3.652  13.286  0.00  0.00    +0.000 C 
ATOM     16  O   UNL     1       6.457   4.447  14.427  0.00  0.00    +0.000 OA
ENDBRANCH  14  16
ENDBRANCH  13  14
ENDBRANCH  12  13
ENDBRANCH   1  12
BRANCH   2  17
ATOM     17  S   UNL     1       7.552   6.557  17.684  0.00  0.00    +0.000 S 
BRANCH  17  18
ATOM     18  C   UNL     1       8.345   7.587  18.949  0.00  0.00    +0.000 C 
BRANCH  18  19
ATOM     19  C   UNL     1       8.582   9.016  18.437  0.00  0.00    +0.000 C 
ATOM     20  O   UNL     1       7.981   9.407  17.438  0.00  0.00    +0.000 OA
ATOM     21  N   UNL     1       9.453   9.766  19.197  0.00  0.00    +0.000 N 
ATOM     22  C   UNL     1       9.771  11.100  19.015  0.00  0.00    +0.000 A 
ATOM     23  N   UNL     1      10.794  11.666  19.617  0.00  0.00    +0.000 NA
ATOM     24  C   UNL     1      10.891  13.001  19.227  0.00  0.00    +0.000 A 
ATOM     25  C   UNL     1      11.887  13.930  19.612  0.00  0.00    +0.000 A 
ATOM     26  C   UNL     1      11.861  15.241  19.110  0.00  0.00    +0.000 A 
ATOM     27  C   UNL     1      10.860  15.643  18.236  0.00  0.00    +0.000 A 
ATOM     28  C   UNL     1       9.853  14.752  17.848  0.00  0.00    +0.000 A 
ATOM     29  C   UNL     1       9.890  13.437  18.355  0.00  0.00    +0.000 A 
ATOM     30  S   UNL     1       8.815  12.133  18.055  0.00  0.00    +0.000 S 
ATOM     31  H   UNL     1      10.056   9.292  19.858  0.00  0.00    +0.000 HD
ENDBRANCH  18  19
ENDBRANCH  17  18
ENDBRANCH   2  17
TORSDOF 8
ENDMDL
MODEL 9
REMARK VINA RESULT:      -7.0      8.189     11.814
REMARK  Name = 
REMARK  10 active torsions:
REMARK  status: ('A' for Active; 'I' for Inactive)
REMARK    1  A    between atoms: C_1  and  O_2
REMARK    2  A    between atoms: O_2  and  C_3
REMARK    3  A    between atoms: C_3  and  C_4
REMARK    4  A    between atoms: C_4  and  C_5
REMARK    5  A    between atoms: C_5  and  N_6
REMARK    6  A    between atoms: C_7  and  S_8
REMARK    7  A    between atoms: S_8  and  C_9
REMARK    8  A    between atoms: C_9  and  C_10
REMARK    9  A    between atoms: C_24  and  C_25
REMARK   10  A    between atoms: C_29  and  C_30
REMARK                            x       y       z     vdW  Elec       q    Type
REMARK                         _______ _______ _______ _____ _____    ______ ____
ROOT
ATOM      1  N   UNL     1      -1.639  12.332  21.185  0.00  0.00    +0.000 N 
ATOM      2  C   UNL     1      -0.572  11.674  21.757  0.00  0.00    +0.000 A 
ATOM      3  N   UNL     1      -0.770  11.558  23.049  0.00  0.00    +0.000 NA
ATOM      4  N   UNL     1      -1.993  12.113  23.342  0.00  0.00    +0.000 NA
ATOM      5  C   UNL     1      -2.546  12.542  22.221  0.00  0.00    +0.000 A 
ENDROOT
BRANCH   5   6
ATOM      6  C   UNL     1      -3.922  13.149  22.159  0.00  0.00    +0.000 A 
ATOM      7  C   UNL     1      -5.150  12.595  21.696  0.00  0.00    +0.000 A 
ATOM      8  C   UNL     1      -6.107  13.574  21.837  0.00  0.00    +0.000 A 
ATOM      9  O   UNL     1      -5.562  14.688  22.373  0.00  0.00    +0.000 OA
ATOM     10  C   UNL     1      -4.235  14.434  22.574  0.00  0.00    +0.000 A 
ATOM     11  C   UNL     1      -3.457  15.555  23.137  0.00  0.00    +0.000 C 
ENDBRANCH   5   6
BRANCH   1  12
ATOM     12  C   UNL     1      -1.865  12.815  19.836  0.00  0.00    +0.000 C 
BRANCH  12  13
ATOM     13  C   UNL     1      -2.759  12.031  18.883  0.00  0.00    +0.000 C 
BRANCH  13  14
ATOM     14  C   UNL     1      -1.965  11.117  17.959  0.00  0.00    +0.000 C 
BRANCH  14  16
ATOM     15  C   UNL     1      -2.633  10.023  15.988  0.00  0.00    +0.000 C 
ATOM     16  O   UNL     1      -2.423  11.280  16.621  0.00  0.00    +0.000 OA
ENDBRANCH  14  16
ENDBRANCH  13  14
ENDBRANCH  12  13
ENDBRANCH   1  12
BRANCH   2  17
ATOM     17  S   UNL     1       0.804  11.029  20.908  0.00  0.00    +0.000 S 
BRANCH  17  18
ATOM     18  C   UNL     1       0.989   9.361  21.598  0.00  0.00    +0.000 C 
BRANCH  18  19
ATOM     19  C   UNL     1       1.406   8.353  20.517  0.00  0.00    +0.000 C 
ATOM     20  O   UNL     1       1.535   8.732  19.355  0.00  0.00    +0.000 OA
ATOM     21  N   UNL     1       1.642   7.075  20.976  0.00  0.00    +0.000 N 
ATOM     22  C   UNL     1       2.114   6.005  20.239  0.00  0.00    +0.000 A 
ATOM     23  N   UNL     1       2.066   4.769  20.685  0.00  0.00    +0.000 NA
ATOM     24  C   UNL     1       2.581   3.900  19.724  0.00  0.00    +0.000 A 
ATOM     25  C   UNL     1       2.654   2.489  19.804  0.00  0.00    +0.000 A 
ATOM     26  C   UNL     1       3.179   1.747  18.735  0.00  0.00    +0.000 A 
ATOM     27  C   UNL     1       3.637   2.386  17.590  0.00  0.00    +0.000 A 
ATOM     28  C   UNL     1       3.592   3.780  17.486  0.00  0.00    +0.000 A 
ATOM     29  C   UNL     1       3.058   4.515  18.564  0.00  0.00    +0.000 A 
ATOM     30  S   UNL     1       2.863   6.213  18.723  0.00  0.00    +0.000 S 
ATOM     31  H   UNL     1       1.299   6.816  21.893  0.00  0.00    +0.000 HD
ENDBRANCH  18  19
ENDBRANCH  17  18
ENDBRANCH   2  17
TORSDOF 8
ENDMDL
