MODEL 1
REMARK VINA RESULT:      -7.6      0.000      0.000
REMARK  Name = 
REMARK  8 active torsions:
REMARK  status: ('A' for Active; 'I' for Inactive)
REMARK    1  A    between atoms: C_1  and  N_2
REMARK    2  A    between atoms: N_2  and  C_3
REMARK    3  A    between atoms: N_2  and  S_4
REMARK    4  A    between atoms: S_4  and  N_7
REMARK    5  A    between atoms: N_7  and  C_8
REMARK    6  A    between atoms: N_7  and  C_21
REMARK    7  A    between atoms: C_8  and  C_9
REMARK    8  A    between atoms: C_14  and  C_15
REMARK                            x       y       z     vdW  Elec       q    Type
REMARK                         _______ _______ _______ _____ _____    ______ ____
ROOT
ATOM      1  N   UNL     1       4.840   5.079  17.546  0.00  0.00    +0.000 NA
ENDROOT
BRANCH   1   2
ATOM      2  C   UNL     1       4.422   3.655  17.313  0.00  0.00    +0.000 C 
ATOM      3  C   UNL     1       4.336   2.818  18.580  0.00  0.00    +0.000 C 
ATOM      4  C   UNL     1       3.308   1.750  18.269  0.00  0.00    +0.000 C 
ATOM      5  N   UNL     1       2.314   2.390  17.416  0.00  0.00    +0.000 NA
ATOM      6  C   UNL     1       2.979   3.534  16.764  0.00  0.00    +0.000 C 
ATOM      7  H   UNL     1       1.545   2.747  17.985  0.00  0.00    +0.000 HD
ENDBRANCH   1   2
BRANCH   1   8
ATOM      8  S   UNL     1       6.290   5.573  16.790  0.00  0.00    +0.000 S 
ATOM      9  O   UNL     1       5.985   6.440  15.681  0.00  0.00    +0.000 OA
ATOM     10  O   UNL     1       7.138   4.421  16.579  0.00  0.00    +0.000 OA
BRANCH   8  12
ATOM     11  C   UNL     1       7.987   5.812  18.859  0.00  0.00    +0.000 C 
ATOM     12  N   UNL     1       7.039   6.521  17.981  0.00  0.00    +0.000 NA
ATOM     13  C   UNL     1       7.666   7.735  17.391  0.00  0.00    +0.000 C 
ENDBRANCH   8  12
ENDBRANCH   1   8
BRANCH   1  14
ATOM     14  C   UNL     1       4.488   5.715  18.868  0.00  0.00    +0.000 C 
BRANCH  14  15
ATOM     15  C   UNL     1       3.255   6.608  18.864  0.00  0.00    +0.000 A 
ATOM     16  C   UNL     1       3.232   7.692  17.962  0.00  0.00    +0.000 A 
ATOM     17  C   UNL     1       2.357   8.757  18.150  0.00  0.00    +0.000 A 
ATOM     18  C   UNL     1       1.471   8.730  19.212  0.00  0.00    +0.000 A 
ATOM     19  C   UNL     1       1.347   7.568  19.976  0.00  0.00    +0.000 A 
ATOM     20  C   UNL     1       2.180   6.445  19.770  0.00  0.00    +0.000 A 
BRANCH  20  21
ATOM     21  C   UNL     1       1.794   5.153  20.412  0.00  0.00    +0.000 A 
ATOM     22  C   UNL     1       2.564   4.608  21.459  0.00  0.00    +0.000 A 
ATOM     23  C   UNL     1       2.337   3.313  21.945  0.00  0.00    +0.000 A 
ATOM     24  C   UNL     1       1.343   2.519  21.382  0.00  0.00    +0.000 A 
ATOM     25  C   UNL     1       0.564   3.029  20.349  0.00  0.00    +0.000 A 
ATOM     26  C   UNL     1       0.779   4.332  19.881  0.00  0.00    +0.000 A 
ENDBRANCH  20  21
ENDBRANCH  14  15
ENDBRANCH   1  14
TORSDOF 6
ENDMDL
MODEL 2
REMARK VINA RESULT:      -7.4      0.870      1.434
REMARK  Name = 
REMARK  8 active torsions:
REMARK  status: ('A' for Active; 'I' for Inactive)
REMARK    1  A    between atoms: C_1  and  N_2
REMARK    2  A    between atoms: N_2  and  C_3
REMARK    3  A    between atoms: N_2  and  S_4
REMARK    4  A    between atoms: S_4  and  N_7
REMARK    5  A    between atoms: N_7  and  C_8
REMARK    6  A    between atoms: N_7  and  C_21
REMARK    7  A    between atoms: C_8  and  C_9
REMARK    8  A    between atoms: C_14  and  C_15
REMARK                            x       y       z     vdW  Elec       q    Type
REMARK                         _______ _______ _______ _____ _____    ______ ____
ROOT
ATOM      1  N   UNL     1       4.571   5.024  16.996  0.00  0.00    +0.000 NA
ENDROOT
BRANCH   1   2
ATOM      2  C   UNL     1       4.396   3.538  17.115  0.00  0.00    +0.000 C 
ATOM      3  C   UNL     1       4.481   3.015  18.542  0.00  0.00    +0.000 C 
ATOM      4  C   UNL     1       3.643   1.754  18.542  0.00  0.00    +0.000 C 
ATOM      5  N   UNL     1       2.536   2.011  17.628  0.00  0.00    +0.000 NA
ATOM      6  C   UNL     1       2.983   3.062  16.695  0.00  0.00    +0.000 C 
ATOM      7  H   UNL     1       1.730   2.362  18.147  0.00  0.00    +0.000 HD
ENDBRANCH   1   2
BRANCH   1   8
ATOM      8  S   UNL     1       5.551   5.567  15.706  0.00  0.00    +0.000 S 
ATOM      9  O   UNL     1       5.102   6.865  15.271  0.00  0.00    +0.000 OA
ATOM     10  O   UNL     1       5.701   4.505  14.737  0.00  0.00    +0.000 OA
BRANCH   8  12
ATOM     11  C   UNL     1       7.198   6.959  17.310  0.00  0.00    +0.000 C 
ATOM     12  N   UNL     1       7.067   5.777  16.440  0.00  0.00    +0.000 NA
ATOM     13  C   UNL     1       7.499   4.543  17.151  0.00  0.00    +0.000 C 
ENDBRANCH   8  12
ENDBRANCH   1   8
BRANCH   1  14
ATOM     14  C   UNL     1       4.563   5.845  18.262  0.00  0.00    +0.000 C 
BRANCH  14  15
ATOM     15  C   UNL     1       3.324   6.702  18.485  0.00  0.00    +0.000 A 
ATOM     16  C   UNL     1       3.172   7.857  17.692  0.00  0.00    +0.000 A 
ATOM     17  C   UNL     1       2.310   8.878  18.078  0.00  0.00    +0.000 A 
ATOM     18  C   UNL     1       1.561   8.736  19.232  0.00  0.00    +0.000 A 
ATOM     19  C   UNL     1       1.551   7.510  19.900  0.00  0.00    +0.000 A 
ATOM     20  C   UNL     1       2.371   6.432  19.497  0.00  0.00    +0.000 A 
BRANCH  20  21
ATOM     21  C   UNL     1       2.089   5.080  20.064  0.00  0.00    +0.000 A 
ATOM     22  C   UNL     1       1.017   4.303  19.580  0.00  0.00    +0.000 A 
ATOM     23  C   UNL     1       0.614   3.122  20.220  0.00  0.00    +0.000 A 
ATOM     24  C   UNL     1       1.261   2.697  21.376  0.00  0.00    +0.000 A 
ATOM     25  C   UNL     1       2.324   3.440  21.877  0.00  0.00    +0.000 A 
ATOM     26  C   UNL     1       2.739   4.608  21.222  0.00  0.00    +0.000 A 
ENDBRANCH  20  21
ENDBRANCH  14  15
ENDBRANCH   1  14
TORSDOF 6
ENDMDL
MODEL 3
REMARK VINA RESULT:      -7.4      1.172      1.456
REMARK  Name = 
REMARK  8 active torsions:
REMARK  status: ('A' for Active; 'I' for Inactive)
REMARK    1  A    between atoms: C_1  and  N_2
REMARK    2  A    between atoms: N_2  and  C_3
REMARK    3  A    between atoms: N_2  and  S_4
REMARK    4  A    between atoms: S_4  and  N_7
REMARK    5  A    between atoms: N_7  and  C_8
REMARK    6  A    between atoms: N_7  and  C_21
REMARK    7  A    between atoms: C_8  and  C_9
REMARK    8  A    between atoms: C_14  and  C_15
REMARK                            x       y       z     vdW  Elec       q    Type
REMARK                         _______ _______ _______ _____ _____    ______ ____
ROOT
ATOM      1  N   UNL     1       4.392   5.253  17.314  0.00  0.00    +0.000 NA
ENDROOT
BRANCH   1   2
ATOM      2  C   UNL     1       4.142   3.780  17.167  0.00  0.00    +0.000 C 
ATOM      3  C   UNL     1       4.316   2.990  18.456  0.00  0.00    +0.000 C 
ATOM      4  C   UNL     1       3.408   1.787  18.297  0.00  0.00    +0.000 C 
ATOM      5  N   UNL     1       2.246   2.260  17.555  0.00  0.00    +0.000 NA
ATOM      6  C   UNL     1       2.673   3.453  16.799  0.00  0.00    +0.000 C 
ATOM      7  H   UNL     1       1.508   2.538  18.203  0.00  0.00    +0.000 HD
ENDBRANCH   1   2
BRANCH   1   8
ATOM      8  S   UNL     1       5.552   5.930  16.257  0.00  0.00    +0.000 S 
ATOM      9  O   UNL     1       6.291   6.957  16.945  0.00  0.00    +0.000 OA
ATOM     10  O   UNL     1       4.927   6.232  14.989  0.00  0.00    +0.000 OA
BRANCH   8  12
ATOM     11  C   UNL     1       7.225   4.587  14.640  0.00  0.00    +0.000 C 
ATOM     12  N   UNL     1       6.618   4.639  15.981  0.00  0.00    +0.000 NA
ATOM     13  C   UNL     1       7.660   4.563  17.041  0.00  0.00    +0.000 C 
ENDBRANCH   8  12
ENDBRANCH   1   8
BRANCH   1  14
ATOM     14  C   UNL     1       4.255   5.864  18.686  0.00  0.00    +0.000 C 
BRANCH  14  15
ATOM     15  C   UNL     1       3.033   6.748  18.896  0.00  0.00    +0.000 A 
ATOM     16  C   UNL     1       2.906   7.898  18.090  0.00  0.00    +0.000 A 
ATOM     17  C   UNL     1       2.063   8.940  18.462  0.00  0.00    +0.000 A 
ATOM     18  C   UNL     1       1.309   8.825  19.615  0.00  0.00    +0.000 A 
ATOM     19  C   UNL     1       1.272   7.607  20.296  0.00  0.00    +0.000 A 
ATOM     20  C   UNL     1       2.072   6.508  19.907  0.00  0.00    +0.000 A 
BRANCH  20  21
ATOM     21  C   UNL     1       1.760   5.169  20.488  0.00  0.00    +0.000 A 
ATOM     22  C   UNL     1       2.613   4.579  21.443  0.00  0.00    +0.000 A 
ATOM     23  C   UNL     1       2.449   3.250  21.858  0.00  0.00    +0.000 A 
ATOM     24  C   UNL     1       1.436   2.467  21.312  0.00  0.00    +0.000 A 
ATOM     25  C   UNL     1       0.577   3.020  20.370  0.00  0.00    +0.000 A 
ATOM     26  C   UNL     1       0.730   4.356  19.974  0.00  0.00    +0.000 A 
ENDBRANCH  20  21
ENDBRANCH  14  15
ENDBRANCH   1  14
TORSDOF 6
ENDMDL
MODEL 4
REMARK VINA RESULT:      -7.1      1.344      1.867
REMARK  Name = 
REMARK  8 active torsions:
REMARK  status: ('A' for Active; 'I' for Inactive)
REMARK    1  A    between atoms: C_1  and  N_2
REMARK    2  A    between atoms: N_2  and  C_3
REMARK    3  A    between atoms: N_2  and  S_4
REMARK    4  A    between atoms: S_4  and  N_7
REMARK    5  A    between atoms: N_7  and  C_8
REMARK    6  A    between atoms: N_7  and  C_21
REMARK    7  A    between atoms: C_8  and  C_9
REMARK    8  A    between atoms: C_14  and  C_15
REMARK                            x       y       z     vdW  Elec       q    Type
REMARK                         _______ _______ _______ _____ _____    ______ ____
ROOT
ATOM      1  N   UNL     1       5.432   5.010  17.658  0.00  0.00    +0.000 NA
ENDROOT
BRANCH   1   2
ATOM      2  C   UNL     1       5.019   3.572  17.529  0.00  0.00    +0.000 C 
ATOM      3  C   UNL     1       4.738   2.885  18.858  0.00  0.00    +0.000 C 
ATOM      4  C   UNL     1       3.740   1.795  18.526  0.00  0.00    +0.000 C 
ATOM      5  N   UNL     1       2.889   2.340  17.475  0.00  0.00    +0.000 NA
ATOM      6  C   UNL     1       3.664   3.397  16.798  0.00  0.00    +0.000 C 
ATOM      7  H   UNL     1       2.056   2.765  17.885  0.00  0.00    +0.000 HD
ENDBRANCH   1   2
BRANCH   1   8
ATOM      8  S   UNL     1       6.953   5.420  16.998  0.00  0.00    +0.000 S 
ATOM      9  O   UNL     1       7.846   4.294  17.107  0.00  0.00    +0.000 OA
ATOM     10  O   UNL     1       7.367   6.707  17.509  0.00  0.00    +0.000 OA
BRANCH   8  12
ATOM     11  C   UNL     1       6.748   4.435  14.507  0.00  0.00    +0.000 C 
ATOM     12  N   UNL     1       6.610   5.635  15.350  0.00  0.00    +0.000 NA
ATOM     13  C   UNL     1       5.280   6.274  15.154  0.00  0.00    +0.000 C 
ENDBRANCH   8  12
ENDBRANCH   1   8
BRANCH   1  14
ATOM     14  C   UNL     1       4.965   5.778  18.869  0.00  0.00    +0.000 C 
BRANCH  14  15
ATOM     15  C   UNL     1       3.668   6.557  18.698  0.00  0.00    +0.000 A 
ATOM     16  C   UNL     1       3.666   7.639  17.793  0.00  0.00    +0.000 A 
ATOM     17  C   UNL     1       2.683   8.621  17.859  0.00  0.00    +0.000 A 
ATOM     18  C   UNL     1       1.671   8.508  18.796  0.00  0.00    +0.000 A 
ATOM     19  C   UNL     1       1.553   7.337  19.545  0.00  0.00    +0.000 A 
ATOM     20  C   UNL     1       2.503   6.293  19.457  0.00  0.00    +0.000 A 
BRANCH  20  21
ATOM     21  C   UNL     1       2.153   4.969  20.052  0.00  0.00    +0.000 A 
ATOM     22  C   UNL     1       1.115   4.185  19.511  0.00  0.00    +0.000 A 
ATOM     23  C   UNL     1       0.641   3.037  20.161  0.00  0.00    +0.000 A 
ATOM     24  C   UNL     1       1.183   2.652  21.383  0.00  0.00    +0.000 A 
ATOM     25  C   UNL     1       2.212   3.402  21.941  0.00  0.00    +0.000 A 
ATOM     26  C   UNL     1       2.698   4.537  21.278  0.00  0.00    +0.000 A 
ENDBRANCH  20  21
ENDBRANCH  14  15
ENDBRANCH   1  14
TORSDOF 6
ENDMDL
MODEL 5
REMARK VINA RESULT:      -6.9      1.270      1.690
REMARK  Name = 
REMARK  8 active torsions:
REMARK  status: ('A' for Active; 'I' for Inactive)
REMARK    1  A    between atoms: C_1  and  N_2
REMARK    2  A    between atoms: N_2  and  C_3
REMARK    3  A    between atoms: N_2  and  S_4
REMARK    4  A    between atoms: S_4  and  N_7
REMARK    5  A    between atoms: N_7  and  C_8
REMARK    6  A    between atoms: N_7  and  C_21
REMARK    7  A    between atoms: C_8  and  C_9
REMARK    8  A    between atoms: C_14  and  C_15
REMARK                            x       y       z     vdW  Elec       q    Type
REMARK                         _______ _______ _______ _____ _____    ______ ____
ROOT
ATOM      1  N   UNL     1       4.996   4.865  17.562  0.00  0.00    +0.000 NA
ENDROOT
BRANCH   1   2
ATOM      2  C   UNL     1       4.515   3.452  17.397  0.00  0.00    +0.000 C 
ATOM      3  C   UNL     1       4.334   2.700  18.707  0.00  0.00    +0.000 C 
ATOM      4  C   UNL     1       3.265   1.667  18.415  0.00  0.00    +0.000 C 
ATOM      5  N   UNL     1       2.342   2.302  17.483  0.00  0.00    +0.000 NA
ATOM      6  C   UNL     1       3.091   3.369  16.792  0.00  0.00    +0.000 C 
ATOM      7  H   UNL     1       1.570   2.731  17.995  0.00  0.00    +0.000 HD
ENDBRANCH   1   2
BRANCH   1   8
ATOM      8  S   UNL     1       6.490   5.245  16.825  0.00  0.00    +0.000 S 
ATOM      9  O   UNL     1       7.525   4.401  17.367  0.00  0.00    +0.000 OA
ATOM     10  O   UNL     1       6.672   6.679  16.821  0.00  0.00    +0.000 OA
BRANCH   8  12
ATOM     11  C   UNL     1       5.186   5.497  14.489  0.00  0.00    +0.000 C 
ATOM     12  N   UNL     1       6.250   4.777  15.212  0.00  0.00    +0.000 NA
ATOM     13  C   UNL     1       7.526   4.804  14.446  0.00  0.00    +0.000 C 
ENDBRANCH   8  12
ENDBRANCH   1   8
BRANCH   1  14
ATOM     14  C   UNL     1       4.639   5.593  18.834  0.00  0.00    +0.000 C 
BRANCH  14  15
ATOM     15  C   UNL     1       3.426   6.509  18.753  0.00  0.00    +0.000 A 
ATOM     16  C   UNL     1       3.448   7.546  17.797  0.00  0.00    +0.000 A 
ATOM     17  C   UNL     1       2.592   8.637  17.908  0.00  0.00    +0.000 A 
ATOM     18  C   UNL     1       1.678   8.680  18.947  0.00  0.00    +0.000 A 
ATOM     19  C   UNL     1       1.511   7.562  19.764  0.00  0.00    +0.000 A 
ATOM     20  C   UNL     1       2.325   6.413  19.637  0.00  0.00    +0.000 A 
BRANCH  20  21
ATOM     21  C   UNL     1       1.896   5.164  20.333  0.00  0.00    +0.000 A 
ATOM     22  C   UNL     1       2.655   4.629  21.393  0.00  0.00    +0.000 A 
ATOM     23  C   UNL     1       2.382   3.364  21.931  0.00  0.00    +0.000 A 
ATOM     24  C   UNL     1       1.352   2.589  21.409  0.00  0.00    +0.000 A 
ATOM     25  C   UNL     1       0.582   3.089  20.365  0.00  0.00    +0.000 A 
ATOM     26  C   UNL     1       0.843   4.364  19.844  0.00  0.00    +0.000 A 
ENDBRANCH  20  21
ENDBRANCH  14  15
ENDBRANCH   1  14
TORSDOF 6
ENDMDL
MODEL 6
REMARK VINA RESULT:      -6.7      1.900      2.630
REMARK  Name = 
REMARK  8 active torsions:
REMARK  status: ('A' for Active; 'I' for Inactive)
REMARK    1  A    between atoms: C_1  and  N_2
REMARK    2  A    between atoms: N_2  and  C_3
REMARK    3  A    between atoms: N_2  and  S_4
REMARK    4  A    between atoms: S_4  and  N_7
REMARK    5  A    between atoms: N_7  and  C_8
REMARK    6  A    between atoms: N_7  and  C_21
REMARK    7  A    between atoms: C_8  and  C_9
REMARK    8  A    between atoms: C_14  and  C_15
REMARK                            x       y       z     vdW  Elec       q    Type
REMARK                         _______ _______ _______ _____ _____    ______ ____
ROOT
ATOM      1  N   UNL     1       6.008   4.941  17.419  0.00  0.00    +0.000 NA
ENDROOT
BRANCH   1   2
ATOM      2  C   UNL     1       6.359   4.247  16.135  0.00  0.00    +0.000 C 
ATOM      3  C   UNL     1       5.185   4.072  15.183  0.00  0.00    +0.000 C 
ATOM      4  C   UNL     1       5.809   4.027  13.804  0.00  0.00    +0.000 C 
ATOM      5  N   UNL     1       6.941   4.945  13.848  0.00  0.00    +0.000 NA
ATOM      6  C   UNL     1       7.347   5.061  15.262  0.00  0.00    +0.000 C 
ATOM      7  H   UNL     1       6.653   5.868  13.520  0.00  0.00    +0.000 HD
ENDBRANCH   1   2
BRANCH   1   8
ATOM      8  S   UNL     1       7.313   5.302  18.462  0.00  0.00    +0.000 S 
ATOM      9  O   UNL     1       8.395   4.383  18.219  0.00  0.00    +0.000 OA
ATOM     10  O   UNL     1       6.816   5.475  19.809  0.00  0.00    +0.000 OA
BRANCH   8  12
ATOM     11  C   UNL     1       6.776   7.667  17.306  0.00  0.00    +0.000 C 
ATOM     12  N   UNL     1       7.818   6.831  17.928  0.00  0.00    +0.000 NA
ATOM     13  C   UNL     1       8.523   7.575  19.007  0.00  0.00    +0.000 C 
ENDBRANCH   8  12
ENDBRANCH   1   8
BRANCH   1  14
ATOM     14  C   UNL     1       4.672   4.637  18.050  0.00  0.00    +0.000 C 
BRANCH  14  15
ATOM     15  C   UNL     1       3.684   5.794  18.093  0.00  0.00    +0.000 A 
ATOM     16  C   UNL     1       3.814   6.807  17.121  0.00  0.00    +0.000 A 
ATOM     17  C   UNL     1       3.232   8.056  17.311  0.00  0.00    +0.000 A 
ATOM     18  C   UNL     1       2.480   8.290  18.448  0.00  0.00    +0.000 A 
ATOM     19  C   UNL     1       2.174   7.229  19.302  0.00  0.00    +0.000 A 
ATOM     20  C   UNL     1       2.701   5.933  19.103  0.00  0.00    +0.000 A 
BRANCH  20  21
ATOM     21  C   UNL     1       2.100   4.801  19.869  0.00  0.00    +0.000 A 
ATOM     22  C   UNL     1       2.536   4.499  21.174  0.00  0.00    +0.000 A 
ATOM     23  C   UNL     1       2.129   3.333  21.838  0.00  0.00    +0.000 A 
ATOM     24  C   UNL     1       1.286   2.426  21.203  0.00  0.00    +0.000 A 
ATOM     25  C   UNL     1       0.835   2.696  19.916  0.00  0.00    +0.000 A 
ATOM     26  C   UNL     1       1.227   3.874  19.265  0.00  0.00    +0.000 A 
ENDBRANCH  20  21
ENDBRANCH  14  15
ENDBRANCH   1  14
TORSDOF 6
ENDMDL
MODEL 7
REMARK VINA RESULT:      -6.7      1.821      3.899
REMARK  Name = 
REMARK  8 active torsions:
REMARK  status: ('A' for Active; 'I' for Inactive)
REMARK    1  A    between atoms: C_1  and  N_2
REMARK    2  A    between atoms: N_2  and  C_3
REMARK    3  A    between atoms: N_2  and  S_4
REMARK    4  A    between atoms: S_4  and  N_7
REMARK    5  A    between atoms: N_7  and  C_8
REMARK    6  A    between atoms: N_7  and  C_21
REMARK    7  A    between atoms: C_8  and  C_9
REMARK    8  A    between atoms: C_14  and  C_15
REMARK                            x       y       z     vdW  Elec       q    Type
REMARK                         _______ _______ _______ _____ _____    ______ ____
ROOT
ATOM      1  N   UNL     1       5.789   4.998  17.523  0.00  0.00    +0.000 NA
ENDROOT
BRANCH   1   2
ATOM      2  C   UNL     1       5.205   4.410  16.271  0.00  0.00    +0.000 C 
ATOM      3  C   UNL     1       5.188   5.365  15.086  0.00  0.00    +0.000 C 
ATOM      4  C   UNL     1       5.243   4.468  13.866  0.00  0.00    +0.000 C 
ATOM      5  N   UNL     1       6.089   3.340  14.239  0.00  0.00    +0.000 NA
ATOM      6  C   UNL     1       6.044   3.235  15.710  0.00  0.00    +0.000 C 
ATOM      7  H   UNL     1       7.054   3.521  13.959  0.00  0.00    +0.000 HD
ENDBRANCH   1   2
BRANCH   1   8
ATOM      8  S   UNL     1       7.435   5.452  17.447  0.00  0.00    +0.000 S 
ATOM      9  O   UNL     1       7.640   6.340  16.332  0.00  0.00    +0.000 OA
ATOM     10  O   UNL     1       8.263   4.274  17.581  0.00  0.00    +0.000 OA
BRANCH   8  12
ATOM     11  C   UNL     1       8.320   5.666  19.975  0.00  0.00    +0.000 C 
ATOM     12  N   UNL     1       7.646   6.361  18.864  0.00  0.00    +0.000 NA
ATOM     13  C   UNL     1       8.303   7.666  18.575  0.00  0.00    +0.000 C 
ENDBRANCH   8  12
ENDBRANCH   1   8
BRANCH   1  14
ATOM     14  C   UNL     1       5.256   4.517  18.850  0.00  0.00    +0.000 C 
BRANCH  14  15
ATOM     15  C   UNL     1       3.869   3.890  18.816  0.00  0.00    +0.000 A 
ATOM     16  C   UNL     1       3.775   2.494  18.994  0.00  0.00    +0.000 A 
ATOM     17  C   UNL     1       2.634   1.801  18.600  0.00  0.00    +0.000 A 
ATOM     18  C   UNL     1       1.565   2.499  18.068  0.00  0.00    +0.000 A 
ATOM     19  C   UNL     1       1.574   3.895  18.090  0.00  0.00    +0.000 A 
ATOM     20  C   UNL     1       2.694   4.629  18.541  0.00  0.00    +0.000 A 
BRANCH  20  21
ATOM     21  C   UNL     1       2.519   6.087  18.813  0.00  0.00    +0.000 A 
ATOM     22  C   UNL     1       2.053   6.537  20.065  0.00  0.00    +0.000 A 
ATOM     23  C   UNL     1       1.699   7.876  20.282  0.00  0.00    +0.000 A 
ATOM     24  C   UNL     1       1.784   8.799  19.244  0.00  0.00    +0.000 A 
ATOM     25  C   UNL     1       2.243   8.387  17.998  0.00  0.00    +0.000 A 
ATOM     26  C   UNL     1       2.617   7.052  17.791  0.00  0.00    +0.000 A 
ENDBRANCH  20  21
ENDBRANCH  14  15
ENDBRANCH   1  14
TORSDOF 6
ENDMDL
MODEL 8
REMARK VINA RESULT:      -6.6      1.330      3.632
REMARK  Name = 
REMARK  8 active torsions:
REMARK  status: ('A' for Active; 'I' for Inactive)
REMARK    1  A    between atoms: C_1  and  N_2
REMARK    2  A    between atoms: N_2  and  C_3
REMARK    3  A    between atoms: N_2  and  S_4
REMARK    4  A    between atoms: S_4  and  N_7
REMARK    5  A    between atoms: N_7  and  C_8
REMARK    6  A    between atoms: N_7  and  C_21
REMARK    7  A    between atoms: C_8  and  C_9
REMARK    8  A    between atoms: C_14  and  C_15
REMARK                            x       y       z     vdW  Elec       q    Type
REMARK                         _______ _______ _______ _____ _____    ______ ____
ROOT
ATOM      1  N   UNL     1       4.486   5.091  17.777  0.00  0.00    +0.000 NA
ENDROOT
BRANCH   1   2
ATOM      2  C   UNL     1       4.051   3.747  17.269  0.00  0.00    +0.000 C 
ATOM      3  C   UNL     1       4.426   2.588  18.180  0.00  0.00    +0.000 C 
ATOM      4  C   UNL     1       3.382   1.526  17.904  0.00  0.00    +0.000 C 
ATOM      5  N   UNL     1       2.139   2.245  17.649  0.00  0.00    +0.000 NA
ATOM      6  C   UNL     1       2.511   3.600  17.198  0.00  0.00    +0.000 C 
ATOM      7  H   UNL     1       1.602   2.330  18.513  0.00  0.00    +0.000 HD
ENDBRANCH   1   2
BRANCH   1   8
ATOM      8  S   UNL     1       5.583   5.952  16.790  0.00  0.00    +0.000 S 
ATOM      9  O   UNL     1       6.369   6.844  17.604  0.00  0.00    +0.000 OA
ATOM     10  O   UNL     1       4.883   6.473  15.637  0.00  0.00    +0.000 OA
BRANCH   8  12
ATOM     11  C   UNL     1       7.143   4.928  14.857  0.00  0.00    +0.000 C 
ATOM     12  N   UNL     1       6.622   4.737  16.222  0.00  0.00    +0.000 NA
ATOM     13  C   UNL     1       7.730   4.481  17.183  0.00  0.00    +0.000 C 
ENDBRANCH   8  12
ENDBRANCH   1   8
BRANCH   1  14
ATOM     14  C   UNL     1       4.585   5.289  19.269  0.00  0.00    +0.000 C 
BRANCH  14  15
ATOM     15  C   UNL     1       3.351   4.895  20.070  0.00  0.00    +0.000 A 
ATOM     16  C   UNL     1       3.429   3.736  20.870  0.00  0.00    +0.000 A 
ATOM     17  C   UNL     1       2.276   3.097  21.312  0.00  0.00    +0.000 A 
ATOM     18  C   UNL     1       1.039   3.633  21.000  0.00  0.00    +0.000 A 
ATOM     19  C   UNL     1       0.965   4.888  20.395  0.00  0.00    +0.000 A 
ATOM     20  C   UNL     1       2.122   5.592  19.987  0.00  0.00    +0.000 A 
BRANCH  20  21
ATOM     21  C   UNL     1       1.981   7.034  19.629  0.00  0.00    +0.000 A 
ATOM     22  C   UNL     1       1.460   7.961  20.555  0.00  0.00    +0.000 A 
ATOM     23  C   UNL     1       1.139   9.274  20.183  0.00  0.00    +0.000 A 
ATOM     24  C   UNL     1       1.313   9.691  18.867  0.00  0.00    +0.000 A 
ATOM     25  C   UNL     1       1.828   8.801  17.931  0.00  0.00    +0.000 A 
ATOM     26  C   UNL     1       2.168   7.496  18.311  0.00  0.00    +0.000 A 
ENDBRANCH  20  21
ENDBRANCH  14  15
ENDBRANCH   1  14
TORSDOF 6
ENDMDL
MODEL 9
REMARK VINA RESULT:      -6.5      2.863      6.365
REMARK  Name = 
REMARK  8 active torsions:
REMARK  status: ('A' for Active; 'I' for Inactive)
REMARK    1  A    between atoms: C_1  and  N_2
REMARK    2  A    between atoms: N_2  and  C_3
REMARK    3  A    between atoms: N_2  and  S_4
REMARK    4  A    between atoms: S_4  and  N_7
REMARK    5  A    between atoms: N_7  and  C_8
REMARK    6  A    between atoms: N_7  and  C_21
REMARK    7  A    between atoms: C_8  and  C_9
REMARK    8  A    between atoms: C_14  and  C_15
REMARK                            x       y       z     vdW  Elec       q    Type
REMARK                         _______ _______ _______ _____ _____    ______ ____
ROOT
ATOM      1  N   UNL     1       3.503   4.301  17.321  0.00  0.00    +0.000 NA
ENDROOT
BRANCH   1   2
ATOM      2  C   UNL     1       3.587   5.674  17.924  0.00  0.00    +0.000 C 
ATOM      3  C   UNL     1       2.277   6.448  17.891  0.00  0.00    +0.000 C 
ATOM      4  C   UNL     1       2.361   7.400  19.066  0.00  0.00    +0.000 C 
ATOM      5  N   UNL     1       3.080   6.680  20.111  0.00  0.00    +0.000 NA
ATOM      6  C   UNL     1       3.893   5.647  19.442  0.00  0.00    +0.000 C 
ATOM      7  H   UNL     1       2.417   6.215  20.733  0.00  0.00    +0.000 HD
ENDBRANCH   1   2
BRANCH   1   8
ATOM      8  S   UNL     1       2.206   3.323  17.851  0.00  0.00    +0.000 S 
ATOM      9  O   UNL     1       2.488   1.942  17.550  0.00  0.00    +0.000 OA
ATOM     10  O   UNL     1       0.957   3.905  17.414  0.00  0.00    +0.000 OA
BRANCH   8  12
ATOM     11  C   UNL     1       0.956   3.567  20.217  0.00  0.00    +0.000 C 
ATOM     12  N   UNL     1       2.262   3.494  19.538  0.00  0.00    +0.000 NA
ATOM     13  C   UNL     1       3.128   2.454  20.159  0.00  0.00    +0.000 C 
ENDBRANCH   8  12
ENDBRANCH   1   8
BRANCH   1  14
ATOM     14  C   UNL     1       4.790   3.612  16.941  0.00  0.00    +0.000 C 
BRANCH  14  15
ATOM     15  C   UNL     1       5.482   4.146  15.695  0.00  0.00    +0.000 A 
ATOM     16  C   UNL     1       4.943   3.792  14.441  0.00  0.00    +0.000 A 
ATOM     17  C   UNL     1       5.706   3.899  13.282  0.00  0.00    +0.000 A 
ATOM     18  C   UNL     1       6.993   4.400  13.359  0.00  0.00    +0.000 A 
ATOM     19  C   UNL     1       7.449   4.946  14.559  0.00  0.00    +0.000 A 
ATOM     20  C   UNL     1       6.674   4.908  15.741  0.00  0.00    +0.000 A 
BRANCH  20  21
ATOM     21  C   UNL     1       7.095   5.765  16.889  0.00  0.00    +0.000 A 
ATOM     22  C   UNL     1       7.260   7.156  16.730  0.00  0.00    +0.000 A 
ATOM     23  C   UNL     1       7.836   7.949  17.732  0.00  0.00    +0.000 A 
ATOM     24  C   UNL     1       8.280   7.369  18.915  0.00  0.00    +0.000 A 
ATOM     25  C   UNL     1       8.129   6.000  19.104  0.00  0.00    +0.000 A 
ATOM     26  C   UNL     1       7.532   5.213  18.109  0.00  0.00    +0.000 A 
ENDBRANCH  20  21
ENDBRANCH  14  15
ENDBRANCH   1  14
TORSDOF 6
ENDMDL
