MODEL 1
REMARK VINA RESULT:      -4.7      0.000      0.000
REMARK  Name = 
REMARK  3 active torsions:
REMARK  status: ('A' for Active; 'I' for Inactive)
REMARK    1  A    between atoms: C_2  and  C_3
REMARK    2  A    between atoms: C_3  and  N_4
REMARK    3  A    between atoms: C_8  and  O_9
REMARK                            x       y       z     vdW  Elec       q    Type
REMARK                         _______ _______ _______ _____ _____    ______ ____
ROOT
ATOM      1  N   UNL     1       6.013   5.591  15.173  0.00  0.00    +0.000 NA
ATOM      2  C   UNL     1       5.255   6.463  16.088  0.00  0.00    +0.000 C 
ATOM      3  C   UNL     1       5.008   5.887  17.487  0.00  0.00    +0.000 C 
ATOM      4  C   UNL     1       6.293   5.379  18.131  0.00  0.00    +0.000 C 
ATOM      5  C   UNL     1       7.042   4.450  17.180  0.00  0.00    +0.000 C 
ATOM      6  C   UNL     1       7.258   5.141  15.815  0.00  0.00    +0.000 C 
ENDROOT
BRANCH   5   7
ATOM      7  O   UNL     1       8.291   4.073  17.762  0.00  0.00    +0.000 OA
ATOM      8  H   UNL     1       8.900   3.827  17.046  0.00  0.00    +0.000 HD
ENDBRANCH   5   7
BRANCH   1   9
ATOM      9  C   UNL     1       5.255   4.446  14.647  0.00  0.00    +0.000 C 
BRANCH   9  11
ATOM     10  C   UNL     1       6.399   3.445  12.268  0.00  0.00    +0.000 C 
ATOM     11  C   UNL     1       5.870   3.906  13.366  0.00  0.00    +0.000 C 
ENDBRANCH   9  11
ENDBRANCH   1   9
TORSDOF 3
ENDMDL
MODEL 2
REMARK VINA RESULT:      -4.7      4.218      5.270
REMARK  Name = 
REMARK  3 active torsions:
REMARK  status: ('A' for Active; 'I' for Inactive)
REMARK    1  A    between atoms: C_2  and  C_3
REMARK    2  A    between atoms: C_3  and  N_4
REMARK    3  A    between atoms: C_8  and  O_9
REMARK                            x       y       z     vdW  Elec       q    Type
REMARK                         _______ _______ _______ _____ _____    ______ ____
ROOT
ATOM      1  N   UNL     1       2.652   5.117  19.023  0.00  0.00    +0.000 NA
ATOM      2  C   UNL     1       1.817   4.381  18.057  0.00  0.00    +0.000 C 
ATOM      3  C   UNL     1       2.566   3.374  17.177  0.00  0.00    +0.000 C 
ATOM      4  C   UNL     1       3.435   2.431  18.002  0.00  0.00    +0.000 C 
ATOM      5  C   UNL     1       4.317   3.217  18.968  0.00  0.00    +0.000 C 
ATOM      6  C   UNL     1       3.457   4.177  19.819  0.00  0.00    +0.000 C 
ENDROOT
BRANCH   5   7
ATOM      7  O   UNL     1       5.043   2.310  19.802  0.00  0.00    +0.000 OA
ATOM      8  H   UNL     1       4.994   1.425  19.404  0.00  0.00    +0.000 HD
ENDBRANCH   5   7
BRANCH   1   9
ATOM      9  C   UNL     1       3.504   6.159  18.429  0.00  0.00    +0.000 C 
BRANCH   9  11
ATOM     10  C   UNL     1       2.034   8.497  17.840  0.00  0.00    +0.000 C 
ATOM     11  C   UNL     1       2.712   7.417  18.112  0.00  0.00    +0.000 C 
ENDBRANCH   9  11
ENDBRANCH   1   9
TORSDOF 3
ENDMDL
MODEL 3
REMARK VINA RESULT:      -4.6      2.130      3.068
REMARK  Name = 
REMARK  3 active torsions:
REMARK  status: ('A' for Active; 'I' for Inactive)
REMARK    1  A    between atoms: C_2  and  C_3
REMARK    2  A    between atoms: C_3  and  N_4
REMARK    3  A    between atoms: C_8  and  O_9
REMARK                            x       y       z     vdW  Elec       q    Type
REMARK                         _______ _______ _______ _____ _____    ______ ____
ROOT
ATOM      1  N   UNL     1       4.766   5.013  16.538  0.00  0.00    +0.000 NA
ATOM      2  C   UNL     1       5.062   6.426  16.243  0.00  0.00    +0.000 C 
ATOM      3  C   UNL     1       6.082   7.090  17.175  0.00  0.00    +0.000 C 
ATOM      4  C   UNL     1       7.356   6.264  17.308  0.00  0.00    +0.000 C 
ATOM      5  C   UNL     1       7.026   4.814  17.650  0.00  0.00    +0.000 C 
ATOM      6  C   UNL     1       6.014   4.240  16.634  0.00  0.00    +0.000 C 
ENDROOT
BRANCH   5   7
ATOM      7  O   UNL     1       8.227   4.039  17.665  0.00  0.00    +0.000 OA
ATOM      8  H   UNL     1       8.454   3.810  16.748  0.00  0.00    +0.000 HD
ENDBRANCH   5   7
BRANCH   1   9
ATOM      9  C   UNL     1       3.928   4.797  17.728  0.00  0.00    +0.000 C 
BRANCH   9  11
ATOM     10  C   UNL     1       2.549   2.336  17.597  0.00  0.00    +0.000 C 
ATOM     11  C   UNL     1       3.185   3.472  17.658  0.00  0.00    +0.000 C 
ENDBRANCH   9  11
ENDBRANCH   1   9
TORSDOF 3
ENDMDL
MODEL 4
REMARK VINA RESULT:      -4.6      1.291      1.621
REMARK  Name = 
REMARK  3 active torsions:
REMARK  status: ('A' for Active; 'I' for Inactive)
REMARK    1  A    between atoms: C_2  and  C_3
REMARK    2  A    between atoms: C_3  and  N_4
REMARK    3  A    between atoms: C_8  and  O_9
REMARK                            x       y       z     vdW  Elec       q    Type
REMARK                         _______ _______ _______ _____ _____    ______ ____
ROOT
ATOM      1  N   UNL     1       6.671   5.781  16.188  0.00  0.00    +0.000 NA
ATOM      2  C   UNL     1       5.214   6.004  16.192  0.00  0.00    +0.000 C 
ATOM      3  C   UNL     1       4.439   5.247  17.277  0.00  0.00    +0.000 C 
ATOM      4  C   UNL     1       5.043   5.456  18.661  0.00  0.00    +0.000 C 
ATOM      5  C   UNL     1       6.545   5.184  18.640  0.00  0.00    +0.000 C 
ATOM      6  C   UNL     1       7.225   6.016  17.531  0.00  0.00    +0.000 C 
ENDROOT
BRANCH   5   7
ATOM      7  O   UNL     1       7.105   5.488  19.920  0.00  0.00    +0.000 OA
ATOM      8  H   UNL     1       6.454   6.005  20.423  0.00  0.00    +0.000 HD
ENDBRANCH   5   7
BRANCH   1   9
ATOM      9  C   UNL     1       7.089   4.468  15.675  0.00  0.00    +0.000 C 
BRANCH   9  11
ATOM     10  C   UNL     1       5.794   3.838  13.246  0.00  0.00    +0.000 C 
ATOM     11  C   UNL     1       6.391   4.128  14.368  0.00  0.00    +0.000 C 
ENDBRANCH   9  11
ENDBRANCH   1   9
TORSDOF 3
ENDMDL
MODEL 5
REMARK VINA RESULT:      -4.6      4.421      5.564
REMARK  Name = 
REMARK  3 active torsions:
REMARK  status: ('A' for Active; 'I' for Inactive)
REMARK    1  A    between atoms: C_2  and  C_3
REMARK    2  A    between atoms: C_3  and  N_4
REMARK    3  A    between atoms: C_8  and  O_9
REMARK                            x       y       z     vdW  Elec       q    Type
REMARK                         _______ _______ _______ _____ _____    ______ ____
ROOT
ATOM      1  N   UNL     1       3.455   4.463  19.264  0.00  0.00    +0.000 NA
ATOM      2  C   UNL     1       2.134   4.335  19.906  0.00  0.00    +0.000 C 
ATOM      3  C   UNL     1       1.200   3.293  19.280  0.00  0.00    +0.000 C 
ATOM      4  C   UNL     1       1.882   1.939  19.120  0.00  0.00    +0.000 C 
ATOM      5  C   UNL     1       3.229   2.092  18.421  0.00  0.00    +0.000 C 
ATOM      6  C   UNL     1       4.095   3.144  19.149  0.00  0.00    +0.000 C 
ENDROOT
BRANCH   5   7
ATOM      7  O   UNL     1       3.895   0.828  18.378  0.00  0.00    +0.000 OA
ATOM      8  H   UNL     1       3.224   0.134  18.264  0.00  0.00    +0.000 HD
ENDBRANCH   5   7
BRANCH   1   9
ATOM      9  C   UNL     1       3.440   5.150  17.963  0.00  0.00    +0.000 C 
BRANCH   9  11
ATOM     10  C   UNL     1       2.412   7.771  18.180  0.00  0.00    +0.000 C 
ATOM     11  C   UNL     1       2.886   6.561  18.080  0.00  0.00    +0.000 C 
ENDBRANCH   9  11
ENDBRANCH   1   9
TORSDOF 3
ENDMDL
MODEL 6
REMARK VINA RESULT:      -4.6      4.442      5.288
REMARK  Name = 
REMARK  3 active torsions:
REMARK  status: ('A' for Active; 'I' for Inactive)
REMARK    1  A    between atoms: C_2  and  C_3
REMARK    2  A    between atoms: C_3  and  N_4
REMARK    3  A    between atoms: C_8  and  O_9
REMARK                            x       y       z     vdW  Elec       q    Type
REMARK                         _______ _______ _______ _____ _____    ______ ____
ROOT
ATOM      1  N   UNL     1       3.124   4.561  18.734  0.00  0.00    +0.000 NA
ATOM      2  C   UNL     1       1.848   4.249  18.065  0.00  0.00    +0.000 C 
ATOM      3  C   UNL     1       1.149   2.975  18.553  0.00  0.00    +0.000 C 
ATOM      4  C   UNL     1       1.011   2.944  20.071  0.00  0.00    +0.000 C 
ATOM      5  C   UNL     1       2.351   3.234  20.740  0.00  0.00    +0.000 C 
ATOM      6  C   UNL     1       2.950   4.549  20.194  0.00  0.00    +0.000 C 
ENDROOT
BRANCH   5   7
ATOM      7  O   UNL     1       2.175   3.304  22.157  0.00  0.00    +0.000 OA
ATOM      8  H   UNL     1       3.020   3.080  22.581  0.00  0.00    +0.000 HD
ENDBRANCH   5   7
BRANCH   1   9
ATOM      9  C   UNL     1       4.251   3.703  18.336  0.00  0.00    +0.000 C 
BRANCH   9  11
ATOM     10  C   UNL     1       5.158   4.316  15.733  0.00  0.00    +0.000 C 
ATOM     11  C   UNL     1       4.740   4.033  16.935  0.00  0.00    +0.000 C 
ENDBRANCH   9  11
ENDBRANCH   1   9
TORSDOF 3
ENDMDL
MODEL 7
REMARK VINA RESULT:      -4.6      3.310      4.086
REMARK  Name = 
REMARK  3 active torsions:
REMARK  status: ('A' for Active; 'I' for Inactive)
REMARK    1  A    between atoms: C_2  and  C_3
REMARK    2  A    between atoms: C_3  and  N_4
REMARK    3  A    between atoms: C_8  and  O_9
REMARK                            x       y       z     vdW  Elec       q    Type
REMARK                         _______ _______ _______ _____ _____    ______ ____
ROOT
ATOM      1  N   UNL     1       4.061   6.154  18.325  0.00  0.00    +0.000 NA
ATOM      2  C   UNL     1       2.634   5.818  18.176  0.00  0.00    +0.000 C 
ATOM      3  C   UNL     1       2.344   4.384  17.717  0.00  0.00    +0.000 C 
ATOM      4  C   UNL     1       3.080   3.353  18.565  0.00  0.00    +0.000 C 
ATOM      5  C   UNL     1       4.561   3.702  18.674  0.00  0.00    +0.000 C 
ATOM      6  C   UNL     1       4.734   5.155  19.169  0.00  0.00    +0.000 C 
ENDROOT
BRANCH   5   7
ATOM      7  O   UNL     1       5.207   2.784  19.558  0.00  0.00    +0.000 OA
ATOM      8  H   UNL     1       6.116   2.646  19.244  0.00  0.00    +0.000 HD
ENDBRANCH   5   7
BRANCH   1   9
ATOM      9  C   UNL     1       4.784   6.337  17.056  0.00  0.00    +0.000 C 
BRANCH   9  11
ATOM     10  C   UNL     1       7.425   7.240  17.483  0.00  0.00    +0.000 C 
ATOM     11  C   UNL     1       6.205   6.823  17.286  0.00  0.00    +0.000 C 
ENDBRANCH   9  11
ENDBRANCH   1   9
TORSDOF 3
ENDMDL
MODEL 8
REMARK VINA RESULT:      -4.6      4.461      5.332
REMARK  Name = 
REMARK  3 active torsions:
REMARK  status: ('A' for Active; 'I' for Inactive)
REMARK    1  A    between atoms: C_2  and  C_3
REMARK    2  A    between atoms: C_3  and  N_4
REMARK    3  A    between atoms: C_8  and  O_9
REMARK                            x       y       z     vdW  Elec       q    Type
REMARK                         _______ _______ _______ _____ _____    ______ ____
ROOT
ATOM      1  N   UNL     1       2.012   3.565  17.848  0.00  0.00    +0.000 NA
ATOM      2  C   UNL     1       1.024   2.803  18.632  0.00  0.00    +0.000 C 
ATOM      3  C   UNL     1       1.211   2.860  20.153  0.00  0.00    +0.000 C 
ATOM      4  C   UNL     1       1.348   4.291  20.659  0.00  0.00    +0.000 C 
ATOM      5  C   UNL     1       2.403   5.048  19.856  0.00  0.00    +0.000 C 
ATOM      6  C   UNL     1       2.101   4.947  18.345  0.00  0.00    +0.000 C 
ENDROOT
BRANCH   5   7
ATOM      7  O   UNL     1       2.438   6.414  20.277  0.00  0.00    +0.000 OA
ATOM      8  H   UNL     1       2.361   6.437  21.245  0.00  0.00    +0.000 HD
ENDBRANCH   5   7
BRANCH   1   9
ATOM      9  C   UNL     1       3.347   2.950  17.780  0.00  0.00    +0.000 C 
BRANCH   9  11
ATOM     10  C   UNL     1       5.099   4.439  16.141  0.00  0.00    +0.000 C 
ATOM     11  C   UNL     1       4.289   3.752  16.897  0.00  0.00    +0.000 C 
ENDBRANCH   9  11
ENDBRANCH   1   9
TORSDOF 3
ENDMDL
MODEL 9
REMARK VINA RESULT:      -4.5      2.612      4.312
REMARK  Name = 
REMARK  3 active torsions:
REMARK  status: ('A' for Active; 'I' for Inactive)
REMARK    1  A    between atoms: C_2  and  C_3
REMARK    2  A    between atoms: C_3  and  N_4
REMARK    3  A    between atoms: C_8  and  O_9
REMARK                            x       y       z     vdW  Elec       q    Type
REMARK                         _______ _______ _______ _____ _____    ______ ____
ROOT
ATOM      1  N   UNL     1       6.445   6.415  16.207  0.00  0.00    +0.000 NA
ATOM      2  C   UNL     1       6.584   5.212  15.368  0.00  0.00    +0.000 C 
ATOM      3  C   UNL     1       6.009   3.924  15.970  0.00  0.00    +0.000 C 
ATOM      4  C   UNL     1       4.575   4.110  16.452  0.00  0.00    +0.000 C 
ATOM      5  C   UNL     1       4.462   5.341  17.347  0.00  0.00    +0.000 C 
ATOM      6  C   UNL     1       5.046   6.579  16.633  0.00  0.00    +0.000 C 
ENDROOT
BRANCH   5   7
ATOM      7  O   UNL     1       3.094   5.555  17.699  0.00  0.00    +0.000 OA
ATOM      8  H   UNL     1       2.600   5.770  16.890  0.00  0.00    +0.000 HD
ENDBRANCH   5   7
BRANCH   1   9
ATOM      9  C   UNL     1       7.351   6.465  17.365  0.00  0.00    +0.000 C 
BRANCH   9  11
ATOM     10  C   UNL     1       8.163   9.107  17.941  0.00  0.00    +0.000 C 
ATOM     11  C   UNL     1       7.788   7.887  17.674  0.00  0.00    +0.000 C 
ENDBRANCH   9  11
ENDBRANCH   1   9
TORSDOF 3
ENDMDL
