MODEL 1
REMARK VINA RESULT:      -8.3      0.000      0.000
REMARK  Name = 
REMARK  10 active torsions:
REMARK  status: ('A' for Active; 'I' for Inactive)
REMARK    1  A    between atoms: C_1  and  N_2
REMARK    2  A    between atoms: N_2  and  C_3
REMARK    3  A    between atoms: N_2  and  C_4
REMARK    4  A    between atoms: C_7  and  N_8
REMARK    5  A    between atoms: C_9  and  C_11
REMARK    6  A    between atoms: N_13  and  C_14
REMARK    7  A    between atoms: C_14  and  C_15
REMARK    8  A    between atoms: C_15  and  C_16
REMARK    9  A    between atoms: C_16  and  C_17
REMARK   10  A    between atoms: C_16  and  C_23
REMARK                            x       y       z     vdW  Elec       q    Type
REMARK                         _______ _______ _______ _____ _____    ______ ____
ROOT
ATOM      1  C   UNL     1       1.635  10.961  18.534  0.00  0.00    +0.000 C 
ATOM      2  O   UNL     1       2.515  11.472  17.854  0.00  0.00    +0.000 OA
ATOM      3  N   UNL     1       1.245   9.641  18.541  0.00  0.00    +0.000 N 
ATOM      4  H   UNL     1       0.533   9.396  19.227  0.00  0.00    +0.000 HD
ENDROOT
BRANCH   1   6
ATOM      5  N   UNL     1      -0.200  11.125  20.155  0.00  0.00    +0.000 N 
ATOM      6  C   UNL     1       0.819  11.814  19.523  0.00  0.00    +0.000 C 
ATOM      7  O   UNL     1       1.151  12.988  19.644  0.00  0.00    +0.000 OA
ATOM      8  H   UNL     1      -0.296  10.149  19.890  0.00  0.00    +0.000 HD
BRANCH   5  12
ATOM      9  C   UNL     1      -2.931  12.714  23.035  0.00  0.00    +0.000 A 
ATOM     10  C   UNL     1      -1.821  11.956  23.416  0.00  0.00    +0.000 A 
ATOM     11  C   UNL     1      -0.918  11.429  22.485  0.00  0.00    +0.000 A 
ATOM     12  C   UNL     1      -1.076  11.653  21.124  0.00  0.00    +0.000 A 
ATOM     13  C   UNL     1      -2.157  12.432  20.711  0.00  0.00    +0.000 A 
ATOM     14  C   UNL     1      -3.065  12.954  21.655  0.00  0.00    +0.000 A 
BRANCH   9  16
ATOM     15  C   UNL     1      -3.569  14.512  24.606  0.00  0.00    +0.000 C 
ATOM     16  N   UNL     1      -3.832  13.220  23.977  0.00  0.00    +0.000 N 
ATOM     17  C   UNL     1      -4.711  12.305  24.696  0.00  0.00    +0.000 C 
ENDBRANCH   9  16
ENDBRANCH   5  12
ENDBRANCH   1   6
BRANCH   3  18
ATOM     18  C   UNL     1       1.859   8.610  17.735  0.00  0.00    +0.000 C 
BRANCH  18  19
ATOM     19  C   UNL     1       2.616   7.615  18.613  0.00  0.00    +0.000 C 
BRANCH  19  20
ATOM     20  C   UNL     1       2.883   6.254  17.919  0.00  0.00    +0.000 C 
BRANCH  20  21
ATOM     21  C   UNL     1       4.379   6.000  17.770  0.00  0.00    +0.000 A 
ATOM     22  C   UNL     1       5.032   6.199  16.545  0.00  0.00    +0.000 A 
ATOM     23  C   UNL     1       6.366   5.819  16.377  0.00  0.00    +0.000 A 
ATOM     24  C   UNL     1       7.068   5.245  17.435  0.00  0.00    +0.000 A 
ATOM     25  C   UNL     1       6.442   5.068  18.666  0.00  0.00    +0.000 A 
ATOM     26  C   UNL     1       5.109   5.448  18.837  0.00  0.00    +0.000 A 
ENDBRANCH  20  21
BRANCH  20  27
ATOM     27  C   UNL     1       2.118   5.102  18.574  0.00  0.00    +0.000 A 
ATOM     28  C   UNL     1       1.798   5.166  19.941  0.00  0.00    +0.000 A 
ATOM     29  C   UNL     1       1.217   4.073  20.593  0.00  0.00    +0.000 A 
ATOM     30  C   UNL     1       0.936   2.905  19.890  0.00  0.00    +0.000 A 
ATOM     31  C   UNL     1       1.197   2.842  18.525  0.00  0.00    +0.000 A 
ATOM     32  C   UNL     1       1.770   3.935  17.871  0.00  0.00    +0.000 A 
ENDBRANCH  20  27
ENDBRANCH  19  20
ENDBRANCH  18  19
ENDBRANCH   3  18
TORSDOF 8
ENDMDL
MODEL 2
REMARK VINA RESULT:      -8.3      5.118      8.582
REMARK  Name = 
REMARK  10 active torsions:
REMARK  status: ('A' for Active; 'I' for Inactive)
REMARK    1  A    between atoms: C_1  and  N_2
REMARK    2  A    between atoms: N_2  and  C_3
REMARK    3  A    between atoms: N_2  and  C_4
REMARK    4  A    between atoms: C_7  and  N_8
REMARK    5  A    between atoms: C_9  and  C_11
REMARK    6  A    between atoms: N_13  and  C_14
REMARK    7  A    between atoms: C_14  and  C_15
REMARK    8  A    between atoms: C_15  and  C_16
REMARK    9  A    between atoms: C_16  and  C_17
REMARK   10  A    between atoms: C_16  and  C_23
REMARK                            x       y       z     vdW  Elec       q    Type
REMARK                         _______ _______ _______ _____ _____    ______ ____
ROOT
ATOM      1  C   UNL     1       6.837   6.947  17.422  0.00  0.00    +0.000 C 
ATOM      2  O   UNL     1       6.508   7.133  16.258  0.00  0.00    +0.000 OA
ATOM      3  N   UNL     1       6.397   5.954  18.267  0.00  0.00    +0.000 N 
ATOM      4  H   UNL     1       6.840   5.928  19.184  0.00  0.00    +0.000 HD
ENDROOT
BRANCH   1   6
ATOM      5  N   UNL     1       7.808   9.189  17.655  0.00  0.00    +0.000 N 
ATOM      6  C   UNL     1       7.855   7.881  18.102  0.00  0.00    +0.000 C 
ATOM      7  O   UNL     1       8.583   7.380  18.951  0.00  0.00    +0.000 OA
ATOM      8  H   UNL     1       7.121   9.378  16.931  0.00  0.00    +0.000 HD
BRANCH   5  12
ATOM      9  C   UNL     1      10.143  12.472  19.087  0.00  0.00    +0.000 A 
ATOM     10  C   UNL     1      10.393  11.159  19.497  0.00  0.00    +0.000 A 
ATOM     11  C   UNL     1       9.636  10.074  19.036  0.00  0.00    +0.000 A 
ATOM     12  C   UNL     1       8.603  10.252  18.128  0.00  0.00    +0.000 A 
ATOM     13  C   UNL     1       8.347  11.546  17.674  0.00  0.00    +0.000 A 
ATOM     14  C   UNL     1       9.109  12.634  18.148  0.00  0.00    +0.000 A 
BRANCH   9  16
ATOM     15  C   UNL     1      12.320  13.631  19.244  0.00  0.00    +0.000 C 
ATOM     16  N   UNL     1      10.897  13.546  19.569  0.00  0.00    +0.000 N 
ATOM     17  C   UNL     1      10.448  14.268  20.753  0.00  0.00    +0.000 C 
ENDBRANCH   9  16
ENDBRANCH   5  12
ENDBRANCH   1   6
BRANCH   3  18
ATOM     18  C   UNL     1       5.463   4.919  17.884  0.00  0.00    +0.000 C 
BRANCH  18  19
ATOM     19  C   UNL     1       4.052   5.488  17.744  0.00  0.00    +0.000 C 
BRANCH  19  20
ATOM     20  C   UNL     1       3.396   5.861  19.100  0.00  0.00    +0.000 C 
BRANCH  20  21
ATOM     21  C   UNL     1       2.570   7.136  18.975  0.00  0.00    +0.000 A 
ATOM     22  C   UNL     1       2.597   7.909  17.805  0.00  0.00    +0.000 A 
ATOM     23  C   UNL     1       1.959   9.150  17.755  0.00  0.00    +0.000 A 
ATOM     24  C   UNL     1       1.276   9.631  18.871  0.00  0.00    +0.000 A 
ATOM     25  C   UNL     1       1.215   8.862  20.030  0.00  0.00    +0.000 A 
ATOM     26  C   UNL     1       1.851   7.619  20.082  0.00  0.00    +0.000 A 
ENDBRANCH  20  21
BRANCH  20  27
ATOM     27  C   UNL     1       2.641   4.687  19.728  0.00  0.00    +0.000 A 
ATOM     28  C   UNL     1       1.616   4.052  19.006  0.00  0.00    +0.000 A 
ATOM     29  C   UNL     1       0.823   3.067  19.602  0.00  0.00    +0.000 A 
ATOM     30  C   UNL     1       1.047   2.691  20.925  0.00  0.00    +0.000 A 
ATOM     31  C   UNL     1       2.090   3.272  21.638  0.00  0.00    +0.000 A 
ATOM     32  C   UNL     1       2.888   4.250  21.041  0.00  0.00    +0.000 A 
ENDBRANCH  20  27
ENDBRANCH  19  20
ENDBRANCH  18  19
ENDBRANCH   3  18
TORSDOF 8
ENDMDL
MODEL 3
REMARK VINA RESULT:      -8.3      0.622      1.063
REMARK  Name = 
REMARK  10 active torsions:
REMARK  status: ('A' for Active; 'I' for Inactive)
REMARK    1  A    between atoms: C_1  and  N_2
REMARK    2  A    between atoms: N_2  and  C_3
REMARK    3  A    between atoms: N_2  and  C_4
REMARK    4  A    between atoms: C_7  and  N_8
REMARK    5  A    between atoms: C_9  and  C_11
REMARK    6  A    between atoms: N_13  and  C_14
REMARK    7  A    between atoms: C_14  and  C_15
REMARK    8  A    between atoms: C_15  and  C_16
REMARK    9  A    between atoms: C_16  and  C_17
REMARK   10  A    between atoms: C_16  and  C_23
REMARK                            x       y       z     vdW  Elec       q    Type
REMARK                         _______ _______ _______ _____ _____    ______ ____
ROOT
ATOM      1  C   UNL     1       1.770  10.870  18.541  0.00  0.00    +0.000 C 
ATOM      2  O   UNL     1       2.517  11.422  17.744  0.00  0.00    +0.000 OA
ATOM      3  N   UNL     1       1.580   9.517  18.709  0.00  0.00    +0.000 N 
ATOM      4  H   UNL     1       0.960   9.251  19.473  0.00  0.00    +0.000 HD
ENDROOT
BRANCH   1   6
ATOM      5  N   UNL     1      -0.213  11.040  19.976  0.00  0.00    +0.000 N 
ATOM      6  C   UNL     1       0.905  11.704  19.504  0.00  0.00    +0.000 C 
ATOM      7  O   UNL     1       1.289  12.842  19.748  0.00  0.00    +0.000 OA
ATOM      8  H   UNL     1      -0.337  10.094  19.629  0.00  0.00    +0.000 HD
BRANCH   5  12
ATOM      9  C   UNL     1      -3.137  12.596  22.680  0.00  0.00    +0.000 A 
ATOM     10  C   UNL     1      -2.089  11.782  23.120  0.00  0.00    +0.000 A 
ATOM     11  C   UNL     1      -1.124  11.266  22.247  0.00  0.00    +0.000 A 
ATOM     12  C   UNL     1      -1.154  11.555  20.890  0.00  0.00    +0.000 A 
ATOM     13  C   UNL     1      -2.169  12.390  20.422  0.00  0.00    +0.000 A 
ATOM     14  C   UNL     1      -3.140  12.901  21.307  0.00  0.00    +0.000 A 
BRANCH   9  16
ATOM     15  C   UNL     1      -4.424  14.516  23.555  0.00  0.00    +0.000 C 
ATOM     16  N   UNL     1      -4.101  13.090  23.564  0.00  0.00    +0.000 N 
ATOM     17  C   UNL     1      -4.403  12.355  24.786  0.00  0.00    +0.000 C 
ENDBRANCH   9  16
ENDBRANCH   5  12
ENDBRANCH   1   6
BRANCH   3  18
ATOM     18  C   UNL     1       2.284   8.501  17.961  0.00  0.00    +0.000 C 
BRANCH  18  19
ATOM     19  C   UNL     1       2.519   7.261  18.821  0.00  0.00    +0.000 C 
BRANCH  19  20
ATOM     20  C   UNL     1       3.137   6.072  18.039  0.00  0.00    +0.000 C 
BRANCH  20  21
ATOM     21  C   UNL     1       4.659   6.097  18.116  0.00  0.00    +0.000 A 
ATOM     22  C   UNL     1       5.430   6.649  17.083  0.00  0.00    +0.000 A 
ATOM     23  C   UNL     1       6.822   6.532  17.090  0.00  0.00    +0.000 A 
ATOM     24  C   UNL     1       7.462   5.870  18.136  0.00  0.00    +0.000 A 
ATOM     25  C   UNL     1       6.713   5.342  19.184  0.00  0.00    +0.000 A 
ATOM     26  C   UNL     1       5.321   5.459  19.180  0.00  0.00    +0.000 A 
ENDBRANCH  20  21
BRANCH  20  27
ATOM     27  C   UNL     1       2.516   4.728  18.429  0.00  0.00    +0.000 A 
ATOM     28  C   UNL     1       2.745   3.596  17.628  0.00  0.00    +0.000 A 
ATOM     29  C   UNL     1       2.086   2.390  17.886  0.00  0.00    +0.000 A 
ATOM     30  C   UNL     1       1.198   2.290  18.954  0.00  0.00    +0.000 A 
ATOM     31  C   UNL     1       0.998   3.385  19.789  0.00  0.00    +0.000 A 
ATOM     32  C   UNL     1       1.662   4.587  19.536  0.00  0.00    +0.000 A 
ENDBRANCH  20  27
ENDBRANCH  19  20
ENDBRANCH  18  19
ENDBRANCH   3  18
TORSDOF 8
ENDMDL
MODEL 4
REMARK VINA RESULT:      -8.3      1.124      1.886
REMARK  Name = 
REMARK  10 active torsions:
REMARK  status: ('A' for Active; 'I' for Inactive)
REMARK    1  A    between atoms: C_1  and  N_2
REMARK    2  A    between atoms: N_2  and  C_3
REMARK    3  A    between atoms: N_2  and  C_4
REMARK    4  A    between atoms: C_7  and  N_8
REMARK    5  A    between atoms: C_9  and  C_11
REMARK    6  A    between atoms: N_13  and  C_14
REMARK    7  A    between atoms: C_14  and  C_15
REMARK    8  A    between atoms: C_15  and  C_16
REMARK    9  A    between atoms: C_16  and  C_17
REMARK   10  A    between atoms: C_16  and  C_23
REMARK                            x       y       z     vdW  Elec       q    Type
REMARK                         _______ _______ _______ _____ _____    ______ ____
ROOT
ATOM      1  C   UNL     1       1.463  10.076  18.301  0.00  0.00    +0.000 C 
ATOM      2  O   UNL     1       2.260  10.947  17.981  0.00  0.00    +0.000 OA
ATOM      3  N   UNL     1       1.597   8.717  18.127  0.00  0.00    +0.000 N 
ATOM      4  H   UNL     1       0.849   8.147  18.520  0.00  0.00    +0.000 HD
ENDROOT
BRANCH   1   6
ATOM      5  N   UNL     1       0.279  11.119  20.180  0.00  0.00    +0.000 N 
ATOM      6  C   UNL     1       0.132  10.448  18.980  0.00  0.00    +0.000 C 
ATOM      7  O   UNL     1      -0.895  10.119  18.398  0.00  0.00    +0.000 OA
ATOM      8  H   UNL     1       1.238  11.279  20.475  0.00  0.00    +0.000 HD
BRANCH   5  12
ATOM      9  C   UNL     1      -2.840  12.577  22.715  0.00  0.00    +0.000 A 
ATOM     10  C   UNL     1      -2.717  12.995  21.387  0.00  0.00    +0.000 A 
ATOM     11  C   UNL     1      -1.701  12.526  20.545  0.00  0.00    +0.000 A 
ATOM     12  C   UNL     1      -0.768  11.601  20.990  0.00  0.00    +0.000 A 
ATOM     13  C   UNL     1      -0.880  11.139  22.302  0.00  0.00    +0.000 A 
ATOM     14  C   UNL     1      -1.903  11.621  23.145  0.00  0.00    +0.000 A 
BRANCH   9  16
ATOM     15  C   UNL     1      -5.235  13.068  23.077  0.00  0.00    +0.000 C 
ATOM     16  N   UNL     1      -3.851  13.067  23.546  0.00  0.00    +0.000 N 
ATOM     17  C   UNL     1      -3.517  14.008  24.610  0.00  0.00    +0.000 C 
ENDBRANCH   9  16
ENDBRANCH   5  12
ENDBRANCH   1   6
BRANCH   3  18
ATOM     18  C   UNL     1       2.758   8.084  17.545  0.00  0.00    +0.000 C 
BRANCH  18  19
ATOM     19  C   UNL     1       3.313   7.008  18.475  0.00  0.00    +0.000 C 
BRANCH  19  20
ATOM     20  C   UNL     1       3.278   5.582  17.865  0.00  0.00    +0.000 C 
BRANCH  20  21
ATOM     21  C   UNL     1       4.680   5.110  17.497  0.00  0.00    +0.000 A 
ATOM     22  C   UNL     1       5.787   5.420  18.302  0.00  0.00    +0.000 A 
ATOM     23  C   UNL     1       7.083   5.116  17.880  0.00  0.00    +0.000 A 
ATOM     24  C   UNL     1       7.291   4.487  16.655  0.00  0.00    +0.000 A 
ATOM     25  C   UNL     1       6.201   4.146  15.858  0.00  0.00    +0.000 A 
ATOM     26  C   UNL     1       4.903   4.448  16.277  0.00  0.00    +0.000 A 
ENDBRANCH  20  21
BRANCH  20  27
ATOM     27  C   UNL     1       2.495   4.593  18.731  0.00  0.00    +0.000 A 
ATOM     28  C   UNL     1       1.713   3.598  18.120  0.00  0.00    +0.000 A 
ATOM     29  C   UNL     1       0.887   2.766  18.881  0.00  0.00    +0.000 A 
ATOM     30  C   UNL     1       0.836   2.905  20.266  0.00  0.00    +0.000 A 
ATOM     31  C   UNL     1       1.642   3.849  20.894  0.00  0.00    +0.000 A 
ATOM     32  C   UNL     1       2.474   4.675  20.135  0.00  0.00    +0.000 A 
ENDBRANCH  20  27
ENDBRANCH  19  20
ENDBRANCH  18  19
ENDBRANCH   3  18
TORSDOF 8
ENDMDL
MODEL 5
REMARK VINA RESULT:      -8.3      0.742      1.263
REMARK  Name = 
REMARK  10 active torsions:
REMARK  status: ('A' for Active; 'I' for Inactive)
REMARK    1  A    between atoms: C_1  and  N_2
REMARK    2  A    between atoms: N_2  and  C_3
REMARK    3  A    between atoms: N_2  and  C_4
REMARK    4  A    between atoms: C_7  and  N_8
REMARK    5  A    between atoms: C_9  and  C_11
REMARK    6  A    between atoms: N_13  and  C_14
REMARK    7  A    between atoms: C_14  and  C_15
REMARK    8  A    between atoms: C_15  and  C_16
REMARK    9  A    between atoms: C_16  and  C_17
REMARK   10  A    between atoms: C_16  and  C_23
REMARK                            x       y       z     vdW  Elec       q    Type
REMARK                         _______ _______ _______ _____ _____    ______ ____
ROOT
ATOM      1  C   UNL     1       1.728  10.739  18.363  0.00  0.00    +0.000 C 
ATOM      2  O   UNL     1       2.518  11.250  17.580  0.00  0.00    +0.000 OA
ATOM      3  N   UNL     1       1.436   9.401  18.500  0.00  0.00    +0.000 N 
ATOM      4  H   UNL     1       0.794   9.166  19.256  0.00  0.00    +0.000 HD
ENDROOT
BRANCH   1   6
ATOM      5  N   UNL     1      -0.154  10.971  19.919  0.00  0.00    +0.000 N 
ATOM      6  C   UNL     1       0.925  11.614  19.342  0.00  0.00    +0.000 C 
ATOM      7  O   UNL     1       1.319  12.764  19.506  0.00  0.00    +0.000 OA
ATOM      8  H   UNL     1      -0.296  10.009  19.626  0.00  0.00    +0.000 HD
BRANCH   5  12
ATOM      9  C   UNL     1      -2.752  12.660  22.865  0.00  0.00    +0.000 A 
ATOM     10  C   UNL     1      -2.899  12.947  21.505  0.00  0.00    +0.000 A 
ATOM     11  C   UNL     1      -2.056  12.401  20.529  0.00  0.00    +0.000 A 
ATOM     12  C   UNL     1      -1.035  11.526  20.869  0.00  0.00    +0.000 A 
ATOM     13  C   UNL     1      -0.879  11.193  22.215  0.00  0.00    +0.000 A 
ATOM     14  C   UNL     1      -1.729  11.752  23.192  0.00  0.00    +0.000 A 
BRANCH   9  16
ATOM     15  C   UNL     1      -3.307  14.565  24.339  0.00  0.00    +0.000 C 
ATOM     16  N   UNL     1      -3.593  13.225  23.828  0.00  0.00    +0.000 N 
ATOM     17  C   UNL     1      -4.405  12.358  24.674  0.00  0.00    +0.000 C 
ENDBRANCH   9  16
ENDBRANCH   5  12
ENDBRANCH   1   6
BRANCH   3  18
ATOM     18  C   UNL     1       2.064   8.351  17.732  0.00  0.00    +0.000 C 
BRANCH  18  19
ATOM     19  C   UNL     1       2.697   7.310  18.653  0.00  0.00    +0.000 C 
BRANCH  19  20
ATOM     20  C   UNL     1       2.690   5.874  18.064  0.00  0.00    +0.000 C 
BRANCH  20  21
ATOM     21  C   UNL     1       4.058   5.506  17.502  0.00  0.00    +0.000 A 
ATOM     22  C   UNL     1       5.130   6.409  17.549  0.00  0.00    +0.000 A 
ATOM     23  C   UNL     1       6.333   6.123  16.898  0.00  0.00    +0.000 A 
ATOM     24  C   UNL     1       6.483   4.926  16.201  0.00  0.00    +0.000 A 
ATOM     25  C   UNL     1       5.438   4.007  16.169  0.00  0.00    +0.000 A 
ATOM     26  C   UNL     1       4.235   4.289  16.821  0.00  0.00    +0.000 A 
ENDBRANCH  20  21
BRANCH  20  27
ATOM     27  C   UNL     1       2.120   4.843  19.041  0.00  0.00    +0.000 A 
ATOM     28  C   UNL     1       2.475   4.900  20.400  0.00  0.00    +0.000 A 
ATOM     29  C   UNL     1       2.076   3.896  21.288  0.00  0.00    +0.000 A 
ATOM     30  C   UNL     1       1.306   2.826  20.837  0.00  0.00    +0.000 A 
ATOM     31  C   UNL     1       0.901   2.781  19.508  0.00  0.00    +0.000 A 
ATOM     32  C   UNL     1       1.292   3.787  18.622  0.00  0.00    +0.000 A 
ENDBRANCH  20  27
ENDBRANCH  19  20
ENDBRANCH  18  19
ENDBRANCH   3  18
TORSDOF 8
ENDMDL
MODEL 6
REMARK VINA RESULT:      -8.3      0.825      1.290
REMARK  Name = 
REMARK  10 active torsions:
REMARK  status: ('A' for Active; 'I' for Inactive)
REMARK    1  A    between atoms: C_1  and  N_2
REMARK    2  A    between atoms: N_2  and  C_3
REMARK    3  A    between atoms: N_2  and  C_4
REMARK    4  A    between atoms: C_7  and  N_8
REMARK    5  A    between atoms: C_9  and  C_11
REMARK    6  A    between atoms: N_13  and  C_14
REMARK    7  A    between atoms: C_14  and  C_15
REMARK    8  A    between atoms: C_15  and  C_16
REMARK    9  A    between atoms: C_16  and  C_17
REMARK   10  A    between atoms: C_16  and  C_23
REMARK                            x       y       z     vdW  Elec       q    Type
REMARK                         _______ _______ _______ _____ _____    ______ ____
ROOT
ATOM      1  C   UNL     1       1.806  10.671  18.309  0.00  0.00    +0.000 C 
ATOM      2  O   UNL     1       2.686  11.163  17.616  0.00  0.00    +0.000 OA
ATOM      3  N   UNL     1       1.439   9.346  18.376  0.00  0.00    +0.000 N 
ATOM      4  H   UNL     1       0.721   9.123  19.065  0.00  0.00    +0.000 HD
ENDROOT
BRANCH   1   6
ATOM      5  N   UNL     1      -0.115  10.907  19.816  0.00  0.00    +0.000 N 
ATOM      6  C   UNL     1       0.962  11.557  19.243  0.00  0.00    +0.000 C 
ATOM      7  O   UNL     1       1.326  12.720  19.378  0.00  0.00    +0.000 OA
ATOM      8  H   UNL     1      -0.229   9.934  19.550  0.00  0.00    +0.000 HD
BRANCH   5  12
ATOM      9  C   UNL     1      -2.957  12.612  22.518  0.00  0.00    +0.000 A 
ATOM     10  C   UNL     1      -1.936  11.767  22.963  0.00  0.00    +0.000 A 
ATOM     11  C   UNL     1      -0.999  11.201  22.090  0.00  0.00    +0.000 A 
ATOM     12  C   UNL     1      -1.029  11.471  20.729  0.00  0.00    +0.000 A 
ATOM     13  C   UNL     1      -2.016  12.336  20.256  0.00  0.00    +0.000 A 
ATOM     14  C   UNL     1      -2.961  12.896  21.141  0.00  0.00    +0.000 A 
BRANCH   9  16
ATOM     15  C   UNL     1      -4.184  14.587  23.355  0.00  0.00    +0.000 C 
ATOM     16  N   UNL     1      -3.894  13.155  23.401  0.00  0.00    +0.000 N 
ATOM     17  C   UNL     1      -4.194  12.464  24.650  0.00  0.00    +0.000 C 
ENDBRANCH   9  16
ENDBRANCH   5  12
ENDBRANCH   1   6
BRANCH   3  18
ATOM     18  C   UNL     1       2.081   8.288  17.631  0.00  0.00    +0.000 C 
BRANCH  18  19
ATOM     19  C   UNL     1       2.751   7.290  18.574  0.00  0.00    +0.000 C 
BRANCH  19  20
ATOM     20  C   UNL     1       2.816   5.848  18.007  0.00  0.00    +0.000 C 
BRANCH  20  21
ATOM     21  C   UNL     1       4.196   5.547  17.433  0.00  0.00    +0.000 A 
ATOM     22  C   UNL     1       5.258   6.451  17.582  0.00  0.00    +0.000 A 
ATOM     23  C   UNL     1       6.473   6.240  16.925  0.00  0.00    +0.000 A 
ATOM     24  C   UNL     1       6.645   5.116  16.120  0.00  0.00    +0.000 A 
ATOM     25  C   UNL     1       5.611   4.194  15.985  0.00  0.00    +0.000 A 
ATOM     26  C   UNL     1       4.395   4.403  16.642  0.00  0.00    +0.000 A 
ENDBRANCH  20  21
BRANCH  20  27
ATOM     27  C   UNL     1       2.316   4.802  19.006  0.00  0.00    +0.000 A 
ATOM     28  C   UNL     1       1.445   3.787  18.575  0.00  0.00    +0.000 A 
ATOM     29  C   UNL     1       0.870   2.899  19.490  0.00  0.00    +0.000 A 
ATOM     30  C   UNL     1       1.164   3.002  20.847  0.00  0.00    +0.000 A 
ATOM     31  C   UNL     1       2.065   3.966  21.285  0.00  0.00    +0.000 A 
ATOM     32  C   UNL     1       2.645   4.849  20.372  0.00  0.00    +0.000 A 
ENDBRANCH  20  27
ENDBRANCH  19  20
ENDBRANCH  18  19
ENDBRANCH   3  18
TORSDOF 8
ENDMDL
MODEL 7
REMARK VINA RESULT:      -8.3      2.191      4.270
REMARK  Name = 
REMARK  10 active torsions:
REMARK  status: ('A' for Active; 'I' for Inactive)
REMARK    1  A    between atoms: C_1  and  N_2
REMARK    2  A    between atoms: N_2  and  C_3
REMARK    3  A    between atoms: N_2  and  C_4
REMARK    4  A    between atoms: C_7  and  N_8
REMARK    5  A    between atoms: C_9  and  C_11
REMARK    6  A    between atoms: N_13  and  C_14
REMARK    7  A    between atoms: C_14  and  C_15
REMARK    8  A    between atoms: C_15  and  C_16
REMARK    9  A    between atoms: C_16  and  C_17
REMARK   10  A    between atoms: C_16  and  C_23
REMARK                            x       y       z     vdW  Elec       q    Type
REMARK                         _______ _______ _______ _____ _____    ______ ____
ROOT
ATOM      1  C   UNL     1       0.907  10.634  18.773  0.00  0.00    +0.000 C 
ATOM      2  O   UNL     1       1.578  11.632  18.549  0.00  0.00    +0.000 OA
ATOM      3  N   UNL     1       1.260   9.322  18.548  0.00  0.00    +0.000 N 
ATOM      4  H   UNL     1       0.585   8.625  18.862  0.00  0.00    +0.000 HD
ENDROOT
BRANCH   1   6
ATOM      5  N   UNL     1      -1.363  11.556  18.634  0.00  0.00    +0.000 N 
ATOM      6  C   UNL     1      -0.505  10.762  19.374  0.00  0.00    +0.000 C 
ATOM      7  O   UNL     1      -0.717  10.160  20.420  0.00  0.00    +0.000 OA
ATOM      8  H   UNL     1      -0.964  11.965  17.795  0.00  0.00    +0.000 HD
BRANCH   5  12
ATOM      9  C   UNL     1      -5.486  12.257  19.524  0.00  0.00    +0.000 A 
ATOM     10  C   UNL     1      -4.463  12.794  20.310  0.00  0.00    +0.000 A 
ATOM     11  C   UNL     1      -3.109  12.573  20.031  0.00  0.00    +0.000 A 
ATOM     12  C   UNL     1      -2.715  11.816  18.938  0.00  0.00    +0.000 A 
ATOM     13  C   UNL     1      -3.710  11.290  18.114  0.00  0.00    +0.000 A 
ATOM     14  C   UNL     1      -5.071  11.512  18.405  0.00  0.00    +0.000 A 
BRANCH   9  16
ATOM     15  C   UNL     1      -7.585  13.486  19.086  0.00  0.00    +0.000 C 
ATOM     16  N   UNL     1      -6.833  12.474  19.826  0.00  0.00    +0.000 N 
ATOM     17  C   UNL     1      -7.346  12.106  21.141  0.00  0.00    +0.000 C 
ENDBRANCH   9  16
ENDBRANCH   5  12
ENDBRANCH   1   6
BRANCH   3  18
ATOM     18  C   UNL     1       2.538   8.906  18.020  0.00  0.00    +0.000 C 
BRANCH  18  19
ATOM     19  C   UNL     1       2.486   7.452  17.556  0.00  0.00    +0.000 C 
BRANCH  19  20
ATOM     20  C   UNL     1       3.233   6.472  18.499  0.00  0.00    +0.000 C 
BRANCH  20  21
ATOM     21  C   UNL     1       2.324   5.328  18.931  0.00  0.00    +0.000 A 
ATOM     22  C   UNL     1       1.935   5.175  20.270  0.00  0.00    +0.000 A 
ATOM     23  C   UNL     1       1.230   4.042  20.683  0.00  0.00    +0.000 A 
ATOM     24  C   UNL     1       0.896   3.052  19.762  0.00  0.00    +0.000 A 
ATOM     25  C   UNL     1       1.250   3.202  18.424  0.00  0.00    +0.000 A 
ATOM     26  C   UNL     1       1.954   4.335  18.007  0.00  0.00    +0.000 A 
ENDBRANCH  20  21
BRANCH  20  27
ATOM     27  C   UNL     1       4.577   6.017  17.924  0.00  0.00    +0.000 A 
ATOM     28  C   UNL     1       4.847   6.195  16.557  0.00  0.00    +0.000 A 
ATOM     29  C   UNL     1       6.009   5.672  15.981  0.00  0.00    +0.000 A 
ATOM     30  C   UNL     1       6.926   4.973  16.762  0.00  0.00    +0.000 A 
ATOM     31  C   UNL     1       6.701   4.832  18.127  0.00  0.00    +0.000 A 
ATOM     32  C   UNL     1       5.545   5.361  18.705  0.00  0.00    +0.000 A 
ENDBRANCH  20  27
ENDBRANCH  19  20
ENDBRANCH  18  19
ENDBRANCH   3  18
TORSDOF 8
ENDMDL
MODEL 8
REMARK VINA RESULT:      -8.2      1.167      1.492
REMARK  Name = 
REMARK  10 active torsions:
REMARK  status: ('A' for Active; 'I' for Inactive)
REMARK    1  A    between atoms: C_1  and  N_2
REMARK    2  A    between atoms: N_2  and  C_3
REMARK    3  A    between atoms: N_2  and  C_4
REMARK    4  A    between atoms: C_7  and  N_8
REMARK    5  A    between atoms: C_9  and  C_11
REMARK    6  A    between atoms: N_13  and  C_14
REMARK    7  A    between atoms: C_14  and  C_15
REMARK    8  A    between atoms: C_15  and  C_16
REMARK    9  A    between atoms: C_16  and  C_17
REMARK   10  A    between atoms: C_16  and  C_23
REMARK                            x       y       z     vdW  Elec       q    Type
REMARK                         _______ _______ _______ _____ _____    ______ ____
ROOT
ATOM      1  C   UNL     1       1.018  10.352  18.601  0.00  0.00    +0.000 C 
ATOM      2  O   UNL     1       1.805  11.263  18.385  0.00  0.00    +0.000 OA
ATOM      3  N   UNL     1       1.190   9.015  18.323  0.00  0.00    +0.000 N 
ATOM      4  H   UNL     1       0.442   8.400  18.639  0.00  0.00    +0.000 HD
ENDROOT
BRANCH   1   6
ATOM      5  N   UNL     1      -0.267  11.393  20.415  0.00  0.00    +0.000 N 
ATOM      6  C   UNL     1      -0.345  10.640  19.258  0.00  0.00    +0.000 C 
ATOM      7  O   UNL     1      -1.335  10.182  18.698  0.00  0.00    +0.000 OA
ATOM      8  H   UNL     1       0.672  11.658  20.700  0.00  0.00    +0.000 HD
BRANCH   5  12
ATOM      9  C   UNL     1      -3.518  12.713  22.857  0.00  0.00    +0.000 A 
ATOM     10  C   UNL     1      -3.476  12.976  21.485  0.00  0.00    +0.000 A 
ATOM     11  C   UNL     1      -2.418  12.550  20.672  0.00  0.00    +0.000 A 
ATOM     12  C   UNL     1      -1.358  11.823  21.195  0.00  0.00    +0.000 A 
ATOM     13  C   UNL     1      -1.384  11.516  22.556  0.00  0.00    +0.000 A 
ATOM     14  C   UNL     1      -2.450  11.955  23.368  0.00  0.00    +0.000 A 
BRANCH   9  16
ATOM     15  C   UNL     1      -4.869  14.589  23.732  0.00  0.00    +0.000 C 
ATOM     16  N   UNL     1      -4.575  13.160  23.656  0.00  0.00    +0.000 N 
ATOM     17  C   UNL     1      -5.038  12.334  24.765  0.00  0.00    +0.000 C 
ENDBRANCH   9  16
ENDBRANCH   5  12
ENDBRANCH   1   6
BRANCH   3  18
ATOM     18  C   UNL     1       2.386   8.457  17.735  0.00  0.00    +0.000 C 
BRANCH  18  19
ATOM     19  C   UNL     1       2.950   7.340  18.611  0.00  0.00    +0.000 C 
BRANCH  19  20
ATOM     20  C   UNL     1       2.834   5.932  17.971  0.00  0.00    +0.000 C 
BRANCH  20  21
ATOM     21  C   UNL     1       4.165   5.494  17.368  0.00  0.00    +0.000 A 
ATOM     22  C   UNL     1       4.268   4.316  16.612  0.00  0.00    +0.000 A 
ATOM     23  C   UNL     1       5.514   3.844  16.194  0.00  0.00    +0.000 A 
ATOM     24  C   UNL     1       6.673   4.548  16.516  0.00  0.00    +0.000 A 
ATOM     25  C   UNL     1       6.584   5.734  17.241  0.00  0.00    +0.000 A 
ATOM     26  C   UNL     1       5.339   6.209  17.659  0.00  0.00    +0.000 A 
ENDBRANCH  20  21
BRANCH  20  27
ATOM     27  C   UNL     1       2.214   4.905  18.921  0.00  0.00    +0.000 A 
ATOM     28  C   UNL     1       2.514   4.954  20.293  0.00  0.00    +0.000 A 
ATOM     29  C   UNL     1       2.067   3.953  21.161  0.00  0.00    +0.000 A 
ATOM     30  C   UNL     1       1.304   2.893  20.676  0.00  0.00    +0.000 A 
ATOM     31  C   UNL     1       0.953   2.856  19.331  0.00  0.00    +0.000 A 
ATOM     32  C   UNL     1       1.392   3.859  18.465  0.00  0.00    +0.000 A 
ENDBRANCH  20  27
ENDBRANCH  19  20
ENDBRANCH  18  19
ENDBRANCH   3  18
TORSDOF 8
ENDMDL
MODEL 9
REMARK VINA RESULT:      -8.2      3.292      5.979
REMARK  Name = 
REMARK  10 active torsions:
REMARK  status: ('A' for Active; 'I' for Inactive)
REMARK    1  A    between atoms: C_1  and  N_2
REMARK    2  A    between atoms: N_2  and  C_3
REMARK    3  A    between atoms: N_2  and  C_4
REMARK    4  A    between atoms: C_7  and  N_8
REMARK    5  A    between atoms: C_9  and  C_11
REMARK    6  A    between atoms: N_13  and  C_14
REMARK    7  A    between atoms: C_14  and  C_15
REMARK    8  A    between atoms: C_15  and  C_16
REMARK    9  A    between atoms: C_16  and  C_17
REMARK   10  A    between atoms: C_16  and  C_23
REMARK                            x       y       z     vdW  Elec       q    Type
REMARK                         _______ _______ _______ _____ _____    ______ ____
ROOT
ATOM      1  C   UNL     1       2.849   4.101  19.457  0.00  0.00    +0.000 C 
ATOM      2  O   UNL     1       2.863   3.046  20.077  0.00  0.00    +0.000 OA
ATOM      3  N   UNL     1       3.496   4.385  18.275  0.00  0.00    +0.000 N 
ATOM      4  H   UNL     1       3.308   5.305  17.881  0.00  0.00    +0.000 HD
ENDROOT
BRANCH   1   6
ATOM      5  N   UNL     1       2.451   6.522  19.473  0.00  0.00    +0.000 N 
ATOM      6  C   UNL     1       2.043   5.303  19.982  0.00  0.00    +0.000 C 
ATOM      7  O   UNL     1       1.144   5.059  20.779  0.00  0.00    +0.000 OA
ATOM      8  H   UNL     1       3.232   6.484  18.825  0.00  0.00    +0.000 HD
BRANCH   5  12
ATOM      9  C   UNL     1       0.644  10.317  20.258  0.00  0.00    +0.000 A 
ATOM     10  C   UNL     1       0.834   9.371  21.269  0.00  0.00    +0.000 A 
ATOM     11  C   UNL     1       1.424   8.124  21.027  0.00  0.00    +0.000 A 
ATOM     12  C   UNL     1       1.869   7.773  19.760  0.00  0.00    +0.000 A 
ATOM     13  C   UNL     1       1.723   8.707  18.734  0.00  0.00    +0.000 A 
ATOM     14  C   UNL     1       1.122   9.957  18.985  0.00  0.00    +0.000 A 
BRANCH   9  16
ATOM     15  C   UNL     1      -1.297  11.823  19.985  0.00  0.00    +0.000 C 
ATOM     16  N   UNL     1       0.039  11.551  20.513  0.00  0.00    +0.000 N 
ATOM     17  C   UNL     1       0.867  12.707  20.834  0.00  0.00    +0.000 C 
ENDBRANCH   9  16
ENDBRANCH   5  12
ENDBRANCH   1   6
BRANCH   3  18
ATOM     18  C   UNL     1       4.299   3.433  17.542  0.00  0.00    +0.000 C 
BRANCH  18  19
ATOM     19  C   UNL     1       4.653   3.975  16.159  0.00  0.00    +0.000 C 
BRANCH  19  20
ATOM     20  C   UNL     1       6.180   4.061  15.898  0.00  0.00    +0.000 C 
BRANCH  20  21
ATOM     21  C   UNL     1       6.471   4.250  14.413  0.00  0.00    +0.000 A 
ATOM     22  C   UNL     1       5.801   3.495  13.439  0.00  0.00    +0.000 A 
ATOM     23  C   UNL     1       6.182   3.564  12.097  0.00  0.00    +0.000 A 
ATOM     24  C   UNL     1       7.230   4.396  11.709  0.00  0.00    +0.000 A 
ATOM     25  C   UNL     1       7.886   5.173  12.660  0.00  0.00    +0.000 A 
ATOM     26  C   UNL     1       7.506   5.108  14.003  0.00  0.00    +0.000 A 
ENDBRANCH  20  21
BRANCH  20  27
ATOM     27  C   UNL     1       6.872   5.083  16.803  0.00  0.00    +0.000 A 
ATOM     28  C   UNL     1       7.642   4.641  17.892  0.00  0.00    +0.000 A 
ATOM     29  C   UNL     1       8.176   5.551  18.810  0.00  0.00    +0.000 A 
ATOM     30  C   UNL     1       7.961   6.917  18.648  0.00  0.00    +0.000 A 
ATOM     31  C   UNL     1       7.246   7.377  17.548  0.00  0.00    +0.000 A 
ATOM     32  C   UNL     1       6.719   6.469  16.627  0.00  0.00    +0.000 A 
ENDBRANCH  20  27
ENDBRANCH  19  20
ENDBRANCH  18  19
ENDBRANCH   3  18
TORSDOF 8
ENDMDL
