MODEL 1
REMARK VINA RESULT:      -7.4      0.000      0.000
REMARK  Name = 
REMARK  7 active torsions:
REMARK  status: ('A' for Active; 'I' for Inactive)
REMARK    1  A    between atoms: C_1  and  C_2
REMARK    2  A    between atoms: C_5  and  N_6
REMARK    3  A    between atoms: N_6  and  C_7
REMARK    4  A    between atoms: C_7  and  N_9
REMARK    5  A    between atoms: C_13  and  C_15
REMARK    6  A    between atoms: C_15  and  C_16
REMARK    7  A    between atoms: C_23  and  C_24
REMARK                            x       y       z     vdW  Elec       q    Type
REMARK                         _______ _______ _______ _____ _____    ______ ____
ROOT
ATOM      1  N   UNL     1       3.692   5.047  18.908  0.00  0.00    +0.000 N 
ATOM      2  C   UNL     1       3.567   4.900  17.445  0.00  0.00    +0.000 C 
ATOM      3  C   UNL     1       4.622   5.737  16.719  0.00  0.00    +0.000 C 
ATOM      4  N   UNL     1       5.954   5.374  17.198  0.00  0.00    +0.000 N 
ATOM      5  C   UNL     1       6.785   4.438  16.585  0.00  0.00    +0.000 C 
ATOM      6  O   UNL     1       7.883   4.143  17.050  0.00  0.00    +0.000 OA
ATOM      7  C   UNL     1       6.138   5.650  18.628  0.00  0.00    +0.000 C 
ATOM      8  C   UNL     1       5.073   4.891  19.472  0.00  0.00    +0.000 C 
ATOM      9  C   UNL     1       5.413   3.398  19.579  0.00  0.00    +0.000 C 
ENDROOT
BRANCH   1  10
ATOM     10  C   UNL     1       2.541   5.146  19.703  0.00  0.00    +0.000 C 
ATOM     11  S   UNL     1       1.373   3.946  19.774  0.00  0.00    +0.000 S 
BRANCH  10  12
ATOM     12  N   UNL     1       2.484   6.368  20.358  0.00  0.00    +0.000 N 
ATOM     13  H   UNL     1       3.072   6.394  21.181  0.00  0.00    +0.000 HD
BRANCH  12  18
ATOM     14  C   UNL     1       0.242  11.371  18.739  0.00  0.00    +0.000 C 
ATOM     15  C   UNL     1       0.845  10.059  19.142  0.00  0.00    +0.000 A 
ATOM     16  C   UNL     1       1.583   9.296  18.231  0.00  0.00    +0.000 A 
ATOM     17  C   UNL     1       2.157   8.080  18.620  0.00  0.00    +0.000 A 
ATOM     18  C   UNL     1       1.995   7.614  19.926  0.00  0.00    +0.000 A 
ATOM     19  C   UNL     1       1.229   8.356  20.826  0.00  0.00    +0.000 A 
ATOM     20  C   UNL     1       0.671   9.579  20.442  0.00  0.00    +0.000 A 
ENDBRANCH  12  18
ENDBRANCH  10  12
ENDBRANCH   1  10
BRANCH   5  21
ATOM     21  C   UNL     1       6.218   3.763  15.338  0.00  0.00    +0.000 C 
BRANCH  21  22
ATOM     22  C   UNL     1       5.735   4.699  14.214  0.00  0.00    +0.000 C 
ATOM     23  C   UNL     1       6.829   5.602  13.621  0.00  0.00    +0.000 C 
ATOM     24  C   UNL     1       7.891   4.830  12.846  0.00  0.00    +0.000 C 
ATOM     25  C   UNL     1       7.283   3.960  11.752  0.00  0.00    +0.000 C 
ATOM     26  C   UNL     1       6.123   3.097  12.240  0.00  0.00    +0.000 C 
ATOM     27  C   UNL     1       5.102   3.873  13.077  0.00  0.00    +0.000 C 
ENDBRANCH  21  22
ENDBRANCH   5  21
TORSDOF 5
ENDMDL
MODEL 2
REMARK VINA RESULT:      -7.4      1.420      2.119
REMARK  Name = 
REMARK  7 active torsions:
REMARK  status: ('A' for Active; 'I' for Inactive)
REMARK    1  A    between atoms: C_1  and  C_2
REMARK    2  A    between atoms: C_5  and  N_6
REMARK    3  A    between atoms: N_6  and  C_7
REMARK    4  A    between atoms: C_7  and  N_9
REMARK    5  A    between atoms: C_13  and  C_15
REMARK    6  A    between atoms: C_15  and  C_16
REMARK    7  A    between atoms: C_23  and  C_24
REMARK                            x       y       z     vdW  Elec       q    Type
REMARK                         _______ _______ _______ _____ _____    ______ ____
ROOT
ATOM      1  N   UNL     1       4.745   4.786  17.914  0.00  0.00    +0.000 N 
ATOM      2  C   UNL     1       4.296   4.132  16.671  0.00  0.00    +0.000 C 
ATOM      3  C   UNL     1       4.426   5.078  15.477  0.00  0.00    +0.000 C 
ATOM      4  N   UNL     1       5.802   5.561  15.379  0.00  0.00    +0.000 N 
ATOM      5  C   UNL     1       6.786   4.984  14.579  0.00  0.00    +0.000 C 
ATOM      6  O   UNL     1       7.939   5.409  14.560  0.00  0.00    +0.000 OA
ATOM      7  C   UNL     1       6.215   6.339  16.553  0.00  0.00    +0.000 C 
ATOM      8  C   UNL     1       6.068   5.490  17.850  0.00  0.00    +0.000 C 
ATOM      9  C   UNL     1       7.199   4.458  17.967  0.00  0.00    +0.000 C 
ENDROOT
BRANCH   1  10
ATOM     10  C   UNL     1       4.037   4.585  19.108  0.00  0.00    +0.000 C 
ATOM     11  S   UNL     1       3.501   3.079  19.611  0.00  0.00    +0.000 S 
BRANCH  10  12
ATOM     12  N   UNL     1       3.803   5.786  19.764  0.00  0.00    +0.000 N 
ATOM     13  H   UNL     1       4.541   6.022  20.414  0.00  0.00    +0.000 HD
BRANCH  12  18
ATOM     14  C   UNL     1       0.339  10.138  18.444  0.00  0.00    +0.000 C 
ATOM     15  C   UNL     1       1.234   8.993  18.812  0.00  0.00    +0.000 A 
ATOM     16  C   UNL     1       1.212   8.448  20.100  0.00  0.00    +0.000 A 
ATOM     17  C   UNL     1       2.039   7.368  20.431  0.00  0.00    +0.000 A 
ATOM     18  C   UNL     1       2.898   6.823  19.475  0.00  0.00    +0.000 A 
ATOM     19  C   UNL     1       2.946   7.388  18.199  0.00  0.00    +0.000 A 
ATOM     20  C   UNL     1       2.108   8.455  17.864  0.00  0.00    +0.000 A 
ENDBRANCH  12  18
ENDBRANCH  10  12
ENDBRANCH   1  10
BRANCH   5  21
ATOM     21  C   UNL     1       6.354   3.759  13.777  0.00  0.00    +0.000 C 
BRANCH  21  22
ATOM     22  C   UNL     1       6.051   3.991  12.285  0.00  0.00    +0.000 C 
ATOM     23  C   UNL     1       7.279   3.920  11.364  0.00  0.00    +0.000 C 
ATOM     24  C   UNL     1       7.879   2.522  11.267  0.00  0.00    +0.000 C 
ATOM     25  C   UNL     1       6.847   1.484  10.841  0.00  0.00    +0.000 C 
ATOM     26  C   UNL     1       5.554   1.549  11.649  0.00  0.00    +0.000 C 
ATOM     27  C   UNL     1       5.003   2.970  11.796  0.00  0.00    +0.000 C 
ENDBRANCH  21  22
ENDBRANCH   5  21
TORSDOF 5
ENDMDL
MODEL 3
REMARK VINA RESULT:      -7.1      3.050      6.878
REMARK  Name = 
REMARK  7 active torsions:
REMARK  status: ('A' for Active; 'I' for Inactive)
REMARK    1  A    between atoms: C_1  and  C_2
REMARK    2  A    between atoms: C_5  and  N_6
REMARK    3  A    between atoms: N_6  and  C_7
REMARK    4  A    between atoms: C_7  and  N_9
REMARK    5  A    between atoms: C_13  and  C_15
REMARK    6  A    between atoms: C_15  and  C_16
REMARK    7  A    between atoms: C_23  and  C_24
REMARK                            x       y       z     vdW  Elec       q    Type
REMARK                         _______ _______ _______ _____ _____    ______ ____
ROOT
ATOM      1  N   UNL     1       4.214   3.750  17.411  0.00  0.00    +0.000 N 
ATOM      2  C   UNL     1       3.216   4.837  17.408  0.00  0.00    +0.000 C 
ATOM      3  C   UNL     1       1.798   4.276  17.523  0.00  0.00    +0.000 C 
ATOM      4  N   UNL     1       1.696   3.438  18.715  0.00  0.00    +0.000 N 
ATOM      5  C   UNL     1       1.242   3.881  19.956  0.00  0.00    +0.000 C 
ATOM      6  O   UNL     1       1.209   3.142  20.937  0.00  0.00    +0.000 OA
ATOM      7  C   UNL     1       2.584   2.270  18.666  0.00  0.00    +0.000 C 
ATOM      8  C   UNL     1       4.064   2.718  18.489  0.00  0.00    +0.000 C 
ATOM      9  C   UNL     1       4.637   3.268  19.803  0.00  0.00    +0.000 C 
ENDROOT
BRANCH   1  10
ATOM     10  C   UNL     1       5.324   3.815  16.556  0.00  0.00    +0.000 C 
ATOM     11  S   UNL     1       5.234   3.487  14.915  0.00  0.00    +0.000 S 
BRANCH  10  12
ATOM     12  N   UNL     1       6.482   4.126  17.255  0.00  0.00    +0.000 N 
ATOM     13  H   UNL     1       7.130   3.351  17.295  0.00  0.00    +0.000 HD
BRANCH  12  18
ATOM     14  C   UNL     1       8.694   9.230  18.570  0.00  0.00    +0.000 C 
ATOM     15  C   UNL     1       8.119   7.884  18.250  0.00  0.00    +0.000 A 
ATOM     16  C   UNL     1       8.323   6.792  19.101  0.00  0.00    +0.000 A 
ATOM     17  C   UNL     1       7.769   5.542  18.803  0.00  0.00    +0.000 A 
ATOM     18  C   UNL     1       7.005   5.371  17.647  0.00  0.00    +0.000 A 
ATOM     19  C   UNL     1       6.831   6.450  16.778  0.00  0.00    +0.000 A 
ATOM     20  C   UNL     1       7.369   7.703  17.085  0.00  0.00    +0.000 A 
ENDBRANCH  12  18
ENDBRANCH  10  12
ENDBRANCH   1  10
BRANCH   5  21
ATOM     21  C   UNL     1       0.848   5.355  20.030  0.00  0.00    +0.000 C 
BRANCH  21  22
ATOM     22  C   UNL     1       1.896   6.313  20.625  0.00  0.00    +0.000 C 
ATOM     23  C   UNL     1       2.792   7.006  19.586  0.00  0.00    +0.000 C 
ATOM     24  C   UNL     1       2.037   7.998  18.707  0.00  0.00    +0.000 C 
ATOM     25  C   UNL     1       1.291   9.041  19.531  0.00  0.00    +0.000 C 
ATOM     26  C   UNL     1       0.447   8.438  20.650  0.00  0.00    +0.000 C 
ATOM     27  C   UNL     1       1.199   7.392  21.479  0.00  0.00    +0.000 C 
ENDBRANCH  21  22
ENDBRANCH   5  21
TORSDOF 5
ENDMDL
MODEL 4
REMARK VINA RESULT:      -6.9      1.602      2.327
REMARK  Name = 
REMARK  7 active torsions:
REMARK  status: ('A' for Active; 'I' for Inactive)
REMARK    1  A    between atoms: C_1  and  C_2
REMARK    2  A    between atoms: C_5  and  N_6
REMARK    3  A    between atoms: N_6  and  C_7
REMARK    4  A    between atoms: C_7  and  N_9
REMARK    5  A    between atoms: C_13  and  C_15
REMARK    6  A    between atoms: C_15  and  C_16
REMARK    7  A    between atoms: C_23  and  C_24
REMARK                            x       y       z     vdW  Elec       q    Type
REMARK                         _______ _______ _______ _____ _____    ______ ____
ROOT
ATOM      1  N   UNL     1       4.723   4.310  17.770  0.00  0.00    +0.000 N 
ATOM      2  C   UNL     1       4.496   3.593  16.500  0.00  0.00    +0.000 C 
ATOM      3  C   UNL     1       4.486   4.564  15.319  0.00  0.00    +0.000 C 
ATOM      4  N   UNL     1       5.729   5.333  15.303  0.00  0.00    +0.000 N 
ATOM      5  C   UNL     1       6.857   4.993  14.559  0.00  0.00    +0.000 C 
ATOM      6  O   UNL     1       7.891   5.656  14.609  0.00  0.00    +0.000 OA
ATOM      7  C   UNL     1       5.897   6.163  16.501  0.00  0.00    +0.000 C 
ATOM      8  C   UNL     1       5.865   5.283  17.784  0.00  0.00    +0.000 C 
ATOM      9  C   UNL     1       7.183   4.517  17.964  0.00  0.00    +0.000 C 
ENDROOT
BRANCH   1  10
ATOM     10  C   UNL     1       4.009   3.943  18.919  0.00  0.00    +0.000 C 
ATOM     11  S   UNL     1       4.584   2.838  20.040  0.00  0.00    +0.000 S 
BRANCH  10  12
ATOM     12  N   UNL     1       2.769   4.566  18.963  0.00  0.00    +0.000 N 
ATOM     13  H   UNL     1       2.008   3.908  19.063  0.00  0.00    +0.000 HD
BRANCH  12  18
ATOM     14  C   UNL     1       1.158   9.960  19.959  0.00  0.00    +0.000 C 
ATOM     15  C   UNL     1       1.593   8.553  19.676  0.00  0.00    +0.000 A 
ATOM     16  C   UNL     1       2.114   8.198  18.427  0.00  0.00    +0.000 A 
ATOM     17  C   UNL     1       2.533   6.887  18.177  0.00  0.00    +0.000 A 
ATOM     18  C   UNL     1       2.433   5.915  19.174  0.00  0.00    +0.000 A 
ATOM     19  C   UNL     1       1.880   6.259  20.409  0.00  0.00    +0.000 A 
ATOM     20  C   UNL     1       1.478   7.573  20.665  0.00  0.00    +0.000 A 
ENDBRANCH  12  18
ENDBRANCH  10  12
ENDBRANCH   1  10
BRANCH   5  21
ATOM     21  C   UNL     1       6.746   3.716  13.730  0.00  0.00    +0.000 C 
BRANCH  21  22
ATOM     22  C   UNL     1       6.806   3.887  12.201  0.00  0.00    +0.000 C 
ATOM     23  C   UNL     1       7.289   2.644  11.437  0.00  0.00    +0.000 C 
ATOM     24  C   UNL     1       6.308   1.478  11.504  0.00  0.00    +0.000 C 
ATOM     25  C   UNL     1       4.914   1.873  11.031  0.00  0.00    +0.000 C 
ATOM     26  C   UNL     1       4.398   3.156  11.675  0.00  0.00    +0.000 C 
ATOM     27  C   UNL     1       5.420   4.296  11.661  0.00  0.00    +0.000 C 
ENDBRANCH  21  22
ENDBRANCH   5  21
TORSDOF 5
ENDMDL
MODEL 5
REMARK VINA RESULT:      -6.9      4.631      9.346
REMARK  Name = 
REMARK  7 active torsions:
REMARK  status: ('A' for Active; 'I' for Inactive)
REMARK    1  A    between atoms: C_1  and  C_2
REMARK    2  A    between atoms: C_5  and  N_6
REMARK    3  A    between atoms: N_6  and  C_7
REMARK    4  A    between atoms: C_7  and  N_9
REMARK    5  A    between atoms: C_13  and  C_15
REMARK    6  A    between atoms: C_15  and  C_16
REMARK    7  A    between atoms: C_23  and  C_24
REMARK                            x       y       z     vdW  Elec       q    Type
REMARK                         _______ _______ _______ _____ _____    ______ ____
ROOT
ATOM      1  N   UNL     1       1.276   8.727  20.119  0.00  0.00    +0.000 N 
ATOM      2  C   UNL     1       0.803   9.956  19.456  0.00  0.00    +0.000 C 
ATOM      3  C   UNL     1      -0.664  10.229  19.792  0.00  0.00    +0.000 C 
ATOM      4  N   UNL     1      -0.834  10.285  21.242  0.00  0.00    +0.000 N 
ATOM      5  C   UNL     1      -0.810  11.457  21.996  0.00  0.00    +0.000 C 
ATOM      6  O   UNL     1      -0.923  11.445  23.219  0.00  0.00    +0.000 OA
ATOM      7  C   UNL     1      -0.501   9.016  21.902  0.00  0.00    +0.000 C 
ATOM      8  C   UNL     1       0.964   8.602  21.581  0.00  0.00    +0.000 C 
ATOM      9  C   UNL     1       1.966   9.440  22.388  0.00  0.00    +0.000 C 
ENDROOT
BRANCH   1  10
ATOM     10  C   UNL     1       2.118   7.840  19.433  0.00  0.00    +0.000 C 
ATOM     11  S   UNL     1       2.645   8.107  17.864  0.00  0.00    +0.000 S 
BRANCH  10  12
ATOM     12  N   UNL     1       2.397   6.715  20.198  0.00  0.00    +0.000 N 
ATOM     13  H   UNL     1       2.182   6.850  21.177  0.00  0.00    +0.000 HD
BRANCH  12  18
ATOM     14  C   UNL     1       3.610   1.412  18.444  0.00  0.00    +0.000 C 
ATOM     15  C   UNL     1       3.267   2.795  18.908  0.00  0.00    +0.000 A 
ATOM     16  C   UNL     1       1.935   3.194  19.061  0.00  0.00    +0.000 A 
ATOM     17  C   UNL     1       1.624   4.482  19.511  0.00  0.00    +0.000 A 
ATOM     18  C   UNL     1       2.644   5.386  19.811  0.00  0.00    +0.000 A 
ATOM     19  C   UNL     1       3.973   5.002  19.625  0.00  0.00    +0.000 A 
ATOM     20  C   UNL     1       4.284   3.709  19.193  0.00  0.00    +0.000 A 
ENDBRANCH  12  18
ENDBRANCH  10  12
ENDBRANCH   1  10
BRANCH   5  21
ATOM     21  C   UNL     1      -0.574  12.745  21.210  0.00  0.00    +0.000 C 
BRANCH  21  22
ATOM     22  C   UNL     1       0.708  13.528  21.550  0.00  0.00    +0.000 C 
ATOM     23  C   UNL     1       1.926  13.165  20.685  0.00  0.00    +0.000 C 
ATOM     24  C   UNL     1       1.774  13.584  19.227  0.00  0.00    +0.000 C 
ATOM     25  C   UNL     1       1.458  15.068  19.086  0.00  0.00    +0.000 C 
ATOM     26  C   UNL     1       0.316  15.531  19.986  0.00  0.00    +0.000 C 
ATOM     27  C   UNL     1       0.448  15.043  21.432  0.00  0.00    +0.000 C 
ENDBRANCH  21  22
ENDBRANCH   5  21
TORSDOF 5
ENDMDL
MODEL 6
REMARK VINA RESULT:      -6.8      3.945      5.956
REMARK  Name = 
REMARK  7 active torsions:
REMARK  status: ('A' for Active; 'I' for Inactive)
REMARK    1  A    between atoms: C_1  and  C_2
REMARK    2  A    between atoms: C_5  and  N_6
REMARK    3  A    between atoms: N_6  and  C_7
REMARK    4  A    between atoms: C_7  and  N_9
REMARK    5  A    between atoms: C_13  and  C_15
REMARK    6  A    between atoms: C_15  and  C_16
REMARK    7  A    between atoms: C_23  and  C_24
REMARK                            x       y       z     vdW  Elec       q    Type
REMARK                         _______ _______ _______ _____ _____    ______ ____
ROOT
ATOM      1  N   UNL     1       1.087   9.464  19.488  0.00  0.00    +0.000 N 
ATOM      2  C   UNL     1       1.531   8.578  18.395  0.00  0.00    +0.000 C 
ATOM      3  C   UNL     1       2.741   7.746  18.824  0.00  0.00    +0.000 C 
ATOM      4  N   UNL     1       2.422   7.003  20.041  0.00  0.00    +0.000 N 
ATOM      5  C   UNL     1       1.956   5.691  20.065  0.00  0.00    +0.000 C 
ATOM      6  O   UNL     1       1.669   5.123  21.116  0.00  0.00    +0.000 OA
ATOM      7  C   UNL     1       2.117   7.881  21.177  0.00  0.00    +0.000 C 
ATOM      8  C   UNL     1       0.927   8.824  20.835  0.00  0.00    +0.000 C 
ATOM      9  C   UNL     1      -0.409   8.070  20.884  0.00  0.00    +0.000 C 
ENDROOT
BRANCH   1  10
ATOM     10  C   UNL     1       0.677  10.775  19.203  0.00  0.00    +0.000 C 
ATOM     11  S   UNL     1       1.095  12.091  20.153  0.00  0.00    +0.000 S 
BRANCH  10  12
ATOM     12  N   UNL     1      -0.149  10.813  18.087  0.00  0.00    +0.000 N 
ATOM     13  H   UNL     1       0.339  10.569  17.237  0.00  0.00    +0.000 HD
BRANCH  12  18
ATOM     14  C   UNL     1      -5.860  11.014  17.982  0.00  0.00    +0.000 C 
ATOM     15  C   UNL     1      -4.363  10.945  17.989  0.00  0.00    +0.000 A 
ATOM     16  C   UNL     1      -3.684   9.960  17.263  0.00  0.00    +0.000 A 
ATOM     17  C   UNL     1      -2.286   9.913  17.262  0.00  0.00    +0.000 A 
ATOM     18  C   UNL     1      -1.551  10.851  17.990  0.00  0.00    +0.000 A 
ATOM     19  C   UNL     1      -2.227  11.812  18.744  0.00  0.00    +0.000 A 
ATOM     20  C   UNL     1      -3.624  11.870  18.730  0.00  0.00    +0.000 A 
ENDBRANCH  12  18
ENDBRANCH  10  12
ENDBRANCH   1  10
BRANCH   5  21
ATOM     21  C   UNL     1       1.770   5.027  18.702  0.00  0.00    +0.000 C 
BRANCH  21  22
ATOM     22  C   UNL     1       3.052   4.567  17.985  0.00  0.00    +0.000 C 
ATOM     23  C   UNL     1       4.178   4.104  18.924  0.00  0.00    +0.000 C 
ATOM     24  C   UNL     1       3.848   2.815  19.668  0.00  0.00    +0.000 C 
ATOM     25  C   UNL     1       3.464   1.686  18.718  0.00  0.00    +0.000 C 
ATOM     26  C   UNL     1       2.414   2.094  17.689  0.00  0.00    +0.000 C 
ATOM     27  C   UNL     1       2.725   3.426  17.001  0.00  0.00    +0.000 C 
ENDBRANCH  21  22
ENDBRANCH   5  21
TORSDOF 5
ENDMDL
MODEL 7
REMARK VINA RESULT:      -6.7      2.182      2.989
REMARK  Name = 
REMARK  7 active torsions:
REMARK  status: ('A' for Active; 'I' for Inactive)
REMARK    1  A    between atoms: C_1  and  C_2
REMARK    2  A    between atoms: C_5  and  N_6
REMARK    3  A    between atoms: N_6  and  C_7
REMARK    4  A    between atoms: C_7  and  N_9
REMARK    5  A    between atoms: C_13  and  C_15
REMARK    6  A    between atoms: C_15  and  C_16
REMARK    7  A    between atoms: C_23  and  C_24
REMARK                            x       y       z     vdW  Elec       q    Type
REMARK                         _______ _______ _______ _____ _____    ______ ____
ROOT
ATOM      1  N   UNL     1       2.776   6.577  18.880  0.00  0.00    +0.000 N 
ATOM      2  C   UNL     1       4.124   6.530  18.284  0.00  0.00    +0.000 C 
ATOM      3  C   UNL     1       4.971   5.435  18.934  0.00  0.00    +0.000 C 
ATOM      4  N   UNL     1       4.279   4.152  18.832  0.00  0.00    +0.000 N 
ATOM      5  C   UNL     1       4.489   3.221  17.817  0.00  0.00    +0.000 C 
ATOM      6  O   UNL     1       3.854   2.170  17.758  0.00  0.00    +0.000 OA
ATOM      7  C   UNL     1       2.996   4.141  19.545  0.00  0.00    +0.000 C 
ATOM      8  C   UNL     1       2.062   5.263  19.005  0.00  0.00    +0.000 C 
ATOM      9  C   UNL     1       1.464   4.878  17.644  0.00  0.00    +0.000 C 
ENDROOT
BRANCH   1  10
ATOM     10  C   UNL     1       2.164   7.813  19.132  0.00  0.00    +0.000 C 
ATOM     11  S   UNL     1       2.003   9.009  17.970  0.00  0.00    +0.000 S 
BRANCH  10  12
ATOM     12  N   UNL     1       1.772   7.919  20.461  0.00  0.00    +0.000 N 
ATOM     13  H   UNL     1       2.335   7.348  21.077  0.00  0.00    +0.000 HD
BRANCH  12  18
ATOM     14  C   UNL     1      -1.662  11.558  23.224  0.00  0.00    +0.000 C 
ATOM     15  C   UNL     1      -0.764  10.619  22.478  0.00  0.00    +0.000 A 
ATOM     16  C   UNL     1      -0.670  10.668  21.083  0.00  0.00    +0.000 A 
ATOM     17  C   UNL     1       0.184   9.798  20.395  0.00  0.00    +0.000 A 
ATOM     18  C   UNL     1       0.951   8.867  21.097  0.00  0.00    +0.000 A 
ATOM     19  C   UNL     1       0.832   8.792  22.486  0.00  0.00    +0.000 A 
ATOM     20  C   UNL     1      -0.007   9.673  23.174  0.00  0.00    +0.000 A 
ENDBRANCH  12  18
ENDBRANCH  10  12
ENDBRANCH   1  10
BRANCH   5  21
ATOM     21  C   UNL     1       5.511   3.616  16.754  0.00  0.00    +0.000 C 
BRANCH  21  22
ATOM     22  C   UNL     1       5.029   4.605  15.677  0.00  0.00    +0.000 C 
ATOM     23  C   UNL     1       5.921   5.846  15.503  0.00  0.00    +0.000 C 
ATOM     24  C   UNL     1       7.295   5.522  14.927  0.00  0.00    +0.000 C 
ATOM     25  C   UNL     1       7.200   4.758  13.611  0.00  0.00    +0.000 C 
ATOM     26  C   UNL     1       6.257   3.561  13.673  0.00  0.00    +0.000 C 
ATOM     27  C   UNL     1       4.907   3.886  14.318  0.00  0.00    +0.000 C 
ENDBRANCH  21  22
ENDBRANCH   5  21
TORSDOF 5
ENDMDL
MODEL 8
REMARK VINA RESULT:      -6.6      4.592     10.247
REMARK  Name = 
REMARK  7 active torsions:
REMARK  status: ('A' for Active; 'I' for Inactive)
REMARK    1  A    between atoms: C_1  and  C_2
REMARK    2  A    between atoms: C_5  and  N_6
REMARK    3  A    between atoms: N_6  and  C_7
REMARK    4  A    between atoms: C_7  and  N_9
REMARK    5  A    between atoms: C_13  and  C_15
REMARK    6  A    between atoms: C_15  and  C_16
REMARK    7  A    between atoms: C_23  and  C_24
REMARK                            x       y       z     vdW  Elec       q    Type
REMARK                         _______ _______ _______ _____ _____    ______ ____
ROOT
ATOM      1  N   UNL     1       1.272   8.728  20.162  0.00  0.00    +0.000 N 
ATOM      2  C   UNL     1       0.881  10.023  19.574  0.00  0.00    +0.000 C 
ATOM      3  C   UNL     1      -0.589  10.333  19.860  0.00  0.00    +0.000 C 
ATOM      4  N   UNL     1      -0.830  10.288  21.300  0.00  0.00    +0.000 N 
ATOM      5  C   UNL     1      -0.798  11.398  22.142  0.00  0.00    +0.000 C 
ATOM      6  O   UNL     1      -0.974  11.299  23.354  0.00  0.00    +0.000 OA
ATOM      7  C   UNL     1      -0.581   8.960  21.875  0.00  0.00    +0.000 C 
ATOM      8  C   UNL     1       0.881   8.508  21.594  0.00  0.00    +0.000 C 
ATOM      9  C   UNL     1       1.873   9.240  22.510  0.00  0.00    +0.000 C 
ENDROOT
BRANCH   1  10
ATOM     10  C   UNL     1       2.112   7.860  19.451  0.00  0.00    +0.000 C 
ATOM     11  S   UNL     1       2.582   8.136  17.866  0.00  0.00    +0.000 S 
BRANCH  10  12
ATOM     12  N   UNL     1       2.441   6.744  20.208  0.00  0.00    +0.000 N 
ATOM     13  H   UNL     1       2.283   6.887  21.197  0.00  0.00    +0.000 HD
BRANCH  12  18
ATOM     14  C   UNL     1       3.564   1.431  18.423  0.00  0.00    +0.000 C 
ATOM     15  C   UNL     1       3.246   2.816  18.899  0.00  0.00    +0.000 A 
ATOM     16  C   UNL     1       1.930   3.194  19.185  0.00  0.00    +0.000 A 
ATOM     17  C   UNL     1       1.643   4.485  19.644  0.00  0.00    +0.000 A 
ATOM     18  C   UNL     1       2.672   5.412  19.820  0.00  0.00    +0.000 A 
ATOM     19  C   UNL     1       3.981   5.048  19.501  0.00  0.00    +0.000 A 
ATOM     20  C   UNL     1       4.270   3.753  19.059  0.00  0.00    +0.000 A 
ENDBRANCH  12  18
ENDBRANCH  10  12
ENDBRANCH   1  10
BRANCH   5  21
ATOM     21  C   UNL     1      -0.472  12.730  21.470  0.00  0.00    +0.000 C 
BRANCH  21  22
ATOM     22  C   UNL     1      -1.657  13.484  20.838  0.00  0.00    +0.000 C 
ATOM     23  C   UNL     1      -2.906  13.575  21.729  0.00  0.00    +0.000 C 
ATOM     24  C   UNL     1      -2.702  14.448  22.962  0.00  0.00    +0.000 C 
ATOM     25  C   UNL     1      -2.217  15.847  22.600  0.00  0.00    +0.000 C 
ATOM     26  C   UNL     1      -1.032  15.846  21.639  0.00  0.00    +0.000 C 
ATOM     27  C   UNL     1      -1.223  14.910  20.442  0.00  0.00    +0.000 C 
ENDBRANCH  21  22
ENDBRANCH   5  21
TORSDOF 5
ENDMDL
MODEL 9
REMARK VINA RESULT:      -6.6      3.415      8.524
REMARK  Name = 
REMARK  7 active torsions:
REMARK  status: ('A' for Active; 'I' for Inactive)
REMARK    1  A    between atoms: C_1  and  C_2
REMARK    2  A    between atoms: C_5  and  N_6
REMARK    3  A    between atoms: N_6  and  C_7
REMARK    4  A    between atoms: C_7  and  N_9
REMARK    5  A    between atoms: C_13  and  C_15
REMARK    6  A    between atoms: C_15  and  C_16
REMARK    7  A    between atoms: C_23  and  C_24
REMARK                            x       y       z     vdW  Elec       q    Type
REMARK                         _______ _______ _______ _____ _____    ______ ____
ROOT
ATOM      1  N   UNL     1       1.696   7.783  20.018  0.00  0.00    +0.000 N 
ATOM      2  C   UNL     1       2.105   8.803  19.035  0.00  0.00    +0.000 C 
ATOM      3  C   UNL     1       0.905   9.632  18.575  0.00  0.00    +0.000 C 
ATOM      4  N   UNL     1       0.239  10.220  19.735  0.00  0.00    +0.000 N 
ATOM      5  C   UNL     1       0.489  11.501  20.223  0.00  0.00    +0.000 C 
ATOM      6  O   UNL     1      -0.074  11.935  21.225  0.00  0.00    +0.000 OA
ATOM      7  C   UNL     1      -0.300   9.209  20.653  0.00  0.00    +0.000 C 
ATOM      8  C   UNL     1       0.831   8.261  21.146  0.00  0.00    +0.000 C 
ATOM      9  C   UNL     1       1.708   8.949  22.203  0.00  0.00    +0.000 C 
ENDROOT
BRANCH   1  10
ATOM     10  C   UNL     1       2.251   6.496  19.965  0.00  0.00    +0.000 C 
ATOM     11  S   UNL     1       1.449   5.130  20.510  0.00  0.00    +0.000 S 
BRANCH  10  12
ATOM     12  N   UNL     1       3.545   6.526  19.461  0.00  0.00    +0.000 N 
ATOM     13  H   UNL     1       4.219   6.845  20.144  0.00  0.00    +0.000 HD
BRANCH  12  18
ATOM     14  C   UNL     1       5.631   4.345  14.606  0.00  0.00    +0.000 C 
ATOM     15  C   UNL     1       5.083   4.893  15.890  0.00  0.00    +0.000 A 
ATOM     16  C   UNL     1       4.537   4.045  16.860  0.00  0.00    +0.000 A 
ATOM     17  C   UNL     1       4.044   4.563  18.062  0.00  0.00    +0.000 A 
ATOM     18  C   UNL     1       4.089   5.937  18.306  0.00  0.00    +0.000 A 
ATOM     19  C   UNL     1       4.601   6.788  17.325  0.00  0.00    +0.000 A 
ATOM     20  C   UNL     1       5.110   6.269  16.131  0.00  0.00    +0.000 A 
ENDBRANCH  12  18
ENDBRANCH  10  12
ENDBRANCH   1  10
BRANCH   5  21
ATOM     21  C   UNL     1       1.546  12.304  19.469  0.00  0.00    +0.000 C 
BRANCH  21  22
ATOM     22  C   UNL     1       1.471  13.836  19.610  0.00  0.00    +0.000 C 
ATOM     23  C   UNL     1       2.106  14.391  20.895  0.00  0.00    +0.000 C 
ATOM     24  C   UNL     1       3.621  14.225  20.937  0.00  0.00    +0.000 C 
ATOM     25  C   UNL     1       4.299  14.834  19.714  0.00  0.00    +0.000 C 
ATOM     26  C   UNL     1       3.665  14.404  18.395  0.00  0.00    +0.000 C 
ATOM     27  C   UNL     1       2.137  14.510  18.393  0.00  0.00    +0.000 C 
ENDBRANCH  21  22
ENDBRANCH   5  21
TORSDOF 5
ENDMDL
