MODEL 1
REMARK VINA RESULT:      -6.9      0.000      0.000
REMARK  Name = 
REMARK  3 active torsions:
REMARK  status: ('A' for Active; 'I' for Inactive)
REMARK    1  A    between atoms: C_1  and  N_2
REMARK    2  A    between atoms: C_4  and  C_5
REMARK    3  A    between atoms: N_12  and  C_13
REMARK                            x       y       z     vdW  Elec       q    Type
REMARK                         _______ _______ _______ _____ _____    ______ ____
ROOT
ATOM      1  C   UNL     1       6.326   3.895  14.768  0.00  0.00    +0.000 C 
ATOM      2  N   UNL     1       6.427   5.102  15.567  0.00  0.00    +0.000 N 
ATOM      3  N   UNL     1       5.433   6.108  15.378  0.00  0.00    +0.000 NA
ATOM      4  C   UNL     1       4.958   6.703  16.626  0.00  0.00    +0.000 C 
ATOM      5  N   UNL     1       6.102   7.156  17.417  0.00  0.00    +0.000 NA
ATOM      6  N   UNL     1       7.110   6.161  17.592  0.00  0.00    +0.000 N 
ATOM      7  C   UNL     1       7.742   6.075  18.896  0.00  0.00    +0.000 C 
ATOM      8  C   UNL     1       7.294   5.106  16.677  0.00  0.00    +0.000 C 
ATOM      9  O   UNL     1       8.080   4.180  16.894  0.00  0.00    +0.000 OA
ATOM     10  H   UNL     1       4.628   5.705  14.902  0.00  0.00    +0.000 HD
ATOM     11  H   UNL     1       5.752   7.449  18.327  0.00  0.00    +0.000 HD
ENDROOT
BRANCH   4  12
ATOM     12  C   UNL     1       3.958   5.839  17.393  0.00  0.00    +0.000 A 
ATOM     13  C   UNL     1       3.645   4.517  17.031  0.00  0.00    +0.000 A 
ATOM     14  C   UNL     1       2.708   3.764  17.741  0.00  0.00    +0.000 A 
ATOM     15  C   UNL     1       2.064   4.318  18.839  0.00  0.00    +0.000 A 
ATOM     16  C   UNL     1       2.362   5.623  19.227  0.00  0.00    +0.000 A 
ATOM     17  C   UNL     1       3.298   6.376  18.513  0.00  0.00    +0.000 A 
ENDBRANCH   4  12
TORSDOF 1
ENDMDL
MODEL 2
REMARK VINA RESULT:      -6.9      1.486      3.035
REMARK  Name = 
REMARK  3 active torsions:
REMARK  status: ('A' for Active; 'I' for Inactive)
REMARK    1  A    between atoms: C_1  and  N_2
REMARK    2  A    between atoms: C_4  and  C_5
REMARK    3  A    between atoms: N_12  and  C_13
REMARK                            x       y       z     vdW  Elec       q    Type
REMARK                         _______ _______ _______ _____ _____    ______ ____
ROOT
ATOM      1  C   UNL     1       7.901   5.853  18.916  0.00  0.00    +0.000 C 
ATOM      2  N   UNL     1       7.065   4.925  18.177  0.00  0.00    +0.000 N 
ATOM      3  N   UNL     1       6.176   4.096  18.922  0.00  0.00    +0.000 NA
ATOM      4  C   UNL     1       4.848   3.973  18.321  0.00  0.00    +0.000 C 
ATOM      5  N   UNL     1       4.983   3.572  16.920  0.00  0.00    +0.000 NA
ATOM      6  N   UNL     1       5.889   4.385  16.174  0.00  0.00    +0.000 N 
ATOM      7  C   UNL     1       5.512   4.728  14.815  0.00  0.00    +0.000 C 
ATOM      8  C   UNL     1       6.947   5.086  16.783  0.00  0.00    +0.000 C 
ATOM      9  O   UNL     1       7.650   5.885  16.157  0.00  0.00    +0.000 OA
ATOM     10  H   UNL     1       6.056   4.480  19.858  0.00  0.00    +0.000 HD
ATOM     11  H   UNL     1       4.058   3.617  16.496  0.00  0.00    +0.000 HD
ENDROOT
BRANCH   4  12
ATOM     12  C   UNL     1       3.940   5.179  18.552  0.00  0.00    +0.000 A 
ATOM     13  C   UNL     1       3.855   6.263  17.658  0.00  0.00    +0.000 A 
ATOM     14  C   UNL     1       3.031   7.361  17.913  0.00  0.00    +0.000 A 
ATOM     15  C   UNL     1       2.264   7.396  19.069  0.00  0.00    +0.000 A 
ATOM     16  C   UNL     1       2.319   6.332  19.967  0.00  0.00    +0.000 A 
ATOM     17  C   UNL     1       3.147   5.235  19.712  0.00  0.00    +0.000 A 
ENDBRANCH   4  12
TORSDOF 1
ENDMDL
MODEL 3
REMARK VINA RESULT:      -6.8      3.077      4.693
REMARK  Name = 
REMARK  3 active torsions:
REMARK  status: ('A' for Active; 'I' for Inactive)
REMARK    1  A    between atoms: C_1  and  N_2
REMARK    2  A    between atoms: C_4  and  C_5
REMARK    3  A    between atoms: N_12  and  C_13
REMARK                            x       y       z     vdW  Elec       q    Type
REMARK                         _______ _______ _______ _____ _____    ______ ____
ROOT
ATOM      1  C   UNL     1       3.337   1.646  18.533  0.00  0.00    +0.000 C 
ATOM      2  N   UNL     1       3.747   2.878  19.182  0.00  0.00    +0.000 N 
ATOM      3  N   UNL     1       5.146   3.137  19.287  0.00  0.00    +0.000 NA
ATOM      4  C   UNL     1       5.507   4.524  18.996  0.00  0.00    +0.000 C 
ATOM      5  N   UNL     1       4.685   5.422  19.807  0.00  0.00    +0.000 NA
ATOM      6  N   UNL     1       3.285   5.154  19.723  0.00  0.00    +0.000 N 
ATOM      7  C   UNL     1       2.390   6.295  19.666  0.00  0.00    +0.000 C 
ATOM      8  C   UNL     1       2.781   3.879  19.402  0.00  0.00    +0.000 C 
ATOM      9  O   UNL     1       1.580   3.680  19.206  0.00  0.00    +0.000 OA
ATOM     10  H   UNL     1       5.653   2.543  18.633  0.00  0.00    +0.000 HD
ATOM     11  H   UNL     1       4.867   6.375  19.496  0.00  0.00    +0.000 HD
ENDROOT
BRANCH   4  12
ATOM     12  C   UNL     1       5.542   4.866  17.508  0.00  0.00    +0.000 A 
ATOM     13  C   UNL     1       5.199   6.132  16.999  0.00  0.00    +0.000 A 
ATOM     14  C   UNL     1       5.220   6.403  15.630  0.00  0.00    +0.000 A 
ATOM     15  C   UNL     1       5.593   5.410  14.734  0.00  0.00    +0.000 A 
ATOM     16  C   UNL     1       5.949   4.149  15.210  0.00  0.00    +0.000 A 
ATOM     17  C   UNL     1       5.924   3.879  16.581  0.00  0.00    +0.000 A 
ENDBRANCH   4  12
TORSDOF 1
ENDMDL
MODEL 4
REMARK VINA RESULT:      -6.8      3.113      4.559
REMARK  Name = 
REMARK  3 active torsions:
REMARK  status: ('A' for Active; 'I' for Inactive)
REMARK    1  A    between atoms: C_1  and  N_2
REMARK    2  A    between atoms: C_4  and  C_5
REMARK    3  A    between atoms: N_12  and  C_13
REMARK                            x       y       z     vdW  Elec       q    Type
REMARK                         _______ _______ _______ _____ _____    ______ ____
ROOT
ATOM      1  C   UNL     1       3.476   1.516  18.584  0.00  0.00    +0.000 C 
ATOM      2  N   UNL     1       3.817   2.772  19.226  0.00  0.00    +0.000 N 
ATOM      3  N   UNL     1       5.200   3.109  19.330  0.00  0.00    +0.000 NA
ATOM      4  C   UNL     1       5.483   4.512  19.031  0.00  0.00    +0.000 C 
ATOM      5  N   UNL     1       4.612   5.368  19.838  0.00  0.00    +0.000 NA
ATOM      6  N   UNL     1       3.230   5.022  19.755  0.00  0.00    +0.000 N 
ATOM      7  C   UNL     1       2.273   6.111  19.692  0.00  0.00    +0.000 C 
ATOM      8  C   UNL     1       2.797   3.719  19.441  0.00  0.00    +0.000 C 
ATOM      9  O   UNL     1       1.609   3.452  19.247  0.00  0.00    +0.000 OA
ATOM     10  H   UNL     1       5.739   2.540  18.679  0.00  0.00    +0.000 HD
ATOM     11  H   UNL     1       4.742   6.327  19.521  0.00  0.00    +0.000 HD
ENDROOT
BRANCH   4  12
ATOM     12  C   UNL     1       5.499   4.847  17.541  0.00  0.00    +0.000 A 
ATOM     13  C   UNL     1       5.853   3.917  16.546  0.00  0.00    +0.000 A 
ATOM     14  C   UNL     1       5.880   4.264  15.194  0.00  0.00    +0.000 A 
ATOM     15  C   UNL     1       5.545   5.554  14.804  0.00  0.00    +0.000 A 
ATOM     16  C   UNL     1       5.179   6.492  15.767  0.00  0.00    +0.000 A 
ATOM     17  C   UNL     1       5.156   6.144  17.120  0.00  0.00    +0.000 A 
ENDBRANCH   4  12
TORSDOF 1
ENDMDL
MODEL 5
REMARK VINA RESULT:      -6.7      1.205      1.810
REMARK  Name = 
REMARK  3 active torsions:
REMARK  status: ('A' for Active; 'I' for Inactive)
REMARK    1  A    between atoms: C_1  and  N_2
REMARK    2  A    between atoms: C_4  and  C_5
REMARK    3  A    between atoms: N_12  and  C_13
REMARK                            x       y       z     vdW  Elec       q    Type
REMARK                         _______ _______ _______ _____ _____    ______ ____
ROOT
ATOM      1  C   UNL     1       6.288   3.794  14.920  0.00  0.00    +0.000 C 
ATOM      2  N   UNL     1       6.110   4.812  15.939  0.00  0.00    +0.000 N 
ATOM      3  N   UNL     1       4.845   5.469  16.004  0.00  0.00    +0.000 NA
ATOM      4  C   UNL     1       4.353   5.656  17.369  0.00  0.00    +0.000 C 
ATOM      5  N   UNL     1       5.389   6.301  18.176  0.00  0.00    +0.000 NA
ATOM      6  N   UNL     1       6.662   5.660  18.098  0.00  0.00    +0.000 N 
ATOM      7  C   UNL     1       7.429   5.550  19.325  0.00  0.00    +0.000 C 
ATOM      8  C   UNL     1       7.052   4.895  16.982  0.00  0.00    +0.000 C 
ATOM      9  O   UNL     1       8.098   4.240  16.970  0.00  0.00    +0.000 OA
ATOM     10  H   UNL     1       4.150   4.923  15.498  0.00  0.00    +0.000 HD
ATOM     11  H   UNL     1       5.069   6.304  19.144  0.00  0.00    +0.000 HD
ENDROOT
BRANCH   4  12
ATOM     12  C   UNL     1       3.748   4.401  17.996  0.00  0.00    +0.000 A 
ATOM     13  C   UNL     1       3.919   4.057  19.349  0.00  0.00    +0.000 A 
ATOM     14  C   UNL     1       3.371   2.889  19.884  0.00  0.00    +0.000 A 
ATOM     15  C   UNL     1       2.631   2.039  19.074  0.00  0.00    +0.000 A 
ATOM     16  C   UNL     1       2.436   2.360  17.732  0.00  0.00    +0.000 A 
ATOM     17  C   UNL     1       2.988   3.528  17.198  0.00  0.00    +0.000 A 
ENDBRANCH   4  12
TORSDOF 1
ENDMDL
MODEL 6
REMARK VINA RESULT:      -6.7      0.891      1.099
REMARK  Name = 
REMARK  3 active torsions:
REMARK  status: ('A' for Active; 'I' for Inactive)
REMARK    1  A    between atoms: C_1  and  N_2
REMARK    2  A    between atoms: C_4  and  C_5
REMARK    3  A    between atoms: N_12  and  C_13
REMARK                            x       y       z     vdW  Elec       q    Type
REMARK                         _______ _______ _______ _____ _____    ______ ____
ROOT
ATOM      1  C   UNL     1       6.549   4.093  14.716  0.00  0.00    +0.000 C 
ATOM      2  N   UNL     1       6.325   5.082  15.754  0.00  0.00    +0.000 N 
ATOM      3  N   UNL     1       5.148   5.883  15.665  0.00  0.00    +0.000 NA
ATOM      4  C   UNL     1       4.470   6.070  16.947  0.00  0.00    +0.000 C 
ATOM      5  N   UNL     1       5.429   6.552  17.940  0.00  0.00    +0.000 NA
ATOM      6  N   UNL     1       6.618   5.768  18.020  0.00  0.00    +0.000 N 
ATOM      7  C   UNL     1       7.164   5.516  19.341  0.00  0.00    +0.000 C 
ATOM      8  C   UNL     1       7.093   5.008  16.933  0.00  0.00    +0.000 C 
ATOM      9  O   UNL     1       8.048   4.235  17.041  0.00  0.00    +0.000 OA
ATOM     10  H   UNL     1       4.486   5.445  15.027  0.00  0.00    +0.000 HD
ATOM     11  H   UNL     1       4.962   6.554  18.846  0.00  0.00    +0.000 HD
ENDROOT
BRANCH   4  12
ATOM     12  C   UNL     1       3.637   4.871  17.398  0.00  0.00    +0.000 A 
ATOM     13  C   UNL     1       4.094   3.543  17.325  0.00  0.00    +0.000 A 
ATOM     14  C   UNL     1       3.297   2.469  17.725  0.00  0.00    +0.000 A 
ATOM     15  C   UNL     1       2.019   2.702  18.215  0.00  0.00    +0.000 A 
ATOM     16  C   UNL     1       1.543   4.008  18.310  0.00  0.00    +0.000 A 
ATOM     17  C   UNL     1       2.342   5.081  17.906  0.00  0.00    +0.000 A 
ENDBRANCH   4  12
TORSDOF 1
ENDMDL
MODEL 7
REMARK VINA RESULT:      -6.7      1.150      1.415
REMARK  Name = 
REMARK  3 active torsions:
REMARK  status: ('A' for Active; 'I' for Inactive)
REMARK    1  A    between atoms: C_1  and  N_2
REMARK    2  A    between atoms: C_4  and  C_5
REMARK    3  A    between atoms: N_12  and  C_13
REMARK                            x       y       z     vdW  Elec       q    Type
REMARK                         _______ _______ _______ _____ _____    ______ ____
ROOT
ATOM      1  C   UNL     1       6.316   3.808  14.903  0.00  0.00    +0.000 C 
ATOM      2  N   UNL     1       6.131   4.827  15.921  0.00  0.00    +0.000 N 
ATOM      3  N   UNL     1       4.872   5.496  15.966  0.00  0.00    +0.000 NA
ATOM      4  C   UNL     1       4.359   5.685  17.323  0.00  0.00    +0.000 C 
ATOM      5  N   UNL     1       5.387   6.319  18.148  0.00  0.00    +0.000 NA
ATOM      6  N   UNL     1       6.654   5.666  18.090  0.00  0.00    +0.000 N 
ATOM      7  C   UNL     1       7.400   5.547  19.330  0.00  0.00    +0.000 C 
ATOM      8  C   UNL     1       7.056   4.899  16.980  0.00  0.00    +0.000 C 
ATOM      9  O   UNL     1       8.096   4.235  16.984  0.00  0.00    +0.000 OA
ATOM     10  H   UNL     1       4.180   4.957  15.447  0.00  0.00    +0.000 HD
ATOM     11  H   UNL     1       5.051   6.324  19.110  0.00  0.00    +0.000 HD
ENDROOT
BRANCH   4  12
ATOM     12  C   UNL     1       3.732   4.435  17.937  0.00  0.00    +0.000 A 
ATOM     13  C   UNL     1       3.112   3.429  17.174  0.00  0.00    +0.000 A 
ATOM     14  C   UNL     1       2.528   2.310  17.771  0.00  0.00    +0.000 A 
ATOM     15  C   UNL     1       2.556   2.169  19.152  0.00  0.00    +0.000 A 
ATOM     16  C   UNL     1       3.174   3.144  19.933  0.00  0.00    +0.000 A 
ATOM     17  C   UNL     1       3.755   4.265  19.333  0.00  0.00    +0.000 A 
ENDBRANCH   4  12
TORSDOF 1
ENDMDL
MODEL 8
REMARK VINA RESULT:      -6.7      0.110      1.244
REMARK  Name = 
REMARK  3 active torsions:
REMARK  status: ('A' for Active; 'I' for Inactive)
REMARK    1  A    between atoms: C_1  and  N_2
REMARK    2  A    between atoms: C_4  and  C_5
REMARK    3  A    between atoms: N_12  and  C_13
REMARK                            x       y       z     vdW  Elec       q    Type
REMARK                         _______ _______ _______ _____ _____    ______ ____
ROOT
ATOM      1  C   UNL     1       6.336   3.990  14.710  0.00  0.00    +0.000 C 
ATOM      2  N   UNL     1       6.443   5.169  15.549  0.00  0.00    +0.000 N 
ATOM      3  N   UNL     1       5.462   6.191  15.385  0.00  0.00    +0.000 NA
ATOM      4  C   UNL     1       4.983   6.750  16.648  0.00  0.00    +0.000 C 
ATOM      5  N   UNL     1       6.125   7.164  17.462  0.00  0.00    +0.000 NA
ATOM      6  N   UNL     1       7.121   6.153  17.613  0.00  0.00    +0.000 N 
ATOM      7  C   UNL     1       7.740   6.016  18.919  0.00  0.00    +0.000 C 
ATOM      8  C   UNL     1       7.301   5.127  16.665  0.00  0.00    +0.000 C 
ATOM      9  O   UNL     1       8.074   4.185  16.858  0.00  0.00    +0.000 OA
ATOM     10  H   UNL     1       4.656   5.813  14.889  0.00  0.00    +0.000 HD
ATOM     11  H   UNL     1       5.771   7.431  18.379  0.00  0.00    +0.000 HD
ENDROOT
BRANCH   4  12
ATOM     12  C   UNL     1       3.967   5.874  17.378  0.00  0.00    +0.000 A 
ATOM     13  C   UNL     1       3.243   6.307  18.504  0.00  0.00    +0.000 A 
ATOM     14  C   UNL     1       2.339   5.470  19.161  0.00  0.00    +0.000 A 
ATOM     15  C   UNL     1       2.132   4.178  18.700  0.00  0.00    +0.000 A 
ATOM     16  C   UNL     1       2.826   3.725  17.579  0.00  0.00    +0.000 A 
ATOM     17  C   UNL     1       3.733   4.563  16.925  0.00  0.00    +0.000 A 
ENDBRANCH   4  12
TORSDOF 1
ENDMDL
MODEL 9
REMARK VINA RESULT:      -6.7      1.494      3.109
REMARK  Name = 
REMARK  3 active torsions:
REMARK  status: ('A' for Active; 'I' for Inactive)
REMARK    1  A    between atoms: C_1  and  N_2
REMARK    2  A    between atoms: C_4  and  C_5
REMARK    3  A    between atoms: N_12  and  C_13
REMARK                            x       y       z     vdW  Elec       q    Type
REMARK                         _______ _______ _______ _____ _____    ______ ____
ROOT
ATOM      1  C   UNL     1       7.930   5.849  18.920  0.00  0.00    +0.000 C 
ATOM      2  N   UNL     1       7.080   4.932  18.183  0.00  0.00    +0.000 N 
ATOM      3  N   UNL     1       6.184   4.112  18.932  0.00  0.00    +0.000 NA
ATOM      4  C   UNL     1       4.852   4.007  18.336  0.00  0.00    +0.000 C 
ATOM      5  N   UNL     1       4.976   3.606  16.934  0.00  0.00    +0.000 NA
ATOM      6  N   UNL     1       5.888   4.410  16.185  0.00  0.00    +0.000 N 
ATOM      7  C   UNL     1       5.509   4.759  14.828  0.00  0.00    +0.000 C 
ATOM      8  C   UNL     1       6.957   5.097  16.790  0.00  0.00    +0.000 C 
ATOM      9  O   UNL     1       7.666   5.888  16.163  0.00  0.00    +0.000 OA
ATOM     10  H   UNL     1       6.072   4.496  19.869  0.00  0.00    +0.000 HD
ATOM     11  H   UNL     1       4.050   3.662  16.514  0.00  0.00    +0.000 HD
ENDROOT
BRANCH   4  12
ATOM     12  C   UNL     1       3.959   5.223  18.573  0.00  0.00    +0.000 A 
ATOM     13  C   UNL     1       3.140   5.368  19.707  0.00  0.00    +0.000 A 
ATOM     14  C   UNL     1       2.318   6.484  19.880  0.00  0.00    +0.000 A 
ATOM     15  C   UNL     1       2.302   7.487  18.921  0.00  0.00    +0.000 A 
ATOM     16  C   UNL     1       3.111   7.375  17.792  0.00  0.00    +0.000 A 
ATOM     17  C   UNL     1       3.931   6.256  17.619  0.00  0.00    +0.000 A 
ENDBRANCH   4  12
TORSDOF 1
ENDMDL
