MODEL 1
REMARK VINA RESULT:      -8.1      0.000      0.000
REMARK  Name = 
REMARK  9 active torsions:
REMARK  status: ('A' for Active; 'I' for Inactive)
REMARK    1  A    between atoms: C_1  and  C_2
REMARK    2  A    between atoms: C_5  and  C_6
REMARK    3  A    between atoms: C_8  and  C_9
REMARK    4  A    between atoms: C_9  and  N_10
REMARK    5  A    between atoms: N_10  and  C_11
REMARK    6  A    between atoms: C_11  and  C_12
REMARK    7  A    between atoms: C_11  and  C_13
REMARK    8  A    between atoms: C_13  and  C_14
REMARK    9  A    between atoms: C_14  and  C_15
REMARK                            x       y       z     vdW  Elec       q    Type
REMARK                         _______ _______ _______ _____ _____    ______ ____
ROOT
ATOM      1  C   UNL     1       7.474   5.266  18.332  0.00  0.00    +0.000 C 
ENDROOT
BRANCH   1   4
ATOM      2  C   UNL     1       8.382   8.710  18.406  0.00  0.00    +0.000 A 
ATOM      3  N   UNL     1       8.507   7.490  18.896  0.00  0.00    +0.000 NA
ATOM      4  C   UNL     1       7.661   6.726  18.110  0.00  0.00    +0.000 A 
ATOM      5  C   UNL     1       7.047   7.533  17.185  0.00  0.00    +0.000 A 
ATOM      6  O   UNL     1       7.494   8.802  17.364  0.00  0.00    +0.000 OA
BRANCH   2  11
ATOM      7  C   UNL     1      10.895  13.707  19.883  0.00  0.00    +0.000 C 
ATOM      8  C   UNL     1      10.290  12.394  19.484  0.00  0.00    +0.000 A 
ATOM      9  C   UNL     1      10.056  12.078  18.142  0.00  0.00    +0.000 A 
ATOM     10  C   UNL     1       9.454  10.864  17.792  0.00  0.00    +0.000 A 
ATOM     11  C   UNL     1       9.071   9.944  18.778  0.00  0.00    +0.000 A 
ATOM     12  C   UNL     1       9.334  10.257  20.121  0.00  0.00    +0.000 A 
ATOM     13  C   UNL     1       9.934  11.469  20.471  0.00  0.00    +0.000 A 
ENDBRANCH   2  11
ENDBRANCH   1   4
BRANCH   1  14
ATOM     14  N   UNL     1       7.532   4.523  17.068  0.00  0.00    +0.000 NA
ATOM     15  H   UNL     1       7.622   3.541  17.334  0.00  0.00    +0.000 HD
BRANCH  14  16
ATOM     16  C   UNL     1       6.354   4.669  16.192  0.00  0.00    +0.000 C 
ATOM     17  C   UNL     1       6.617   4.135  14.780  0.00  0.00    +0.000 C 
BRANCH  16  18
ATOM     18  C   UNL     1       5.149   3.922  16.811  0.00  0.00    +0.000 C 
BRANCH  18  19
ATOM     19  C   UNL     1       4.021   4.862  17.265  0.00  0.00    +0.000 C 
BRANCH  19  20
ATOM     20  C   UNL     1       2.967   4.180  18.105  0.00  0.00    +0.000 A 
ATOM     21  C   UNL     1       2.286   4.889  19.104  0.00  0.00    +0.000 A 
ATOM     22  C   UNL     1       1.282   4.274  19.854  0.00  0.00    +0.000 A 
ATOM     23  C   UNL     1       0.943   2.946  19.609  0.00  0.00    +0.000 A 
ATOM     24  C   UNL     1       1.604   2.234  18.610  0.00  0.00    +0.000 A 
ATOM     25  C   UNL     1       2.610   2.847  17.860  0.00  0.00    +0.000 A 
ENDBRANCH  19  20
ENDBRANCH  18  19
ENDBRANCH  16  18
ENDBRANCH  14  16
ENDBRANCH   1  14
TORSDOF 7
ENDMDL
MODEL 2
REMARK VINA RESULT:      -8.0      1.108      1.851
REMARK  Name = 
REMARK  9 active torsions:
REMARK  status: ('A' for Active; 'I' for Inactive)
REMARK    1  A    between atoms: C_1  and  C_2
REMARK    2  A    between atoms: C_5  and  C_6
REMARK    3  A    between atoms: C_8  and  C_9
REMARK    4  A    between atoms: C_9  and  N_10
REMARK    5  A    between atoms: N_10  and  C_11
REMARK    6  A    between atoms: C_11  and  C_12
REMARK    7  A    between atoms: C_11  and  C_13
REMARK    8  A    between atoms: C_13  and  C_14
REMARK    9  A    between atoms: C_14  and  C_15
REMARK                            x       y       z     vdW  Elec       q    Type
REMARK                         _______ _______ _______ _____ _____    ______ ____
ROOT
ATOM      1  C   UNL     1       5.995   7.115  16.664  0.00  0.00    +0.000 C 
ENDROOT
BRANCH   1   4
ATOM      2  C   UNL     1       8.446   9.116  18.301  0.00  0.00    +0.000 A 
ATOM      3  N   UNL     1       7.448   9.016  17.441  0.00  0.00    +0.000 NA
ATOM      4  C   UNL     1       7.087   7.681  17.502  0.00  0.00    +0.000 A 
ATOM      5  C   UNL     1       7.904   7.029  18.392  0.00  0.00    +0.000 A 
ATOM      6  O   UNL     1       8.779   7.930  18.907  0.00  0.00    +0.000 OA
BRANCH   2  11
ATOM      7  C   UNL     1      11.647  13.630  19.987  0.00  0.00    +0.000 C 
ATOM      8  C   UNL     1      10.775  12.487  19.562  0.00  0.00    +0.000 A 
ATOM      9  C   UNL     1      10.164  11.650  20.502  0.00  0.00    +0.000 A 
ATOM     10  C   UNL     1       9.385  10.564  20.086  0.00  0.00    +0.000 A 
ATOM     11  C   UNL     1       9.205  10.291  18.723  0.00  0.00    +0.000 A 
ATOM     12  C   UNL     1       9.799  11.152  17.787  0.00  0.00    +0.000 A 
ATOM     13  C   UNL     1      10.578  12.235  18.201  0.00  0.00    +0.000 A 
ENDBRANCH   2  11
ENDBRANCH   1   4
BRANCH   1  14
ATOM     14  N   UNL     1       6.385   5.827  16.079  0.00  0.00    +0.000 NA
ATOM     15  H   UNL     1       7.108   5.455  16.698  0.00  0.00    +0.000 HD
BRANCH  14  16
ATOM     16  C   UNL     1       5.305   4.830  15.963  0.00  0.00    +0.000 C 
ATOM     17  C   UNL     1       5.801   3.512  15.357  0.00  0.00    +0.000 C 
BRANCH  16  18
ATOM     18  C   UNL     1       4.693   4.560  17.357  0.00  0.00    +0.000 C 
BRANCH  18  19
ATOM     19  C   UNL     1       3.280   5.142  17.523  0.00  0.00    +0.000 C 
BRANCH  19  20
ATOM     20  C   UNL     1       2.484   4.491  18.630  0.00  0.00    +0.000 A 
ATOM     21  C   UNL     1       1.644   3.403  18.356  0.00  0.00    +0.000 A 
ATOM     22  C   UNL     1       0.940   2.773  19.383  0.00  0.00    +0.000 A 
ATOM     23  C   UNL     1       1.073   3.218  20.695  0.00  0.00    +0.000 A 
ATOM     24  C   UNL     1       1.915   4.290  20.983  0.00  0.00    +0.000 A 
ATOM     25  C   UNL     1       2.619   4.923  19.956  0.00  0.00    +0.000 A 
ENDBRANCH  19  20
ENDBRANCH  18  19
ENDBRANCH  16  18
ENDBRANCH  14  16
ENDBRANCH   1  14
TORSDOF 7
ENDMDL
MODEL 3
REMARK VINA RESULT:      -7.9      1.174      1.666
REMARK  Name = 
REMARK  9 active torsions:
REMARK  status: ('A' for Active; 'I' for Inactive)
REMARK    1  A    between atoms: C_1  and  C_2
REMARK    2  A    between atoms: C_5  and  C_6
REMARK    3  A    between atoms: C_8  and  C_9
REMARK    4  A    between atoms: C_9  and  N_10
REMARK    5  A    between atoms: N_10  and  C_11
REMARK    6  A    between atoms: C_11  and  C_12
REMARK    7  A    between atoms: C_11  and  C_13
REMARK    8  A    between atoms: C_13  and  C_14
REMARK    9  A    between atoms: C_14  and  C_15
REMARK                            x       y       z     vdW  Elec       q    Type
REMARK                         _______ _______ _______ _____ _____    ______ ____
ROOT
ATOM      1  C   UNL     1       7.707   5.415  18.599  0.00  0.00    +0.000 C 
ENDROOT
BRANCH   1   4
ATOM      2  C   UNL     1       8.427   8.900  18.411  0.00  0.00    +0.000 A 
ATOM      3  N   UNL     1       8.568   7.740  19.028  0.00  0.00    +0.000 NA
ATOM      4  C   UNL     1       7.838   6.857  18.252  0.00  0.00    +0.000 A 
ATOM      5  C   UNL     1       7.271   7.536  17.202  0.00  0.00    +0.000 A 
ATOM      6  O   UNL     1       7.634   8.841  17.293  0.00  0.00    +0.000 OA
BRANCH   2  11
ATOM      7  C   UNL     1      10.546  14.118  19.731  0.00  0.00    +0.000 C 
ATOM      8  C   UNL     1      10.035  12.760  19.354  0.00  0.00    +0.000 A 
ATOM      9  C   UNL     1       9.328  12.552  18.165  0.00  0.00    +0.000 A 
ATOM     10  C   UNL     1       8.825  11.285  17.849  0.00  0.00    +0.000 A 
ATOM     11  C   UNL     1       9.015  10.201  18.718  0.00  0.00    +0.000 A 
ATOM     12  C   UNL     1       9.748  10.412  19.897  0.00  0.00    +0.000 A 
ATOM     13  C   UNL     1      10.250  11.677  20.213  0.00  0.00    +0.000 A 
ENDBRANCH   2  11
ENDBRANCH   1   4
BRANCH   1  14
ATOM     14  N   UNL     1       6.721   4.748  17.741  0.00  0.00    +0.000 NA
ATOM     15  H   UNL     1       7.197   3.923  17.371  0.00  0.00    +0.000 HD
BRANCH  14  16
ATOM     16  C   UNL     1       5.483   4.316  18.414  0.00  0.00    +0.000 C 
ATOM     17  C   UNL     1       4.827   5.458  19.200  0.00  0.00    +0.000 C 
BRANCH  16  18
ATOM     18  C   UNL     1       4.484   3.769  17.368  0.00  0.00    +0.000 C 
BRANCH  18  19
ATOM     19  C   UNL     1       3.711   2.533  17.854  0.00  0.00    +0.000 C 
BRANCH  19  20
ATOM     20  C   UNL     1       2.871   2.791  19.083  0.00  0.00    +0.000 A 
ATOM     21  C   UNL     1       1.603   3.377  18.966  0.00  0.00    +0.000 A 
ATOM     22  C   UNL     1       0.806   3.578  20.094  0.00  0.00    +0.000 A 
ATOM     23  C   UNL     1       1.264   3.189  21.350  0.00  0.00    +0.000 A 
ATOM     24  C   UNL     1       2.518   2.593  21.478  0.00  0.00    +0.000 A 
ATOM     25  C   UNL     1       3.317   2.394  20.350  0.00  0.00    +0.000 A 
ENDBRANCH  19  20
ENDBRANCH  18  19
ENDBRANCH  16  18
ENDBRANCH  14  16
ENDBRANCH   1  14
TORSDOF 7
ENDMDL
MODEL 4
REMARK VINA RESULT:      -7.8      0.809      1.321
REMARK  Name = 
REMARK  9 active torsions:
REMARK  status: ('A' for Active; 'I' for Inactive)
REMARK    1  A    between atoms: C_1  and  C_2
REMARK    2  A    between atoms: C_5  and  C_6
REMARK    3  A    between atoms: C_8  and  C_9
REMARK    4  A    between atoms: C_9  and  N_10
REMARK    5  A    between atoms: N_10  and  C_11
REMARK    6  A    between atoms: C_11  and  C_12
REMARK    7  A    between atoms: C_11  and  C_13
REMARK    8  A    between atoms: C_13  and  C_14
REMARK    9  A    between atoms: C_14  and  C_15
REMARK                            x       y       z     vdW  Elec       q    Type
REMARK                         _______ _______ _______ _____ _____    ______ ____
ROOT
ATOM      1  C   UNL     1       7.403   5.761  18.053  0.00  0.00    +0.000 C 
ENDROOT
BRANCH   1   4
ATOM      2  C   UNL     1       8.490   9.138  18.391  0.00  0.00    +0.000 A 
ATOM      3  N   UNL     1       8.638   7.859  18.689  0.00  0.00    +0.000 NA
ATOM      4  C   UNL     1       7.622   7.232  17.988  0.00  0.00    +0.000 A 
ATOM      5  C   UNL     1       6.891   8.174  17.308  0.00  0.00    +0.000 A 
ATOM      6  O   UNL     1       7.430   9.394  17.558  0.00  0.00    +0.000 OA
BRANCH   2  11
ATOM      7  C   UNL     1      11.887  13.552  19.952  0.00  0.00    +0.000 C 
ATOM      8  C   UNL     1      10.964  12.437  19.558  0.00  0.00    +0.000 A 
ATOM      9  C   UNL     1      10.290  11.677  20.519  0.00  0.00    +0.000 A 
ATOM     10  C   UNL     1       9.464  10.615  20.132  0.00  0.00    +0.000 A 
ATOM     11  C   UNL     1       9.300  10.290  18.779  0.00  0.00    +0.000 A 
ATOM     12  C   UNL     1       9.959  11.075  17.820  0.00  0.00    +0.000 A 
ATOM     13  C   UNL     1      10.784  12.135  18.204  0.00  0.00    +0.000 A 
ENDBRANCH   2  11
ENDBRANCH   1   4
BRANCH   1  14
ATOM     14  N   UNL     1       7.615   5.132  16.744  0.00  0.00    +0.000 NA
ATOM     15  H   UNL     1       7.787   4.145  16.942  0.00  0.00    +0.000 HD
BRANCH  14  16
ATOM     16  C   UNL     1       6.488   5.236  15.800  0.00  0.00    +0.000 C 
ATOM     17  C   UNL     1       6.603   4.226  14.652  0.00  0.00    +0.000 C 
BRANCH  16  18
ATOM     18  C   UNL     1       5.155   5.012  16.553  0.00  0.00    +0.000 C 
BRANCH  18  19
ATOM     19  C   UNL     1       4.765   3.530  16.668  0.00  0.00    +0.000 C 
BRANCH  19  20
ATOM     20  C   UNL     1       3.518   3.295  17.487  0.00  0.00    +0.000 A 
ATOM     21  C   UNL     1       2.493   4.251  17.512  0.00  0.00    +0.000 A 
ATOM     22  C   UNL     1       1.321   4.019  18.234  0.00  0.00    +0.000 A 
ATOM     23  C   UNL     1       1.158   2.827  18.934  0.00  0.00    +0.000 A 
ATOM     24  C   UNL     1       2.164   1.862  18.907  0.00  0.00    +0.000 A 
ATOM     25  C   UNL     1       3.338   2.094  18.187  0.00  0.00    +0.000 A 
ENDBRANCH  19  20
ENDBRANCH  18  19
ENDBRANCH  16  18
ENDBRANCH  14  16
ENDBRANCH   1  14
TORSDOF 7
ENDMDL
MODEL 5
REMARK VINA RESULT:      -7.8      5.150      6.600
REMARK  Name = 
REMARK  9 active torsions:
REMARK  status: ('A' for Active; 'I' for Inactive)
REMARK    1  A    between atoms: C_1  and  C_2
REMARK    2  A    between atoms: C_5  and  C_6
REMARK    3  A    between atoms: C_8  and  C_9
REMARK    4  A    between atoms: C_9  and  N_10
REMARK    5  A    between atoms: N_10  and  C_11
REMARK    6  A    between atoms: C_11  and  C_12
REMARK    7  A    between atoms: C_11  and  C_13
REMARK    8  A    between atoms: C_13  and  C_14
REMARK    9  A    between atoms: C_14  and  C_15
REMARK                            x       y       z     vdW  Elec       q    Type
REMARK                         _______ _______ _______ _____ _____    ______ ____
ROOT
ATOM      1  C   UNL     1       3.663   6.101  18.459  0.00  0.00    +0.000 C 
ENDROOT
BRANCH   1   4
ATOM      2  C   UNL     1       1.503   8.652  19.693  0.00  0.00    +0.000 A 
ATOM      3  N   UNL     1       2.173   7.531  19.895  0.00  0.00    +0.000 NA
ATOM      4  C   UNL     1       2.803   7.294  18.686  0.00  0.00    +0.000 A 
ATOM      5  C   UNL     1       2.466   8.284  17.796  0.00  0.00    +0.000 A 
ATOM      6  O   UNL     1       1.634   9.155  18.422  0.00  0.00    +0.000 OA
BRANCH   2  11
ATOM      7  C   UNL     1      -1.900  11.651  23.282  0.00  0.00    +0.000 C 
ATOM      8  C   UNL     1      -0.981  10.910  22.358  0.00  0.00    +0.000 A 
ATOM      9  C   UNL     1      -0.775  11.336  21.041  0.00  0.00    +0.000 A 
ATOM     10  C   UNL     1       0.056  10.608  20.181  0.00  0.00    +0.000 A 
ATOM     11  C   UNL     1       0.693   9.439  20.618  0.00  0.00    +0.000 A 
ATOM     12  C   UNL     1       0.503   9.034  21.949  0.00  0.00    +0.000 A 
ATOM     13  C   UNL     1      -0.327   9.758  22.808  0.00  0.00    +0.000 A 
ENDBRANCH   2  11
ENDBRANCH   1   4
BRANCH   1  14
ATOM     14  N   UNL     1       4.215   6.093  17.099  0.00  0.00    +0.000 NA
ATOM     15  H   UNL     1       5.114   6.574  17.168  0.00  0.00    +0.000 HD
BRANCH  14  16
ATOM     16  C   UNL     1       4.437   4.758  16.513  0.00  0.00    +0.000 C 
ATOM     17  C   UNL     1       5.548   4.771  15.456  0.00  0.00    +0.000 C 
BRANCH  16  18
ATOM     18  C   UNL     1       4.800   3.752  17.630  0.00  0.00    +0.000 C 
BRANCH  18  19
ATOM     19  C   UNL     1       3.808   2.584  17.740  0.00  0.00    +0.000 C 
BRANCH  19  20
ATOM     20  C   UNL     1       2.904   2.670  18.948  0.00  0.00    +0.000 A 
ATOM     21  C   UNL     1       3.440   2.618  20.242  0.00  0.00    +0.000 A 
ATOM     22  C   UNL     1       2.613   2.739  21.360  0.00  0.00    +0.000 A 
ATOM     23  C   UNL     1       1.242   2.921  21.196  0.00  0.00    +0.000 A 
ATOM     24  C   UNL     1       0.698   2.987  19.915  0.00  0.00    +0.000 A 
ATOM     25  C   UNL     1       1.524   2.864  18.795  0.00  0.00    +0.000 A 
ENDBRANCH  19  20
ENDBRANCH  18  19
ENDBRANCH  16  18
ENDBRANCH  14  16
ENDBRANCH   1  14
TORSDOF 7
ENDMDL
MODEL 6
REMARK VINA RESULT:      -7.8      4.685      6.820
REMARK  Name = 
REMARK  9 active torsions:
REMARK  status: ('A' for Active; 'I' for Inactive)
REMARK    1  A    between atoms: C_1  and  C_2
REMARK    2  A    between atoms: C_5  and  C_6
REMARK    3  A    between atoms: C_8  and  C_9
REMARK    4  A    between atoms: C_9  and  N_10
REMARK    5  A    between atoms: N_10  and  C_11
REMARK    6  A    between atoms: C_11  and  C_12
REMARK    7  A    between atoms: C_11  and  C_13
REMARK    8  A    between atoms: C_13  and  C_14
REMARK    9  A    between atoms: C_14  and  C_15
REMARK                            x       y       z     vdW  Elec       q    Type
REMARK                         _______ _______ _______ _____ _____    ______ ____
ROOT
ATOM      1  C   UNL     1       3.132   7.182  17.514  0.00  0.00    +0.000 C 
ENDROOT
BRANCH   1   4
ATOM      2  C   UNL     1       1.320   8.549  20.261  0.00  0.00    +0.000 A 
ATOM      3  N   UNL     1       1.813   8.684  19.042  0.00  0.00    +0.000 NA
ATOM      4  C   UNL     1       2.420   7.466  18.791  0.00  0.00    +0.000 A 
ATOM      5  C   UNL     1       2.280   6.652  19.887  0.00  0.00    +0.000 A 
ATOM      6  O   UNL     1       1.584   7.331  20.835  0.00  0.00    +0.000 OA
BRANCH   2  11
ATOM      7  C   UNL     1      -2.061  12.113  23.316  0.00  0.00    +0.000 C 
ATOM      8  C   UNL     1      -1.145  11.222  22.531  0.00  0.00    +0.000 A 
ATOM      9  C   UNL     1      -0.787  11.527  21.213  0.00  0.00    +0.000 A 
ATOM     10  C   UNL     1       0.038  10.663  20.483  0.00  0.00    +0.000 A 
ATOM     11  C   UNL     1       0.517   9.476  21.054  0.00  0.00    +0.000 A 
ATOM     12  C   UNL     1       0.175   9.191  22.386  0.00  0.00    +0.000 A 
ATOM     13  C   UNL     1      -0.649  10.052  23.115  0.00  0.00    +0.000 A 
ENDBRANCH   2  11
ENDBRANCH   1   4
BRANCH   1  14
ATOM     14  N   UNL     1       4.495   6.698  17.760  0.00  0.00    +0.000 NA
ATOM     15  H   UNL     1       4.502   6.388  18.734  0.00  0.00    +0.000 HD
BRANCH  14  16
ATOM     16  C   UNL     1       4.935   5.580  16.905  0.00  0.00    +0.000 C 
ATOM     17  C   UNL     1       6.319   5.833  16.295  0.00  0.00    +0.000 C 
BRANCH  16  18
ATOM     18  C   UNL     1       4.966   4.274  17.732  0.00  0.00    +0.000 C 
BRANCH  18  19
ATOM     19  C   UNL     1       3.719   3.398  17.530  0.00  0.00    +0.000 C 
BRANCH  19  20
ATOM     20  C   UNL     1       2.869   3.261  18.772  0.00  0.00    +0.000 A 
ATOM     21  C   UNL     1       1.471   3.303  18.683  0.00  0.00    +0.000 A 
ATOM     22  C   UNL     1       0.681   3.134  19.822  0.00  0.00    +0.000 A 
ATOM     23  C   UNL     1       1.280   2.915  21.059  0.00  0.00    +0.000 A 
ATOM     24  C   UNL     1       2.669   2.858  21.159  0.00  0.00    +0.000 A 
ATOM     25  C   UNL     1       3.461   3.029  20.020  0.00  0.00    +0.000 A 
ENDBRANCH  19  20
ENDBRANCH  18  19
ENDBRANCH  16  18
ENDBRANCH  14  16
ENDBRANCH   1  14
TORSDOF 7
ENDMDL
MODEL 7
REMARK VINA RESULT:      -7.8      1.360      1.874
REMARK  Name = 
REMARK  9 active torsions:
REMARK  status: ('A' for Active; 'I' for Inactive)
REMARK    1  A    between atoms: C_1  and  C_2
REMARK    2  A    between atoms: C_5  and  C_6
REMARK    3  A    between atoms: C_8  and  C_9
REMARK    4  A    between atoms: C_9  and  N_10
REMARK    5  A    between atoms: N_10  and  C_11
REMARK    6  A    between atoms: C_11  and  C_12
REMARK    7  A    between atoms: C_11  and  C_13
REMARK    8  A    between atoms: C_13  and  C_14
REMARK    9  A    between atoms: C_14  and  C_15
REMARK                            x       y       z     vdW  Elec       q    Type
REMARK                         _______ _______ _______ _____ _____    ______ ____
ROOT
ATOM      1  C   UNL     1       6.294   6.127  16.802  0.00  0.00    +0.000 C 
ENDROOT
BRANCH   1   4
ATOM      2  C   UNL     1       8.251   8.766  18.180  0.00  0.00    +0.000 A 
ATOM      3  N   UNL     1       7.364   8.350  17.293  0.00  0.00    +0.000 NA
ATOM      4  C   UNL     1       7.205   7.006  17.584  0.00  0.00    +0.000 A 
ATOM      5  C   UNL     1       8.026   6.668  18.632  0.00  0.00    +0.000 A 
ATOM      6  O   UNL     1       8.702   7.779  19.019  0.00  0.00    +0.000 OA
BRANCH   2  11
ATOM      7  C   UNL     1      10.150  14.124  19.252  0.00  0.00    +0.000 C 
ATOM      8  C   UNL     1       9.692  12.732  18.935  0.00  0.00    +0.000 A 
ATOM      9  C   UNL     1       8.850  12.474  17.848  0.00  0.00    +0.000 A 
ATOM     10  C   UNL     1       8.400  11.173  17.591  0.00  0.00    +0.000 A 
ATOM     11  C   UNL     1       8.780  10.107  18.417  0.00  0.00    +0.000 A 
ATOM     12  C   UNL     1       9.647  10.370  19.490  0.00  0.00    +0.000 A 
ATOM     13  C   UNL     1      10.096  11.668  19.748  0.00  0.00    +0.000 A 
ENDBRANCH   2  11
ENDBRANCH   1   4
BRANCH   1  14
ATOM     14  N   UNL     1       5.781   5.024  17.624  0.00  0.00    +0.000 NA
ATOM     15  H   UNL     1       6.183   5.168  18.553  0.00  0.00    +0.000 HD
BRANCH  14  16
ATOM     16  C   UNL     1       4.314   4.956  17.750  0.00  0.00    +0.000 C 
ATOM     17  C   UNL     1       3.648   6.308  17.470  0.00  0.00    +0.000 C 
BRANCH  16  18
ATOM     18  C   UNL     1       3.757   3.893  16.773  0.00  0.00    +0.000 C 
BRANCH  18  19
ATOM     19  C   UNL     1       2.510   3.172  17.308  0.00  0.00    +0.000 C 
BRANCH  19  20
ATOM     20  C   UNL     1       2.366   3.248  18.810  0.00  0.00    +0.000 A 
ATOM     21  C   UNL     1       1.359   4.034  19.388  0.00  0.00    +0.000 A 
ATOM     22  C   UNL     1       1.196   4.074  20.774  0.00  0.00    +0.000 A 
ATOM     23  C   UNL     1       2.031   3.323  21.596  0.00  0.00    +0.000 A 
ATOM     24  C   UNL     1       3.027   2.527  21.033  0.00  0.00    +0.000 A 
ATOM     25  C   UNL     1       3.193   2.488  19.647  0.00  0.00    +0.000 A 
ENDBRANCH  19  20
ENDBRANCH  18  19
ENDBRANCH  16  18
ENDBRANCH  14  16
ENDBRANCH   1  14
TORSDOF 7
ENDMDL
MODEL 8
REMARK VINA RESULT:      -7.8      1.881      4.013
REMARK  Name = 
REMARK  9 active torsions:
REMARK  status: ('A' for Active; 'I' for Inactive)
REMARK    1  A    between atoms: C_1  and  C_2
REMARK    2  A    between atoms: C_5  and  C_6
REMARK    3  A    between atoms: C_8  and  C_9
REMARK    4  A    between atoms: C_9  and  N_10
REMARK    5  A    between atoms: N_10  and  C_11
REMARK    6  A    between atoms: C_11  and  C_12
REMARK    7  A    between atoms: C_11  and  C_13
REMARK    8  A    between atoms: C_13  and  C_14
REMARK    9  A    between atoms: C_14  and  C_15
REMARK                            x       y       z     vdW  Elec       q    Type
REMARK                         _______ _______ _______ _____ _____    ______ ____
ROOT
ATOM      1  C   UNL     1       7.612   5.688  18.440  0.00  0.00    +0.000 C 
ENDROOT
BRANCH   1   4
ATOM      2  C   UNL     1       8.607   9.107  18.573  0.00  0.00    +0.000 A 
ATOM      3  N   UNL     1       8.717   7.871  19.027  0.00  0.00    +0.000 NA
ATOM      4  C   UNL     1       7.828   7.149  18.250  0.00  0.00    +0.000 A 
ATOM      5  C   UNL     1       7.203   7.995  17.368  0.00  0.00    +0.000 A 
ATOM      6  O   UNL     1       7.687   9.248  17.565  0.00  0.00    +0.000 OA
BRANCH   2  11
ATOM      7  C   UNL     1      11.298  14.011  20.046  0.00  0.00    +0.000 C 
ATOM      8  C   UNL     1      10.647  12.717  19.657  0.00  0.00    +0.000 A 
ATOM      9  C   UNL     1      10.574  12.314  18.319  0.00  0.00    +0.000 A 
ATOM     10  C   UNL     1       9.927  11.122  17.972  0.00  0.00    +0.000 A 
ATOM     11  C   UNL     1       9.338  10.313  18.954  0.00  0.00    +0.000 A 
ATOM     12  C   UNL     1       9.440  10.712  20.296  0.00  0.00    +0.000 A 
ATOM     13  C   UNL     1      10.084  11.902  20.644  0.00  0.00    +0.000 A 
ENDBRANCH   2  11
ENDBRANCH   1   4
BRANCH   1  14
ATOM     14  N   UNL     1       6.321   5.418  19.083  0.00  0.00    +0.000 NA
ATOM     15  H   UNL     1       5.948   6.335  19.339  0.00  0.00    +0.000 HD
BRANCH  14  16
ATOM     16  C   UNL     1       5.328   4.721  18.246  0.00  0.00    +0.000 C 
ATOM     17  C   UNL     1       4.142   5.623  17.888  0.00  0.00    +0.000 C 
BRANCH  16  18
ATOM     18  C   UNL     1       6.003   4.216  16.949  0.00  0.00    +0.000 C 
BRANCH  18  19
ATOM     19  C   UNL     1       5.090   4.302  15.717  0.00  0.00    +0.000 C 
BRANCH  19  20
ATOM     20  C   UNL     1       5.842   4.313  14.406  0.00  0.00    +0.000 A 
ATOM     21  C   UNL     1       7.010   5.074  14.264  0.00  0.00    +0.000 A 
ATOM     22  C   UNL     1       7.730   5.053  13.068  0.00  0.00    +0.000 A 
ATOM     23  C   UNL     1       7.295   4.266  12.005  0.00  0.00    +0.000 A 
ATOM     24  C   UNL     1       6.142   3.495  12.139  0.00  0.00    +0.000 A 
ATOM     25  C   UNL     1       5.419   3.517  13.333  0.00  0.00    +0.000 A 
ENDBRANCH  19  20
ENDBRANCH  18  19
ENDBRANCH  16  18
ENDBRANCH  14  16
ENDBRANCH   1  14
TORSDOF 7
ENDMDL
MODEL 9
REMARK VINA RESULT:      -7.8      5.170      6.827
REMARK  Name = 
REMARK  9 active torsions:
REMARK  status: ('A' for Active; 'I' for Inactive)
REMARK    1  A    between atoms: C_1  and  C_2
REMARK    2  A    between atoms: C_5  and  C_6
REMARK    3  A    between atoms: C_8  and  C_9
REMARK    4  A    between atoms: C_9  and  N_10
REMARK    5  A    between atoms: N_10  and  C_11
REMARK    6  A    between atoms: C_11  and  C_12
REMARK    7  A    between atoms: C_11  and  C_13
REMARK    8  A    between atoms: C_13  and  C_14
REMARK    9  A    between atoms: C_14  and  C_15
REMARK                            x       y       z     vdW  Elec       q    Type
REMARK                         _______ _______ _______ _____ _____    ______ ____
ROOT
ATOM      1  C   UNL     1       3.421   6.356  18.655  0.00  0.00    +0.000 C 
ENDROOT
BRANCH   1   4
ATOM      2  C   UNL     1       1.194   8.917  19.742  0.00  0.00    +0.000 A 
ATOM      3  N   UNL     1       1.877   7.816  20.003  0.00  0.00    +0.000 NA
ATOM      4  C   UNL     1       2.536   7.543  18.817  0.00  0.00    +0.000 A 
ATOM      5  C   UNL     1       2.202   8.491  17.881  0.00  0.00    +0.000 A 
ATOM      6  O   UNL     1       1.343   9.371  18.455  0.00  0.00    +0.000 OA
BRANCH   2  11
ATOM      7  C   UNL     1      -1.949  12.259  23.265  0.00  0.00    +0.000 C 
ATOM      8  C   UNL     1      -1.172  11.356  22.354  0.00  0.00    +0.000 A 
ATOM      9  C   UNL     1      -0.469  10.253  22.850  0.00  0.00    +0.000 A 
ATOM     10  C   UNL     1       0.283   9.445  21.990  0.00  0.00    +0.000 A 
ATOM     11  C   UNL     1       0.351   9.726  20.619  0.00  0.00    +0.000 A 
ATOM     12  C   UNL     1      -0.379  10.819  20.125  0.00  0.00    +0.000 A 
ATOM     13  C   UNL     1      -1.129  11.627  20.983  0.00  0.00    +0.000 A 
ENDBRANCH   2  11
ENDBRANCH   1   4
BRANCH   1  14
ATOM     14  N   UNL     1       4.166   6.415  17.392  0.00  0.00    +0.000 NA
ATOM     15  H   UNL     1       5.071   6.826  17.630  0.00  0.00    +0.000 HD
BRANCH  14  16
ATOM     16  C   UNL     1       4.396   5.118  16.730  0.00  0.00    +0.000 C 
ATOM     17  C   UNL     1       5.415   5.226  15.590  0.00  0.00    +0.000 C 
BRANCH  16  18
ATOM     18  C   UNL     1       4.890   4.084  17.768  0.00  0.00    +0.000 C 
BRANCH  18  19
ATOM     19  C   UNL     1       3.988   2.843  17.866  0.00  0.00    +0.000 C 
BRANCH  19  20
ATOM     20  C   UNL     1       3.031   2.882  19.034  0.00  0.00    +0.000 A 
ATOM     21  C   UNL     1       1.662   3.095  18.824  0.00  0.00    +0.000 A 
ATOM     22  C   UNL     1       0.769   3.089  19.897  0.00  0.00    +0.000 A 
ATOM     23  C   UNL     1       1.233   2.863  21.190  0.00  0.00    +0.000 A 
ATOM     24  C   UNL     1       2.591   2.637  21.410  0.00  0.00    +0.000 A 
ATOM     25  C   UNL     1       3.486   2.645  20.338  0.00  0.00    +0.000 A 
ENDBRANCH  19  20
ENDBRANCH  18  19
ENDBRANCH  16  18
ENDBRANCH  14  16
ENDBRANCH   1  14
TORSDOF 7
ENDMDL
