MODEL 1
REMARK VINA RESULT:      -7.9      0.000      0.000
REMARK  Name = 
REMARK  6 active torsions:
REMARK  status: ('A' for Active; 'I' for Inactive)
REMARK    1  A    between atoms: C_1  and  C_2
REMARK    2  A    between atoms: C_7  and  O_9
REMARK    3  A    between atoms: O_9  and  C_10
REMARK    4  A    between atoms: C_13  and  C_14
REMARK    5  A    between atoms: C_22  and  N_23
REMARK    6  A    between atoms: C_32  and  C_33
REMARK                            x       y       z     vdW  Elec       q    Type
REMARK                         _______ _______ _______ _____ _____    ______ ____
ROOT
ATOM      1  C   UNL     1       1.834   7.700  19.874  0.00  0.00    +0.000 C 
ATOM      2  C   UNL     1       1.913   8.393  21.236  0.00  0.00    +0.000 C 
ATOM      3  C   UNL     1       0.657   9.253  21.475  0.00  0.00    +0.000 C 
ATOM      4  C   UNL     1       0.309  10.275  20.340  0.00  0.00    +0.000 C 
ATOM      5  C   UNL     1       1.321  11.445  20.377  0.00  0.00    +0.000 C 
ATOM      6  C   UNL     1       0.440   9.584  18.974  0.00  0.00    +0.000 C 
ATOM      7  C   UNL     1      -0.501   9.683  18.016  0.00  0.00    +0.000 C 
ATOM      8  C   UNL     1      -1.778  10.465  18.131  0.00  0.00    +0.000 C 
ATOM      9  C   UNL     1      -1.794  11.458  19.300  0.00  0.00    +0.000 C 
ATOM     10  C   UNL     1      -3.226  11.917  19.651  0.00  0.00    +0.000 C 
ATOM     11  C   UNL     1      -4.183  12.474  18.602  0.00  0.00    +0.000 C 
ATOM     12  C   UNL     1      -5.237  13.045  19.522  0.00  0.00    +0.000 C 
ATOM     13  C   UNL     1      -4.752  13.316  20.753  0.00  0.00    +0.000 C 
ATOM     14  C   UNL     1      -3.259  12.978  20.787  0.00  0.00    +0.000 C 
ATOM     15  C   UNL     1      -2.438  14.248  20.455  0.00  0.00    +0.000 C 
ATOM     16  C   UNL     1      -2.735  12.254  22.039  0.00  0.00    +0.000 C 
ATOM     17  C   UNL     1      -1.323  11.696  21.828  0.00  0.00    +0.000 C 
ATOM     18  C   UNL     1      -1.169  10.799  20.573  0.00  0.00    +0.000 C 
ATOM     19  C   UNL     1       1.687   8.739  18.756  0.00  0.00    +0.000 C 
ENDROOT
BRANCH  13  20
ATOM     20  N   UNL     1      -5.433  13.886  21.849  0.00  0.00    +0.000 N 
ATOM     21  C   UNL     1      -6.153  13.195  22.810  0.00  0.00    +0.000 A 
ATOM     22  N   UNL     1      -6.589  13.942  23.795  0.00  0.00    +0.000 NA
ATOM     23  C   UNL     1      -6.185  15.199  23.471  0.00  0.00    +0.000 A 
ATOM     24  C   UNL     1      -6.379  16.384  24.198  0.00  0.00    +0.000 A 
ATOM     25  C   UNL     1      -5.923  17.588  23.658  0.00  0.00    +0.000 A 
ATOM     26  C   UNL     1      -5.326  17.615  22.399  0.00  0.00    +0.000 A 
ATOM     27  C   UNL     1      -5.117  16.438  21.663  0.00  0.00    +0.000 A 
ATOM     28  C   UNL     1      -5.514  15.224  22.245  0.00  0.00    +0.000 A 
ENDBRANCH  13  20
BRANCH   1  29
ATOM     29  O   UNL     1       2.870   6.712  19.638  0.00  0.00    +0.000 OA
BRANCH  29  36
ATOM     30  C   UNL     1       1.911   2.665  18.053  0.00  0.00    +0.000 C 
ATOM     31  C   UNL     1       1.989   3.203  19.437  0.00  0.00    +0.000 A 
ATOM     32  N   UNL     1       1.731   2.479  20.506  0.00  0.00    +0.000 NA
ATOM     33  C   UNL     1       1.862   3.310  21.575  0.00  0.00    +0.000 A 
ATOM     34  C   UNL     1       2.211   4.566  21.156  0.00  0.00    +0.000 A 
ATOM     35  N   UNL     1       2.317   4.518  19.771  0.00  0.00    +0.000 N 
ATOM     36  C   UNL     1       2.662   5.587  18.911  0.00  0.00    +0.000 C 
ATOM     37  O   UNL     1       2.716   5.450  17.701  0.00  0.00    +0.000 OA
ENDBRANCH  29  36
ENDBRANCH   1  29
TORSDOF 3
ENDMDL
MODEL 2
REMARK VINA RESULT:      -7.9      3.076      4.621
REMARK  Name = 
REMARK  6 active torsions:
REMARK  status: ('A' for Active; 'I' for Inactive)
REMARK    1  A    between atoms: C_1  and  C_2
REMARK    2  A    between atoms: C_7  and  O_9
REMARK    3  A    between atoms: O_9  and  C_10
REMARK    4  A    between atoms: C_13  and  C_14
REMARK    5  A    between atoms: C_22  and  N_23
REMARK    6  A    between atoms: C_32  and  C_33
REMARK                            x       y       z     vdW  Elec       q    Type
REMARK                         _______ _______ _______ _____ _____    ______ ____
ROOT
ATOM      1  C   UNL     1       3.075   7.091  18.507  0.00  0.00    +0.000 C 
ATOM      2  C   UNL     1       2.917   8.122  17.387  0.00  0.00    +0.000 C 
ATOM      3  C   UNL     1       2.403   9.459  17.957  0.00  0.00    +0.000 C 
ATOM      4  C   UNL     1       1.106   9.369  18.831  0.00  0.00    +0.000 C 
ATOM      5  C   UNL     1      -0.111   9.099  17.914  0.00  0.00    +0.000 C 
ATOM      6  C   UNL     1       1.230   8.188  19.806  0.00  0.00    +0.000 C 
ATOM      7  C   UNL     1       0.936   8.294  21.116  0.00  0.00    +0.000 C 
ATOM      8  C   UNL     1       0.452   9.541  21.800  0.00  0.00    +0.000 C 
ATOM      9  C   UNL     1      -0.038  10.628  20.833  0.00  0.00    +0.000 C 
ATOM     10  C   UNL     1      -0.116  12.013  21.511  0.00  0.00    +0.000 C 
ATOM     11  C   UNL     1      -0.860  12.238  22.822  0.00  0.00    +0.000 C 
ATOM     12  C   UNL     1      -0.894  13.749  22.821  0.00  0.00    +0.000 C 
ATOM     13  C   UNL     1      -0.773  14.263  21.578  0.00  0.00    +0.000 C 
ATOM     14  C   UNL     1      -0.677  13.115  20.570  0.00  0.00    +0.000 C 
ATOM     15  C   UNL     1      -2.091  12.788  20.028  0.00  0.00    +0.000 C 
ATOM     16  C   UNL     1       0.361  13.259  19.443  0.00  0.00    +0.000 C 
ATOM     17  C   UNL     1       0.584  11.939  18.697  0.00  0.00    +0.000 C 
ATOM     18  C   UNL     1       0.933  10.737  19.613  0.00  0.00    +0.000 C 
ATOM     19  C   UNL     1       1.739   6.877  19.226  0.00  0.00    +0.000 C 
ENDROOT
BRANCH  13  20
ATOM     20  N   UNL     1      -0.799  15.620  21.193  0.00  0.00    +0.000 N 
ATOM     21  C   UNL     1       0.296  16.464  21.107  0.00  0.00    +0.000 A 
ATOM     22  N   UNL     1       0.027  17.644  20.607  0.00  0.00    +0.000 NA
ATOM     23  C   UNL     1      -1.313  17.619  20.381  0.00  0.00    +0.000 A 
ATOM     24  C   UNL     1      -2.118  18.631  19.835  0.00  0.00    +0.000 A 
ATOM     25  C   UNL     1      -3.494  18.417  19.732  0.00  0.00    +0.000 A 
ATOM     26  C   UNL     1      -4.060  17.236  20.207  0.00  0.00    +0.000 A 
ATOM     27  C   UNL     1      -3.270  16.210  20.749  0.00  0.00    +0.000 A 
ATOM     28  C   UNL     1      -1.880  16.405  20.781  0.00  0.00    +0.000 A 
ENDBRANCH  13  20
BRANCH   1  29
ATOM     29  O   UNL     1       3.742   5.865  18.110  0.00  0.00    +0.000 OA
BRANCH  29  36
ATOM     30  C   UNL     1       8.073   4.894  18.444  0.00  0.00    +0.000 C 
ATOM     31  C   UNL     1       7.160   4.999  17.275  0.00  0.00    +0.000 A 
ATOM     32  N   UNL     1       7.559   4.823  16.032  0.00  0.00    +0.000 NA
ATOM     33  C   UNL     1       6.471   5.038  15.244  0.00  0.00    +0.000 A 
ATOM     34  C   UNL     1       5.383   5.346  16.017  0.00  0.00    +0.000 A 
ATOM     35  N   UNL     1       5.801   5.311  17.341  0.00  0.00    +0.000 N 
ATOM     36  C   UNL     1       5.008   5.560  18.485  0.00  0.00    +0.000 C 
ATOM     37  O   UNL     1       5.470   5.518  19.613  0.00  0.00    +0.000 OA
ENDBRANCH  29  36
ENDBRANCH   1  29
TORSDOF 3
ENDMDL
MODEL 3
REMARK VINA RESULT:      -7.9      1.173      1.501
REMARK  Name = 
REMARK  6 active torsions:
REMARK  status: ('A' for Active; 'I' for Inactive)
REMARK    1  A    between atoms: C_1  and  C_2
REMARK    2  A    between atoms: C_7  and  O_9
REMARK    3  A    between atoms: O_9  and  C_10
REMARK    4  A    between atoms: C_13  and  C_14
REMARK    5  A    between atoms: C_22  and  N_23
REMARK    6  A    between atoms: C_32  and  C_33
REMARK                            x       y       z     vdW  Elec       q    Type
REMARK                         _______ _______ _______ _____ _____    ______ ____
ROOT
ATOM      1  C   UNL     1       1.574   8.066  20.001  0.00  0.00    +0.000 C 
ATOM      2  C   UNL     1       1.792   8.820  21.315  0.00  0.00    +0.000 C 
ATOM      3  C   UNL     1       0.589   9.734  21.615  0.00  0.00    +0.000 C 
ATOM      4  C   UNL     1       0.178  10.713  20.463  0.00  0.00    +0.000 C 
ATOM      5  C   UNL     1       1.225  11.846  20.356  0.00  0.00    +0.000 C 
ATOM      6  C   UNL     1       0.169   9.954  19.128  0.00  0.00    +0.000 C 
ATOM      7  C   UNL     1      -0.847  10.041  18.249  0.00  0.00    +0.000 C 
ATOM      8  C   UNL     1      -2.085  10.873  18.431  0.00  0.00    +0.000 C 
ATOM      9  C   UNL     1      -1.968  11.921  19.546  0.00  0.00    +0.000 C 
ATOM     10  C   UNL     1      -3.349  12.447  19.992  0.00  0.00    +0.000 C 
ATOM     11  C   UNL     1      -4.375  12.987  19.001  0.00  0.00    +0.000 C 
ATOM     12  C   UNL     1      -5.328  13.638  19.977  0.00  0.00    +0.000 C 
ATOM     13  C   UNL     1      -4.730  13.950  21.147  0.00  0.00    +0.000 C 
ATOM     14  C   UNL     1      -3.252  13.561  21.072  0.00  0.00    +0.000 C 
ATOM     15  C   UNL     1      -2.422  14.783  20.609  0.00  0.00    +0.000 C 
ATOM     16  C   UNL     1      -2.645  12.879  22.311  0.00  0.00    +0.000 C 
ATOM     17  C   UNL     1      -1.274  12.261  22.010  0.00  0.00    +0.000 C 
ATOM     18  C   UNL     1      -1.258  11.300  20.793  0.00  0.00    +0.000 C 
ATOM     19  C   UNL     1       1.365   9.055  18.848  0.00  0.00    +0.000 C 
ENDROOT
BRANCH  13  20
ATOM     20  N   UNL     1      -5.297  14.596  22.267  0.00  0.00    +0.000 N 
ATOM     21  C   UNL     1      -6.128  14.013  23.209  0.00  0.00    +0.000 A 
ATOM     22  N   UNL     1      -6.421  14.791  24.221  0.00  0.00    +0.000 NA
ATOM     23  C   UNL     1      -5.798  15.966  23.937  0.00  0.00    +0.000 A 
ATOM     24  C   UNL     1      -5.774  17.141  24.704  0.00  0.00    +0.000 A 
ATOM     25  C   UNL     1      -5.109  18.261  24.202  0.00  0.00    +0.000 A 
ATOM     26  C   UNL     1      -4.519  18.223  22.941  0.00  0.00    +0.000 A 
ATOM     27  C   UNL     1      -4.526  17.054  22.163  0.00  0.00    +0.000 A 
ATOM     28  C   UNL     1      -5.134  15.912  22.708  0.00  0.00    +0.000 A 
ENDBRANCH  13  20
BRANCH   1  29
ATOM     29  O   UNL     1       2.554   7.031  19.728  0.00  0.00    +0.000 OA
BRANCH  29  36
ATOM     30  C   UNL     1       2.784   2.658  20.522  0.00  0.00    +0.000 C 
ATOM     31  C   UNL     1       3.721   3.604  19.859  0.00  0.00    +0.000 A 
ATOM     32  N   UNL     1       4.893   3.239  19.382  0.00  0.00    +0.000 NA
ATOM     33  C   UNL     1       5.478   4.367  18.895  0.00  0.00    +0.000 A 
ATOM     34  C   UNL     1       4.648   5.442  19.070  0.00  0.00    +0.000 A 
ATOM     35  N   UNL     1       3.492   4.969  19.679  0.00  0.00    +0.000 N 
ATOM     36  C   UNL     1       2.357   5.728  20.045  0.00  0.00    +0.000 C 
ATOM     37  O   UNL     1       1.390   5.223  20.591  0.00  0.00    +0.000 OA
ENDBRANCH  29  36
ENDBRANCH   1  29
TORSDOF 3
ENDMDL
MODEL 4
REMARK VINA RESULT:      -7.9      3.396      4.951
REMARK  Name = 
REMARK  6 active torsions:
REMARK  status: ('A' for Active; 'I' for Inactive)
REMARK    1  A    between atoms: C_1  and  C_2
REMARK    2  A    between atoms: C_7  and  O_9
REMARK    3  A    between atoms: O_9  and  C_10
REMARK    4  A    between atoms: C_13  and  C_14
REMARK    5  A    between atoms: C_22  and  N_23
REMARK    6  A    between atoms: C_32  and  C_33
REMARK                            x       y       z     vdW  Elec       q    Type
REMARK                         _______ _______ _______ _____ _____    ______ ____
ROOT
ATOM      1  C   UNL     1       3.280   6.412  19.014  0.00  0.00    +0.000 C 
ATOM      2  C   UNL     1       3.305   7.285  17.757  0.00  0.00    +0.000 C 
ATOM      3  C   UNL     1       2.886   8.728  18.097  0.00  0.00    +0.000 C 
ATOM      4  C   UNL     1       1.525   8.876  18.860  0.00  0.00    +0.000 C 
ATOM      5  C   UNL     1       0.358   8.587  17.887  0.00  0.00    +0.000 C 
ATOM      6  C   UNL     1       1.461   7.839  19.992  0.00  0.00    +0.000 C 
ATOM      7  C   UNL     1       1.084   8.154  21.246  0.00  0.00    +0.000 C 
ATOM      8  C   UNL     1       0.677   9.522  21.713  0.00  0.00    +0.000 C 
ATOM      9  C   UNL     1       0.368  10.500  20.571  0.00  0.00    +0.000 C 
ATOM     10  C   UNL     1       0.377  11.968  21.048  0.00  0.00    +0.000 C 
ATOM     11  C   UNL     1      -0.436  12.440  22.249  0.00  0.00    +0.000 C 
ATOM     12  C   UNL     1      -0.320  13.933  22.042  0.00  0.00    +0.000 C 
ATOM     13  C   UNL     1      -0.059  14.254  20.757  0.00  0.00    +0.000 C 
ATOM     14  C   UNL     1      -0.003  12.971  19.923  0.00  0.00    +0.000 C 
ATOM     15  C   UNL     1      -1.398  12.695  19.311  0.00  0.00    +0.000 C 
ATOM     16  C   UNL     1       1.124  12.864  18.881  0.00  0.00    +0.000 C 
ATOM     17  C   UNL     1       1.270  11.437  18.340  0.00  0.00    +0.000 C 
ATOM     18  C   UNL     1       1.431  10.350  19.435  0.00  0.00    +0.000 C 
ATOM     19  C   UNL     1       1.880   6.419  19.638  0.00  0.00    +0.000 C 
ENDROOT
BRANCH  13  20
ATOM     20  N   UNL     1       0.077  15.540  20.194  0.00  0.00    +0.000 N 
ATOM     21  C   UNL     1       1.266  16.143  19.817  0.00  0.00    +0.000 A 
ATOM     22  N   UNL     1       1.115  17.291  19.204  0.00  0.00    +0.000 NA
ATOM     23  C   UNL     1      -0.229  17.499  19.199  0.00  0.00    +0.000 A 
ATOM     24  C   UNL     1      -0.935  18.580  18.650  0.00  0.00    +0.000 A 
ATOM     25  C   UNL     1      -2.323  18.625  18.799  0.00  0.00    +0.000 A 
ATOM     26  C   UNL     1      -2.985  17.634  19.520  0.00  0.00    +0.000 A 
ATOM     27  C   UNL     1      -2.296  16.541  20.068  0.00  0.00    +0.000 A 
ATOM     28  C   UNL     1      -0.911  16.468  19.852  0.00  0.00    +0.000 A 
ENDBRANCH  13  20
BRANCH   1  29
ATOM     29  O   UNL     1       3.850   5.088  18.843  0.00  0.00    +0.000 OA
BRANCH  29  36
ATOM     30  C   UNL     1       6.151   3.662  15.310  0.00  0.00    +0.000 C 
ATOM     31  C   UNL     1       6.573   4.289  16.592  0.00  0.00    +0.000 A 
ATOM     32  N   UNL     1       7.834   4.510  16.903  0.00  0.00    +0.000 NA
ATOM     33  C   UNL     1       7.833   5.047  18.152  0.00  0.00    +0.000 A 
ATOM     34  C   UNL     1       6.548   5.163  18.615  0.00  0.00    +0.000 A 
ATOM     35  N   UNL     1       5.710   4.692  17.612  0.00  0.00    +0.000 N 
ATOM     36  C   UNL     1       4.298   4.628  17.650  0.00  0.00    +0.000 C 
ATOM     37  O   UNL     1       3.647   4.184  16.720  0.00  0.00    +0.000 OA
ENDBRANCH  29  36
ENDBRANCH   1  29
TORSDOF 3
ENDMDL
MODEL 5
REMARK VINA RESULT:      -7.9      6.653     11.889
REMARK  Name = 
REMARK  6 active torsions:
REMARK  status: ('A' for Active; 'I' for Inactive)
REMARK    1  A    between atoms: C_1  and  C_2
REMARK    2  A    between atoms: C_7  and  O_9
REMARK    3  A    between atoms: O_9  and  C_10
REMARK    4  A    between atoms: C_13  and  C_14
REMARK    5  A    between atoms: C_22  and  N_23
REMARK    6  A    between atoms: C_32  and  C_33
REMARK                            x       y       z     vdW  Elec       q    Type
REMARK                         _______ _______ _______ _____ _____    ______ ____
ROOT
ATOM      1  C   UNL     1      -0.602  13.363  20.145  0.00  0.00    +0.000 C 
ATOM      2  C   UNL     1      -0.157  13.364  18.681  0.00  0.00    +0.000 C 
ATOM      3  C   UNL     1       1.372  13.520  18.584  0.00  0.00    +0.000 C 
ATOM      4  C   UNL     1       1.980  14.738  19.361  0.00  0.00    +0.000 C 
ATOM      5  C   UNL     1       1.631  16.046  18.613  0.00  0.00    +0.000 C 
ATOM      6  C   UNL     1       1.351  14.814  20.760  0.00  0.00    +0.000 C 
ATOM      7  C   UNL     1       2.083  14.981  21.878  0.00  0.00    +0.000 C 
ATOM      8  C   UNL     1       3.578  15.120  21.924  0.00  0.00    +0.000 C 
ATOM      9  C   UNL     1       4.215  15.420  20.561  0.00  0.00    +0.000 C 
ATOM     10  C   UNL     1       5.732  15.134  20.555  0.00  0.00    +0.000 C 
ATOM     11  C   UNL     1       6.674  15.712  21.606  0.00  0.00    +0.000 C 
ATOM     12  C   UNL     1       7.994  15.403  20.937  0.00  0.00    +0.000 C 
ATOM     13  C   UNL     1       7.870  15.259  19.600  0.00  0.00    +0.000 C 
ATOM     14  C   UNL     1       6.411  15.498  19.205  0.00  0.00    +0.000 C 
ATOM     15  C   UNL     1       6.222  16.984  18.812  0.00  0.00    +0.000 C 
ATOM     16  C   UNL     1       5.801  14.538  18.169  0.00  0.00    +0.000 C 
ATOM     17  C   UNL     1       4.276  14.674  18.090  0.00  0.00    +0.000 C 
ATOM     18  C   UNL     1       3.550  14.540  19.453  0.00  0.00    +0.000 C 
ATOM     19  C   UNL     1      -0.161  14.658  20.836  0.00  0.00    +0.000 C 
ENDROOT
BRANCH  13  20
ATOM     20  N   UNL     1       8.888  15.005  18.656  0.00  0.00    +0.000 N 
ATOM     21  C   UNL     1       9.481  15.941  17.825  0.00  0.00    +0.000 A 
ATOM     22  N   UNL     1      10.487  15.478  17.126  0.00  0.00    +0.000 NA
ATOM     23  C   UNL     1      10.558  14.162  17.464  0.00  0.00    +0.000 A 
ATOM     24  C   UNL     1      11.474  13.200  17.011  0.00  0.00    +0.000 A 
ATOM     25  C   UNL     1      11.339  11.882  17.450  0.00  0.00    +0.000 A 
ATOM     26  C   UNL     1      10.284  11.522  18.287  0.00  0.00    +0.000 A 
ATOM     27  C   UNL     1       9.364  12.473  18.756  0.00  0.00    +0.000 A 
ATOM     28  C   UNL     1       9.550  13.809  18.367  0.00  0.00    +0.000 A 
ENDBRANCH  13  20
BRANCH   1  29
ATOM     29  O   UNL     1      -1.997  13.021  20.353  0.00  0.00    +0.000 OA
BRANCH  29  36
ATOM     30  C   UNL     1      -4.407  12.631  24.075  0.00  0.00    +0.000 C 
ATOM     31  C   UNL     1      -4.574  13.472  22.859  0.00  0.00    +0.000 A 
ATOM     32  N   UNL     1      -5.589  14.293  22.687  0.00  0.00    +0.000 NA
ATOM     33  C   UNL     1      -5.428  14.851  21.457  0.00  0.00    +0.000 A 
ATOM     34  C   UNL     1      -4.291  14.368  20.865  0.00  0.00    +0.000 A 
ATOM     35  N   UNL     1      -3.709  13.482  21.764  0.00  0.00    +0.000 N 
ATOM     36  C   UNL     1      -2.515  12.750  21.576  0.00  0.00    +0.000 C 
ATOM     37  O   UNL     1      -2.088  11.982  22.422  0.00  0.00    +0.000 OA
ENDBRANCH  29  36
ENDBRANCH   1  29
TORSDOF 3
ENDMDL
MODEL 6
REMARK VINA RESULT:      -7.9      2.485      3.840
REMARK  Name = 
REMARK  6 active torsions:
REMARK  status: ('A' for Active; 'I' for Inactive)
REMARK    1  A    between atoms: C_1  and  C_2
REMARK    2  A    between atoms: C_7  and  O_9
REMARK    3  A    between atoms: O_9  and  C_10
REMARK    4  A    between atoms: C_13  and  C_14
REMARK    5  A    between atoms: C_22  and  N_23
REMARK    6  A    between atoms: C_32  and  C_33
REMARK                            x       y       z     vdW  Elec       q    Type
REMARK                         _______ _______ _______ _____ _____    ______ ____
ROOT
ATOM      1  C   UNL     1       3.310   7.272  18.504  0.00  0.00    +0.000 C 
ATOM      2  C   UNL     1       3.072   8.301  17.396  0.00  0.00    +0.000 C 
ATOM      3  C   UNL     1       2.469   9.592  17.983  0.00  0.00    +0.000 C 
ATOM      4  C   UNL     1       1.188   9.402  18.864  0.00  0.00    +0.000 C 
ATOM      5  C   UNL     1      -0.013   9.056  17.952  0.00  0.00    +0.000 C 
ATOM      6  C   UNL     1       1.400   8.223  19.826  0.00  0.00    +0.000 C 
ATOM      7  C   UNL     1       1.109   8.295  21.139  0.00  0.00    +0.000 C 
ATOM      8  C   UNL     1       0.543   9.497  21.839  0.00  0.00    +0.000 C 
ATOM      9  C   UNL     1      -0.028  10.556  20.887  0.00  0.00    +0.000 C 
ATOM     10  C   UNL     1      -0.199  11.925  21.579  0.00  0.00    +0.000 C 
ATOM     11  C   UNL     1      -0.949  12.084  22.898  0.00  0.00    +0.000 C 
ATOM     12  C   UNL     1      -1.088  13.589  22.912  0.00  0.00    +0.000 C 
ATOM     13  C   UNL     1      -1.013  14.123  21.674  0.00  0.00    +0.000 C 
ATOM     14  C   UNL     1      -0.843  12.995  20.653  0.00  0.00    +0.000 C 
ATOM     15  C   UNL     1      -2.234  12.575  20.117  0.00  0.00    +0.000 C 
ATOM     16  C   UNL     1       0.175  13.224  19.522  0.00  0.00    +0.000 C 
ATOM     17  C   UNL     1       0.485  11.929  18.761  0.00  0.00    +0.000 C 
ATOM     18  C   UNL     1       0.924  10.746  19.662  0.00  0.00    +0.000 C 
ATOM     19  C   UNL     1       1.997   6.956  19.229  0.00  0.00    +0.000 C 
ENDROOT
BRANCH  13  20
ATOM     20  N   UNL     1      -1.137  15.479  21.304  0.00  0.00    +0.000 N 
ATOM     21  C   UNL     1      -0.108  16.404  21.245  0.00  0.00    +0.000 A 
ATOM     22  N   UNL     1      -0.459  17.567  20.754  0.00  0.00    +0.000 NA
ATOM     23  C   UNL     1      -1.790  17.442  20.506  0.00  0.00    +0.000 A 
ATOM     24  C   UNL     1      -2.662  18.397  19.959  0.00  0.00    +0.000 A 
ATOM     25  C   UNL     1      -4.016  18.079  19.833  0.00  0.00    +0.000 A 
ATOM     26  C   UNL     1      -4.497  16.853  20.286  0.00  0.00    +0.000 A 
ATOM     27  C   UNL     1      -3.638  15.884  20.828  0.00  0.00    +0.000 A 
ATOM     28  C   UNL     1      -2.268  16.184  20.884  0.00  0.00    +0.000 A 
ENDBRANCH  13  20
BRANCH   1  29
ATOM     29  O   UNL     1       4.059   6.100  18.090  0.00  0.00    +0.000 OA
BRANCH  29  36
ATOM     30  C   UNL     1       4.609   2.266  20.283  0.00  0.00    +0.000 C 
ATOM     31  C   UNL     1       3.749   2.643  19.129  0.00  0.00    +0.000 A 
ATOM     32  N   UNL     1       2.959   1.789  18.512  0.00  0.00    +0.000 NA
ATOM     33  C   UNL     1       2.370   2.475  17.495  0.00  0.00    +0.000 A 
ATOM     34  C   UNL     1       2.802   3.775  17.492  0.00  0.00    +0.000 A 
ATOM     35  N   UNL     1       3.686   3.914  18.555  0.00  0.00    +0.000 N 
ATOM     36  C   UNL     1       4.373   5.089  18.936  0.00  0.00    +0.000 C 
ATOM     37  O   UNL     1       5.143   5.109  19.881  0.00  0.00    +0.000 OA
ENDBRANCH  29  36
ENDBRANCH   1  29
TORSDOF 3
ENDMDL
MODEL 7
REMARK VINA RESULT:      -7.8      1.187      1.719
REMARK  Name = 
REMARK  6 active torsions:
REMARK  status: ('A' for Active; 'I' for Inactive)
REMARK    1  A    between atoms: C_1  and  C_2
REMARK    2  A    between atoms: C_7  and  O_9
REMARK    3  A    between atoms: O_9  and  C_10
REMARK    4  A    between atoms: C_13  and  C_14
REMARK    5  A    between atoms: C_22  and  N_23
REMARK    6  A    between atoms: C_32  and  C_33
REMARK                            x       y       z     vdW  Elec       q    Type
REMARK                         _______ _______ _______ _____ _____    ______ ____
ROOT
ATOM      1  C   UNL     1       1.783   7.873  19.601  0.00  0.00    +0.000 C 
ATOM      2  C   UNL     1       1.909   8.568  20.958  0.00  0.00    +0.000 C 
ATOM      3  C   UNL     1       0.650   9.406  21.252  0.00  0.00    +0.000 C 
ATOM      4  C   UNL     1       0.236  10.422  20.133  0.00  0.00    +0.000 C 
ATOM      5  C   UNL     1       1.228  11.608  20.127  0.00  0.00    +0.000 C 
ATOM      6  C   UNL     1       0.320   9.733  18.763  0.00  0.00    +0.000 C 
ATOM      7  C   UNL     1      -0.664   9.815  17.846  0.00  0.00    +0.000 C 
ATOM      8  C   UNL     1      -1.948  10.576  18.016  0.00  0.00    +0.000 C 
ATOM      9  C   UNL     1      -1.930  11.569  19.186  0.00  0.00    +0.000 C 
ATOM     10  C   UNL     1      -3.352  12.003  19.598  0.00  0.00    +0.000 C 
ATOM     11  C   UNL     1      -4.364  12.543  18.592  0.00  0.00    +0.000 C 
ATOM     12  C   UNL     1      -5.387  13.097  19.557  0.00  0.00    +0.000 C 
ATOM     13  C   UNL     1      -4.853  13.376  20.766  0.00  0.00    +0.000 C 
ATOM     14  C   UNL     1      -3.355  13.064  20.735  0.00  0.00    +0.000 C 
ATOM     15  C   UNL     1      -2.570  14.347  20.368  0.00  0.00    +0.000 C 
ATOM     16  C   UNL     1      -2.765  12.349  21.963  0.00  0.00    +0.000 C 
ATOM     17  C   UNL     1      -1.354  11.815  21.691  0.00  0.00    +0.000 C 
ATOM     18  C   UNL     1      -1.239  10.920  20.430  0.00  0.00    +0.000 C 
ATOM     19  C   UNL     1       1.570   8.909  18.491  0.00  0.00    +0.000 C 
ENDROOT
BRANCH  13  20
ATOM     20  N   UNL     1      -5.496  13.935  21.891  0.00  0.00    +0.000 N 
ATOM     21  C   UNL     1      -6.144  13.231  22.893  0.00  0.00    +0.000 A 
ATOM     22  N   UNL     1      -6.553  13.972  23.892  0.00  0.00    +0.000 NA
ATOM     23  C   UNL     1      -6.206  15.239  23.539  0.00  0.00    +0.000 A 
ATOM     24  C   UNL     1      -6.402  16.424  24.264  0.00  0.00    +0.000 A 
ATOM     25  C   UNL     1      -6.012  17.637  23.693  0.00  0.00    +0.000 A 
ATOM     26  C   UNL     1      -5.482  17.670  22.405  0.00  0.00    +0.000 A 
ATOM     27  C   UNL     1      -5.272  16.494  21.668  0.00  0.00    +0.000 A 
ATOM     28  C   UNL     1      -5.600  15.274  22.279  0.00  0.00    +0.000 A 
ENDBRANCH  13  20
BRANCH   1  29
ATOM     29  O   UNL     1       2.824   6.902  19.319  0.00  0.00    +0.000 OA
BRANCH  29  36
ATOM     30  C   UNL     1       2.716   2.813  17.564  0.00  0.00    +0.000 C 
ATOM     31  C   UNL     1       3.550   4.008  17.264  0.00  0.00    +0.000 A 
ATOM     32  N   UNL     1       4.497   4.013  16.349  0.00  0.00    +0.000 NA
ATOM     33  C   UNL     1       5.064   5.249  16.388  0.00  0.00    +0.000 A 
ATOM     34  C   UNL     1       4.451   6.019  17.341  0.00  0.00    +0.000 A 
ATOM     35  N   UNL     1       3.452   5.240  17.913  0.00  0.00    +0.000 N 
ATOM     36  C   UNL     1       2.560   5.629  18.938  0.00  0.00    +0.000 C 
ATOM     37  O   UNL     1       1.721   4.866  19.387  0.00  0.00    +0.000 OA
ENDBRANCH  29  36
ENDBRANCH   1  29
TORSDOF 3
ENDMDL
MODEL 8
REMARK VINA RESULT:      -7.8      6.133      7.867
REMARK  Name = 
REMARK  6 active torsions:
REMARK  status: ('A' for Active; 'I' for Inactive)
REMARK    1  A    between atoms: C_1  and  C_2
REMARK    2  A    between atoms: C_7  and  O_9
REMARK    3  A    between atoms: O_9  and  C_10
REMARK    4  A    between atoms: C_13  and  C_14
REMARK    5  A    between atoms: C_22  and  N_23
REMARK    6  A    between atoms: C_32  and  C_33
REMARK                            x       y       z     vdW  Elec       q    Type
REMARK                         _______ _______ _______ _____ _____    ______ ____
ROOT
ATOM      1  C   UNL     1       6.563  14.957  19.860  0.00  0.00    +0.000 C 
ATOM      2  C   UNL     1       5.995  15.530  21.160  0.00  0.00    +0.000 C 
ATOM      3  C   UNL     1       4.569  14.999  21.403  0.00  0.00    +0.000 C 
ATOM      4  C   UNL     1       3.565  15.188  20.215  0.00  0.00    +0.000 C 
ATOM      5  C   UNL     1       3.172  16.681  20.110  0.00  0.00    +0.000 C 
ATOM      6  C   UNL     1       4.250  14.789  18.900  0.00  0.00    +0.000 C 
ATOM      7  C   UNL     1       3.666  13.987  17.990  0.00  0.00    +0.000 C 
ATOM      8  C   UNL     1       2.295  13.385  18.115  0.00  0.00    +0.000 C 
ATOM      9  C   UNL     1       1.432  14.032  19.207  0.00  0.00    +0.000 C 
ATOM     10  C   UNL     1       0.233  13.142  19.600  0.00  0.00    +0.000 C 
ATOM     11  C   UNL     1      -0.735  12.576  18.566  0.00  0.00    +0.000 C 
ATOM     12  C   UNL     1      -1.830  12.109  19.497  0.00  0.00    +0.000 C 
ATOM     13  C   UNL     1      -1.817  12.768  20.676  0.00  0.00    +0.000 C 
ATOM     14  C   UNL     1      -0.695  13.809  20.653  0.00  0.00    +0.000 C 
ATOM     15  C   UNL     1      -1.267  15.169  20.183  0.00  0.00    +0.000 C 
ATOM     16  C   UNL     1       0.160  13.943  21.926  0.00  0.00    +0.000 C 
ATOM     17  C   UNL     1       1.425  14.773  21.680  0.00  0.00    +0.000 C 
ATOM     18  C   UNL     1       2.290  14.286  20.488  0.00  0.00    +0.000 C 
ATOM     19  C   UNL     1       5.659  15.322  18.678  0.00  0.00    +0.000 C 
ENDROOT
BRANCH  13  20
ATOM     20  N   UNL     1      -2.705  12.623  21.762  0.00  0.00    +0.000 N 
ATOM     21  C   UNL     1      -2.476  11.881  22.910  0.00  0.00    +0.000 A 
ATOM     22  N   UNL     1      -3.405  12.006  23.825  0.00  0.00    +0.000 NA
ATOM     23  C   UNL     1      -4.325  12.835  23.262  0.00  0.00    +0.000 A 
ATOM     24  C   UNL     1      -5.521  13.309  23.825  0.00  0.00    +0.000 A 
ATOM     25  C   UNL     1      -6.355  14.119  23.051  0.00  0.00    +0.000 A 
ATOM     26  C   UNL     1      -6.025  14.411  21.730  0.00  0.00    +0.000 A 
ATOM     27  C   UNL     1      -4.830  13.951  21.154  0.00  0.00    +0.000 A 
ATOM     28  C   UNL     1      -3.964  13.198  21.962  0.00  0.00    +0.000 A 
ENDBRANCH  13  20
BRANCH   1  29
ATOM     29  O   UNL     1       7.971  15.233  19.642  0.00  0.00    +0.000 OA
BRANCH  29  36
ATOM     30  C   UNL     1      11.108  13.170  17.252  0.00  0.00    +0.000 C 
ATOM     31  C   UNL     1      10.710  14.599  17.357  0.00  0.00    +0.000 A 
ATOM     32  N   UNL     1      11.318  15.565  16.700  0.00  0.00    +0.000 NA
ATOM     33  C   UNL     1      10.715  16.725  17.075  0.00  0.00    +0.000 A 
ATOM     34  C   UNL     1       9.715  16.467  17.975  0.00  0.00    +0.000 A 
ATOM     35  N   UNL     1       9.681  15.090  18.161  0.00  0.00    +0.000 N 
ATOM     36  C   UNL     1       8.800  14.372  19.003  0.00  0.00    +0.000 C 
ATOM     37  O   UNL     1       8.856  13.159  19.112  0.00  0.00    +0.000 OA
ENDBRANCH  29  36
ENDBRANCH   1  29
TORSDOF 3
ENDMDL
MODEL 9
REMARK VINA RESULT:      -7.8      6.862     11.688
REMARK  Name = 
REMARK  6 active torsions:
REMARK  status: ('A' for Active; 'I' for Inactive)
REMARK    1  A    between atoms: C_1  and  C_2
REMARK    2  A    between atoms: C_7  and  O_9
REMARK    3  A    between atoms: O_9  and  C_10
REMARK    4  A    between atoms: C_13  and  C_14
REMARK    5  A    between atoms: C_22  and  N_23
REMARK    6  A    between atoms: C_32  and  C_33
REMARK                            x       y       z     vdW  Elec       q    Type
REMARK                         _______ _______ _______ _____ _____    ______ ____
ROOT
ATOM      1  C   UNL     1      -0.182  12.969  20.048  0.00  0.00    +0.000 C 
ATOM      2  C   UNL     1       0.254  13.025  18.582  0.00  0.00    +0.000 C 
ATOM      3  C   UNL     1       1.766  13.301  18.482  0.00  0.00    +0.000 C 
ATOM      4  C   UNL     1       2.281  14.552  19.273  0.00  0.00    +0.000 C 
ATOM      5  C   UNL     1       1.827  15.839  18.545  0.00  0.00    +0.000 C 
ATOM      6  C   UNL     1       1.655  14.561  20.676  0.00  0.00    +0.000 C 
ATOM      7  C   UNL     1       2.377  14.769  21.793  0.00  0.00    +0.000 C 
ATOM      8  C   UNL     1       3.857  15.024  21.835  0.00  0.00    +0.000 C 
ATOM      9  C   UNL     1       4.462  15.391  20.474  0.00  0.00    +0.000 C 
ATOM     10  C   UNL     1       5.996  15.225  20.458  0.00  0.00    +0.000 C 
ATOM     11  C   UNL     1       6.896  15.860  21.513  0.00  0.00    +0.000 C 
ATOM     12  C   UNL     1       8.232  15.664  20.835  0.00  0.00    +0.000 C 
ATOM     13  C   UNL     1       8.114  15.529  19.497  0.00  0.00    +0.000 C 
ATOM     14  C   UNL     1       6.638  15.659  19.111  0.00  0.00    +0.000 C 
ATOM     15  C   UNL     1       6.331  17.130  18.739  0.00  0.00    +0.000 C 
ATOM     16  C   UNL     1       6.100  14.668  18.063  0.00  0.00    +0.000 C 
ATOM     17  C   UNL     1       4.569  14.685  17.992  0.00  0.00    +0.000 C 
ATOM     18  C   UNL     1       3.862  14.477  19.357  0.00  0.00    +0.000 C 
ATOM     19  C   UNL     1       0.160  14.285  20.756  0.00  0.00    +0.000 C 
ENDROOT
BRANCH  13  20
ATOM     20  N   UNL     1       9.143  15.368  18.545  0.00  0.00    +0.000 N 
ATOM     21  C   UNL     1       9.745  16.381  17.816  0.00  0.00    +0.000 A 
ATOM     22  N   UNL     1      10.761  15.987  17.088  0.00  0.00    +0.000 NA
ATOM     23  C   UNL     1      10.829  14.646  17.298  0.00  0.00    +0.000 A 
ATOM     24  C   UNL     1      11.752  13.732  16.766  0.00  0.00    +0.000 A 
ATOM     25  C   UNL     1      11.614  12.377  17.073  0.00  0.00    +0.000 A 
ATOM     26  C   UNL     1      10.550  11.938  17.858  0.00  0.00    +0.000 A 
ATOM     27  C   UNL     1       9.623  12.838  18.405  0.00  0.00    +0.000 A 
ATOM     28  C   UNL     1       9.811  14.206  18.150  0.00  0.00    +0.000 A 
ENDBRANCH  13  20
BRANCH   1  29
ATOM     29  O   UNL     1      -1.545  12.516  20.257  0.00  0.00    +0.000 OA
BRANCH  29  36
ATOM     30  C   UNL     1      -4.630  11.032  17.413  0.00  0.00    +0.000 C 
ATOM     31  C   UNL     1      -4.720  11.881  18.632  0.00  0.00    +0.000 A 
ATOM     32  N   UNL     1      -5.852  12.389  19.073  0.00  0.00    +0.000 NA
ATOM     33  C   UNL     1      -5.539  13.133  20.167  0.00  0.00    +0.000 A 
ATOM     34  C   UNL     1      -4.191  13.077  20.406  0.00  0.00    +0.000 A 
ATOM     35  N   UNL     1      -3.639  12.256  19.431  0.00  0.00    +0.000 N 
ATOM     36  C   UNL     1      -2.275  11.909  19.291  0.00  0.00    +0.000 C 
ATOM     37  O   UNL     1      -1.882  11.188  18.389  0.00  0.00    +0.000 OA
ENDBRANCH  29  36
ENDBRANCH   1  29
TORSDOF 3
ENDMDL
