MODEL 1
REMARK VINA RESULT:      -6.9      0.000      0.000
REMARK  Name = 
REMARK  7 active torsions:
REMARK  status: ('A' for Active; 'I' for Inactive)
REMARK    1  A    between atoms: C_1  and  C_2
REMARK    2  A    between atoms: C_2  and  C_15
REMARK    3  A    between atoms: N_3  and  N_4
REMARK    4  A    between atoms: N_4  and  C_5
REMARK    5  A    between atoms: C_5  and  C_6
REMARK    6  A    between atoms: C_7  and  C_8
REMARK    7  A    between atoms: C_15  and  O_17
REMARK                            x       y       z     vdW  Elec       q    Type
REMARK                         _______ _______ _______ _____ _____    ______ ____
ROOT
ATOM      1  C   UNL     1       6.232   4.063  15.180  0.00  0.00    +0.000 C 
ENDROOT
BRANCH   1   2
ATOM      2  N   UNL     1       7.295   5.010  15.532  0.00  0.00    +0.000 N 
ATOM      3  H   UNL     1       7.022   5.930  15.175  0.00  0.00    +0.000 HD
BRANCH   2   6
ATOM      4  C   UNL     1       6.439   7.244  17.074  0.00  0.00    +0.000 C 
ATOM      5  C   UNL     1       7.278   6.080  17.528  0.00  0.00    +0.000 C 
ATOM      6  N   UNL     1       7.682   5.052  16.829  0.00  0.00    +0.000 NA
BRANCH   5   7
ATOM      7  C   UNL     1       7.725   6.117  18.993  0.00  0.00    +0.000 C 
ATOM      8  O   UNL     1       7.307   5.349  19.833  0.00  0.00    +0.000 OA
BRANCH   7   9
ATOM      9  O   UNL     1       8.630   7.091  19.195  0.00  0.00    +0.000 OA
ATOM     10  H   UNL     1       8.147   7.931  19.371  0.00  0.00    +0.000 HD
ENDBRANCH   7   9
ENDBRANCH   5   7
ENDBRANCH   2   6
ENDBRANCH   1   2
BRANCH   1  11
ATOM     11  C   UNL     1       5.444   3.726  16.412  0.00  0.00    +0.000 C 
ATOM     12  C   UNL     1       4.227   4.218  16.698  0.00  0.00    +0.000 C 
BRANCH  12  13
ATOM     13  C   UNL     1       3.453   3.870  17.902  0.00  0.00    +0.000 A 
ATOM     14  C   UNL     1       2.425   4.687  18.394  0.00  0.00    +0.000 A 
ATOM     15  C   UNL     1       1.705   4.322  19.537  0.00  0.00    +0.000 A 
ATOM     16  C   UNL     1       1.998   3.128  20.188  0.00  0.00    +0.000 A 
ATOM     17 CL   UNL     1       1.118   2.683  21.596  0.00  0.00    +0.000 Cl
ATOM     18  C   UNL     1       2.999   2.291  19.700  0.00  0.00    +0.000 A 
ATOM     19  C   UNL     1       3.719   2.659  18.558  0.00  0.00    +0.000 A 
ENDBRANCH  12  13
ENDBRANCH   1  11
TORSDOF 6
ENDMDL
MODEL 2
REMARK VINA RESULT:      -6.7      1.168      1.762
REMARK  Name = 
REMARK  7 active torsions:
REMARK  status: ('A' for Active; 'I' for Inactive)
REMARK    1  A    between atoms: C_1  and  C_2
REMARK    2  A    between atoms: C_2  and  C_15
REMARK    3  A    between atoms: N_3  and  N_4
REMARK    4  A    between atoms: N_4  and  C_5
REMARK    5  A    between atoms: C_5  and  C_6
REMARK    6  A    between atoms: C_7  and  C_8
REMARK    7  A    between atoms: C_15  and  O_17
REMARK                            x       y       z     vdW  Elec       q    Type
REMARK                         _______ _______ _______ _____ _____    ______ ____
ROOT
ATOM      1  C   UNL     1       6.063   4.526  14.675  0.00  0.00    +0.000 C 
ENDROOT
BRANCH   1   2
ATOM      2  N   UNL     1       7.358   4.848  15.281  0.00  0.00    +0.000 N 
ATOM      3  H   UNL     1       8.083   4.667  14.582  0.00  0.00    +0.000 HD
BRANCH   2   6
ATOM      4  C   UNL     1       7.675   4.929  18.109  0.00  0.00    +0.000 C 
ATOM      5  C   UNL     1       7.638   6.091  17.155  0.00  0.00    +0.000 C 
ATOM      6  N   UNL     1       7.487   6.068  15.856  0.00  0.00    +0.000 NA
BRANCH   5   7
ATOM      7  C   UNL     1       7.781   7.477  17.792  0.00  0.00    +0.000 C 
ATOM      8  O   UNL     1       7.292   8.479  17.317  0.00  0.00    +0.000 OA
BRANCH   7   9
ATOM      9  O   UNL     1       8.498   7.411  18.928  0.00  0.00    +0.000 OA
ATOM     10  H   UNL     1       8.666   8.330  19.241  0.00  0.00    +0.000 HD
ENDBRANCH   7   9
ENDBRANCH   5   7
ENDBRANCH   2   6
ENDBRANCH   1   2
BRANCH   1  11
ATOM     11  C   UNL     1       5.027   4.414  15.754  0.00  0.00    +0.000 C 
ATOM     12  C   UNL     1       4.933   3.390  16.619  0.00  0.00    +0.000 C 
BRANCH  12  13
ATOM     13  C   UNL     1       3.923   3.296  17.687  0.00  0.00    +0.000 A 
ATOM     14  C   UNL     1       4.271   3.190  19.041  0.00  0.00    +0.000 A 
ATOM     15  C   UNL     1       3.285   3.111  20.031  0.00  0.00    +0.000 A 
ATOM     16  C   UNL     1       1.942   3.152  19.674  0.00  0.00    +0.000 A 
ATOM     17 CL   UNL     1       0.730   3.047  20.890  0.00  0.00    +0.000 Cl
ATOM     18  C   UNL     1       1.575   3.282  18.336  0.00  0.00    +0.000 A 
ATOM     19  C   UNL     1       2.563   3.359  17.348  0.00  0.00    +0.000 A 
ENDBRANCH  12  13
ENDBRANCH   1  11
TORSDOF 6
ENDMDL
MODEL 3
REMARK VINA RESULT:      -6.6      0.779      1.509
REMARK  Name = 
REMARK  7 active torsions:
REMARK  status: ('A' for Active; 'I' for Inactive)
REMARK    1  A    between atoms: C_1  and  C_2
REMARK    2  A    between atoms: C_2  and  C_15
REMARK    3  A    between atoms: N_3  and  N_4
REMARK    4  A    between atoms: N_4  and  C_5
REMARK    5  A    between atoms: C_5  and  C_6
REMARK    6  A    between atoms: C_7  and  C_8
REMARK    7  A    between atoms: C_15  and  O_17
REMARK                            x       y       z     vdW  Elec       q    Type
REMARK                         _______ _______ _______ _____ _____    ______ ____
ROOT
ATOM      1  C   UNL     1       6.177   4.167  15.162  0.00  0.00    +0.000 C 
ENDROOT
BRANCH   1   2
ATOM      2  N   UNL     1       6.623   5.561  15.237  0.00  0.00    +0.000 N 
ATOM      3  H   UNL     1       5.791   6.156  15.204  0.00  0.00    +0.000 HD
BRANCH   2   6
ATOM      4  C   UNL     1       5.596   7.291  17.251  0.00  0.00    +0.000 C 
ATOM      5  C   UNL     1       6.970   6.683  17.175  0.00  0.00    +0.000 C 
ATOM      6  N   UNL     1       7.455   5.892  16.253  0.00  0.00    +0.000 NA
BRANCH   5   7
ATOM      7  C   UNL     1       7.921   7.051  18.318  0.00  0.00    +0.000 C 
ATOM      8  O   UNL     1       8.443   8.141  18.422  0.00  0.00    +0.000 OA
BRANCH   7   9
ATOM      9  O   UNL     1       8.074   6.019  19.166  0.00  0.00    +0.000 OA
ATOM     10  H   UNL     1       7.571   5.249  18.811  0.00  0.00    +0.000 HD
ENDBRANCH   7   9
ENDBRANCH   5   7
ENDBRANCH   2   6
ENDBRANCH   1   2
BRANCH   1  11
ATOM     11  C   UNL     1       5.474   3.805  16.437  0.00  0.00    +0.000 C 
ATOM     12  C   UNL     1       4.168   4.013  16.674  0.00  0.00    +0.000 C 
BRANCH  12  13
ATOM     13  C   UNL     1       3.481   3.640  17.923  0.00  0.00    +0.000 A 
ATOM     14  C   UNL     1       4.141   2.988  18.974  0.00  0.00    +0.000 A 
ATOM     15  C   UNL     1       3.461   2.655  20.151  0.00  0.00    +0.000 A 
ATOM     16  C   UNL     1       2.117   2.985  20.290  0.00  0.00    +0.000 A 
ATOM     17 CL   UNL     1       1.279   2.570  21.733  0.00  0.00    +0.000 Cl
ATOM     18  C   UNL     1       1.450   3.655  19.267  0.00  0.00    +0.000 A 
ATOM     19  C   UNL     1       2.132   3.986  18.090  0.00  0.00    +0.000 A 
ENDBRANCH  12  13
ENDBRANCH   1  11
TORSDOF 6
ENDMDL
MODEL 4
REMARK VINA RESULT:      -6.6      0.923      1.127
REMARK  Name = 
REMARK  7 active torsions:
REMARK  status: ('A' for Active; 'I' for Inactive)
REMARK    1  A    between atoms: C_1  and  C_2
REMARK    2  A    between atoms: C_2  and  C_15
REMARK    3  A    between atoms: N_3  and  N_4
REMARK    4  A    between atoms: N_4  and  C_5
REMARK    5  A    between atoms: C_5  and  C_6
REMARK    6  A    between atoms: C_7  and  C_8
REMARK    7  A    between atoms: C_15  and  O_17
REMARK                            x       y       z     vdW  Elec       q    Type
REMARK                         _______ _______ _______ _____ _____    ______ ____
ROOT
ATOM      1  C   UNL     1       6.068   5.244  14.964  0.00  0.00    +0.000 C 
ENDROOT
BRANCH   1   2
ATOM      2  N   UNL     1       7.401   5.349  15.566  0.00  0.00    +0.000 N 
ATOM      3  H   UNL     1       7.735   6.305  15.418  0.00  0.00    +0.000 HD
BRANCH   2   6
ATOM      4  C   UNL     1       7.426   7.376  17.563  0.00  0.00    +0.000 C 
ATOM      5  C   UNL     1       7.537   5.889  17.762  0.00  0.00    +0.000 C 
ATOM      6  N   UNL     1       7.533   4.948  16.853  0.00  0.00    +0.000 NA
BRANCH   5   7
ATOM      7  C   UNL     1       7.688   5.424  19.213  0.00  0.00    +0.000 C 
ATOM      8  O   UNL     1       8.759   5.153  19.715  0.00  0.00    +0.000 OA
BRANCH   7   9
ATOM      9  O   UNL     1       6.494   5.376  19.829  0.00  0.00    +0.000 OA
ATOM     10  H   UNL     1       6.024   4.563  19.530  0.00  0.00    +0.000 HD
ENDBRANCH   7   9
ENDBRANCH   5   7
ENDBRANCH   2   6
ENDBRANCH   1   2
BRANCH   1  11
ATOM     11  C   UNL     1       5.055   5.020  16.047  0.00  0.00    +0.000 C 
ATOM     12  C   UNL     1       4.678   3.813  16.503  0.00  0.00    +0.000 C 
BRANCH  12  13
ATOM     13  C   UNL     1       3.694   3.603  17.578  0.00  0.00    +0.000 A 
ATOM     14  C   UNL     1       2.321   3.820  17.391  0.00  0.00    +0.000 A 
ATOM     15  C   UNL     1       1.412   3.604  18.432  0.00  0.00    +0.000 A 
ATOM     16  C   UNL     1       1.869   3.153  19.666  0.00  0.00    +0.000 A 
ATOM     17 CL   UNL     1       0.753   2.893  20.949  0.00  0.00    +0.000 Cl
ATOM     18  C   UNL     1       3.225   2.907  19.866  0.00  0.00    +0.000 A 
ATOM     19  C   UNL     1       4.133   3.127  18.823  0.00  0.00    +0.000 A 
ENDBRANCH  12  13
ENDBRANCH   1  11
TORSDOF 6
ENDMDL
MODEL 5
REMARK VINA RESULT:      -6.5      1.146      1.647
REMARK  Name = 
REMARK  7 active torsions:
REMARK  status: ('A' for Active; 'I' for Inactive)
REMARK    1  A    between atoms: C_1  and  C_2
REMARK    2  A    between atoms: C_2  and  C_15
REMARK    3  A    between atoms: N_3  and  N_4
REMARK    4  A    between atoms: N_4  and  C_5
REMARK    5  A    between atoms: C_5  and  C_6
REMARK    6  A    between atoms: C_7  and  C_8
REMARK    7  A    between atoms: C_15  and  O_17
REMARK                            x       y       z     vdW  Elec       q    Type
REMARK                         _______ _______ _______ _____ _____    ______ ____
ROOT
ATOM      1  C   UNL     1       6.394   4.822  14.684  0.00  0.00    +0.000 C 
ENDROOT
BRANCH   1   2
ATOM      2  N   UNL     1       7.554   5.261  15.465  0.00  0.00    +0.000 N 
ATOM      3  H   UNL     1       7.631   6.276  15.364  0.00  0.00    +0.000 HD
BRANCH   2   6
ATOM      4  C   UNL     1       7.386   7.288  17.457  0.00  0.00    +0.000 C 
ATOM      5  C   UNL     1       7.531   5.805  17.665  0.00  0.00    +0.000 C 
ATOM      6  N   UNL     1       7.615   4.865  16.760  0.00  0.00    +0.000 NA
BRANCH   5   7
ATOM      7  C   UNL     1       7.602   5.344  19.124  0.00  0.00    +0.000 C 
ATOM      8  O   UNL     1       8.580   5.507  19.824  0.00  0.00    +0.000 OA
BRANCH   7   9
ATOM      9  O   UNL     1       6.450   4.764  19.501  0.00  0.00    +0.000 OA
ATOM     10  H   UNL     1       6.585   4.354  20.387  0.00  0.00    +0.000 HD
ENDBRANCH   7   9
ENDBRANCH   5   7
ENDBRANCH   2   6
ENDBRANCH   1   2
BRANCH   1  11
ATOM     11  C   UNL     1       5.341   4.299  15.616  0.00  0.00    +0.000 C 
ATOM     12  C   UNL     1       4.564   5.067  16.398  0.00  0.00    +0.000 C 
BRANCH  12  13
ATOM     13  C   UNL     1       3.521   4.547  17.298  0.00  0.00    +0.000 A 
ATOM     14  C   UNL     1       2.998   3.252  17.170  0.00  0.00    +0.000 A 
ATOM     15  C   UNL     1       2.013   2.786  18.047  0.00  0.00    +0.000 A 
ATOM     16  C   UNL     1       1.553   3.608  19.070  0.00  0.00    +0.000 A 
ATOM     17 CL   UNL     1       0.337   3.039  20.145  0.00  0.00    +0.000 Cl
ATOM     18  C   UNL     1       2.077   4.889  19.231  0.00  0.00    +0.000 A 
ATOM     19  C   UNL     1       3.061   5.353  18.350  0.00  0.00    +0.000 A 
ENDBRANCH  12  13
ENDBRANCH   1  11
TORSDOF 6
ENDMDL
MODEL 6
REMARK VINA RESULT:      -6.4      0.936      1.194
REMARK  Name = 
REMARK  7 active torsions:
REMARK  status: ('A' for Active; 'I' for Inactive)
REMARK    1  A    between atoms: C_1  and  C_2
REMARK    2  A    between atoms: C_2  and  C_15
REMARK    3  A    between atoms: N_3  and  N_4
REMARK    4  A    between atoms: N_4  and  C_5
REMARK    5  A    between atoms: C_5  and  C_6
REMARK    6  A    between atoms: C_7  and  C_8
REMARK    7  A    between atoms: C_15  and  O_17
REMARK                            x       y       z     vdW  Elec       q    Type
REMARK                         _______ _______ _______ _____ _____    ______ ____
ROOT
ATOM      1  C   UNL     1       6.140   4.834  14.596  0.00  0.00    +0.000 C 
ENDROOT
BRANCH   1   2
ATOM      2  N   UNL     1       7.305   5.502  15.184  0.00  0.00    +0.000 N 
ATOM      3  H   UNL     1       7.207   6.507  15.011  0.00  0.00    +0.000 HD
BRANCH   2   6
ATOM      4  C   UNL     1       6.853   7.573  17.085  0.00  0.00    +0.000 C 
ATOM      5  C   UNL     1       7.371   6.184  17.344  0.00  0.00    +0.000 C 
ATOM      6  N   UNL     1       7.588   5.227  16.480  0.00  0.00    +0.000 NA
BRANCH   5   7
ATOM      7  C   UNL     1       7.697   5.861  18.805  0.00  0.00    +0.000 C 
ATOM      8  O   UNL     1       7.261   4.887  19.382  0.00  0.00    +0.000 OA
BRANCH   7   9
ATOM      9  O   UNL     1       8.524   6.783  19.328  0.00  0.00    +0.000 OA
ATOM     10  H   UNL     1       9.410   6.676  18.911  0.00  0.00    +0.000 HD
ENDBRANCH   7   9
ENDBRANCH   5   7
ENDBRANCH   2   6
ENDBRANCH   1   2
BRANCH   1  11
ATOM     11  C   UNL     1       5.066   4.709  15.636  0.00  0.00    +0.000 C 
ATOM     12  C   UNL     1       4.890   3.638  16.428  0.00  0.00    +0.000 C 
BRANCH  12  13
ATOM     13  C   UNL     1       3.843   3.530  17.458  0.00  0.00    +0.000 A 
ATOM     14  C   UNL     1       2.787   2.613  17.359  0.00  0.00    +0.000 A 
ATOM     15  C   UNL     1       1.813   2.532  18.360  0.00  0.00    +0.000 A 
ATOM     16  C   UNL     1       1.895   3.359  19.475  0.00  0.00    +0.000 A 
ATOM     17 CL   UNL     1       0.693   3.264  20.702  0.00  0.00    +0.000 Cl
ATOM     18  C   UNL     1       2.950   4.259  19.603  0.00  0.00    +0.000 A 
ATOM     19  C   UNL     1       3.922   4.340  18.600  0.00  0.00    +0.000 A 
ENDBRANCH  12  13
ENDBRANCH   1  11
TORSDOF 6
ENDMDL
MODEL 7
REMARK VINA RESULT:      -6.4      0.740      1.149
REMARK  Name = 
REMARK  7 active torsions:
REMARK  status: ('A' for Active; 'I' for Inactive)
REMARK    1  A    between atoms: C_1  and  C_2
REMARK    2  A    between atoms: C_2  and  C_15
REMARK    3  A    between atoms: N_3  and  N_4
REMARK    4  A    between atoms: N_4  and  C_5
REMARK    5  A    between atoms: C_5  and  C_6
REMARK    6  A    between atoms: C_7  and  C_8
REMARK    7  A    between atoms: C_15  and  O_17
REMARK                            x       y       z     vdW  Elec       q    Type
REMARK                         _______ _______ _______ _____ _____    ______ ____
ROOT
ATOM      1  C   UNL     1       5.808   4.613  15.247  0.00  0.00    +0.000 C 
ENDROOT
BRANCH   1   2
ATOM      2  N   UNL     1       7.190   4.947  15.604  0.00  0.00    +0.000 N 
ATOM      3  H   UNL     1       7.426   5.830  15.143  0.00  0.00    +0.000 HD
BRANCH   2   6
ATOM      4  C   UNL     1       7.015   7.433  16.979  0.00  0.00    +0.000 C 
ATOM      5  C   UNL     1       7.417   6.097  17.542  0.00  0.00    +0.000 C 
ATOM      6  N   UNL     1       7.507   4.950  16.921  0.00  0.00    +0.000 NA
BRANCH   5   7
ATOM      7  C   UNL     1       7.779   6.088  19.030  0.00  0.00    +0.000 C 
ATOM      8  O   UNL     1       7.337   5.276  19.816  0.00  0.00    +0.000 OA
BRANCH   7   9
ATOM      9  O   UNL     1       8.644   7.076  19.321  0.00  0.00    +0.000 OA
ATOM     10  H   UNL     1       8.523   7.325  20.267  0.00  0.00    +0.000 HD
ENDBRANCH   7   9
ENDBRANCH   5   7
ENDBRANCH   2   6
ENDBRANCH   1   2
BRANCH   1  11
ATOM     11  C   UNL     1       5.008   4.420  16.502  0.00  0.00    +0.000 C 
ATOM     12  C   UNL     1       4.298   3.317  16.792  0.00  0.00    +0.000 C 
BRANCH  12  13
ATOM     13  C   UNL     1       3.528   3.129  18.034  0.00  0.00    +0.000 A 
ATOM     14  C   UNL     1       4.147   2.976  19.283  0.00  0.00    +0.000 A 
ATOM     15  C   UNL     1       3.386   2.807  20.444  0.00  0.00    +0.000 A 
ATOM     16  C   UNL     1       1.997   2.805  20.367  0.00  0.00    +0.000 A 
ATOM     17 CL   UNL     1       1.061   2.590  21.794  0.00  0.00    +0.000 Cl
ATOM     18  C   UNL     1       1.363   2.981  19.140  0.00  0.00    +0.000 A 
ATOM     19  C   UNL     1       2.127   3.148  17.979  0.00  0.00    +0.000 A 
ENDBRANCH  12  13
ENDBRANCH   1  11
TORSDOF 6
ENDMDL
MODEL 8
REMARK VINA RESULT:      -6.4      3.656      4.551
REMARK  Name = 
REMARK  7 active torsions:
REMARK  status: ('A' for Active; 'I' for Inactive)
REMARK    1  A    between atoms: C_1  and  C_2
REMARK    2  A    between atoms: C_2  and  C_15
REMARK    3  A    between atoms: N_3  and  N_4
REMARK    4  A    between atoms: N_4  and  C_5
REMARK    5  A    between atoms: C_5  and  C_6
REMARK    6  A    between atoms: C_7  and  C_8
REMARK    7  A    between atoms: C_15  and  O_17
REMARK                            x       y       z     vdW  Elec       q    Type
REMARK                         _______ _______ _______ _____ _____    ______ ____
ROOT
ATOM      1  C   UNL     1       6.321   5.554  15.386  0.00  0.00    +0.000 C 
ENDROOT
BRANCH   1   2
ATOM      2  N   UNL     1       6.948   4.502  14.580  0.00  0.00    +0.000 N 
ATOM      3  H   UNL     1       7.586   3.982  15.189  0.00  0.00    +0.000 HD
BRANCH   2   6
ATOM      4  C   UNL     1       7.338   4.373  11.763  0.00  0.00    +0.000 C 
ATOM      5  C   UNL     1       6.319   3.632  12.584  0.00  0.00    +0.000 C 
ATOM      6  N   UNL     1       6.126   3.687  13.877  0.00  0.00    +0.000 NA
BRANCH   5   7
ATOM      7  C   UNL     1       5.382   2.708  11.801  0.00  0.00    +0.000 C 
ATOM      8  O   UNL     1       4.291   3.054  11.400  0.00  0.00    +0.000 OA
BRANCH   7   9
ATOM      9  O   UNL     1       5.941   1.498  11.620  0.00  0.00    +0.000 OA
ATOM     10  H   UNL     1       5.221   0.848  11.446  0.00  0.00    +0.000 HD
ENDBRANCH   7   9
ENDBRANCH   5   7
ENDBRANCH   2   6
ENDBRANCH   1   2
BRANCH   1  11
ATOM     11  C   UNL     1       5.444   4.920  16.425  0.00  0.00    +0.000 C 
ATOM     12  C   UNL     1       4.471   5.561  17.097  0.00  0.00    +0.000 C 
BRANCH  12  13
ATOM     13  C   UNL     1       3.604   4.927  18.105  0.00  0.00    +0.000 A 
ATOM     14  C   UNL     1       3.576   5.350  19.441  0.00  0.00    +0.000 A 
ATOM     15  C   UNL     1       2.734   4.731  20.371  0.00  0.00    +0.000 A 
ATOM     16  C   UNL     1       1.902   3.693  19.968  0.00  0.00    +0.000 A 
ATOM     17 CL   UNL     1       0.871   2.927  21.112  0.00  0.00    +0.000 Cl
ATOM     18  C   UNL     1       1.896   3.274  18.639  0.00  0.00    +0.000 A 
ATOM     19  C   UNL     1       2.741   3.894  17.711  0.00  0.00    +0.000 A 
ENDBRANCH  12  13
ENDBRANCH   1  11
TORSDOF 6
ENDMDL
MODEL 9
REMARK VINA RESULT:      -6.3      3.752      4.708
REMARK  Name = 
REMARK  7 active torsions:
REMARK  status: ('A' for Active; 'I' for Inactive)
REMARK    1  A    between atoms: C_1  and  C_2
REMARK    2  A    between atoms: C_2  and  C_15
REMARK    3  A    between atoms: N_3  and  N_4
REMARK    4  A    between atoms: N_4  and  C_5
REMARK    5  A    between atoms: C_5  and  C_6
REMARK    6  A    between atoms: C_7  and  C_8
REMARK    7  A    between atoms: C_15  and  O_17
REMARK                            x       y       z     vdW  Elec       q    Type
REMARK                         _______ _______ _______ _____ _____    ______ ____
ROOT
ATOM      1  C   UNL     1       4.315   3.513  18.957  0.00  0.00    +0.000 C 
ENDROOT
BRANCH   1   2
ATOM      2  N   UNL     1       5.635   3.972  18.513  0.00  0.00    +0.000 N 
ATOM      3  H   UNL     1       6.337   3.521  19.106  0.00  0.00    +0.000 HD
BRANCH   2   6
ATOM      4  C   UNL     1       7.212   6.026  17.332  0.00  0.00    +0.000 C 
ATOM      5  C   UNL     1       6.650   4.801  16.665  0.00  0.00    +0.000 C 
ATOM      6  N   UNL     1       5.920   3.853  17.194  0.00  0.00    +0.000 NA
BRANCH   5   7
ATOM      7  C   UNL     1       6.965   4.656  15.173  0.00  0.00    +0.000 C 
ATOM      8  O   UNL     1       7.667   5.436  14.564  0.00  0.00    +0.000 OA
BRANCH   7   9
ATOM      9  O   UNL     1       6.374   3.562  14.661  0.00  0.00    +0.000 OA
ATOM     10  H   UNL     1       6.199   2.932  15.399  0.00  0.00    +0.000 HD
ENDBRANCH   7   9
ENDBRANCH   5   7
ENDBRANCH   2   6
ENDBRANCH   1   2
BRANCH   1  11
ATOM     11  C   UNL     1       3.400   4.694  19.086  0.00  0.00    +0.000 C 
ATOM     12  C   UNL     1       3.737   5.958  18.777  0.00  0.00    +0.000 C 
BRANCH  12  13
ATOM     13  C   UNL     1       2.826   7.111  18.891  0.00  0.00    +0.000 A 
ATOM     14  C   UNL     1       2.133   7.404  20.074  0.00  0.00    +0.000 A 
ATOM     15  C   UNL     1       1.282   8.511  20.150  0.00  0.00    +0.000 A 
ATOM     16  C   UNL     1       1.129   9.343  19.047  0.00  0.00    +0.000 A 
ATOM     17 CL   UNL     1       0.077  10.701  19.138  0.00  0.00    +0.000 Cl
ATOM     18  C   UNL     1       1.828   9.084  17.870  0.00  0.00    +0.000 A 
ATOM     19  C   UNL     1       2.677   7.974  17.796  0.00  0.00    +0.000 A 
ENDBRANCH  12  13
ENDBRANCH   1  11
TORSDOF 6
ENDMDL
