MODEL 1
REMARK VINA RESULT:      -6.3      0.000      0.000
REMARK  Name = 
REMARK  11 active torsions:
REMARK  status: ('A' for Active; 'I' for Inactive)
REMARK    1  A    between atoms: C_1  and  C_2
REMARK    2  A    between atoms: C_4  and  O_5
REMARK    3  A    between atoms: C_6  and  C_7
REMARK    4  A    between atoms: C_7  and  C_8
REMARK    5  A    between atoms: C_7  and  C_24
REMARK    6  A    between atoms: N_10  and  C1*_11
REMARK    7  A    between atoms: C3*_13  and  O3*_14
REMARK    8  A    between atoms: C4*_15  and  C5*_16
REMARK    9  A    between atoms: C5*_16  and  O5*_17
REMARK   10  A    between atoms: C_25  and  O_26
REMARK   11  A    between atoms: C_28  and  C_29
REMARK                            x       y       z     vdW  Elec       q    Type
REMARK                         _______ _______ _______ _____ _____    ______ ____
ROOT
ATOM      1  C   UNL     1      -1.444  12.872  22.284  0.00  0.00    +0.000 C 
ENDROOT
BRANCH   1   6
ATOM      2  C   UNL     1       1.492   8.960  19.013  0.00  0.00    +0.000 C 
ATOM      3  C   UNL     1       0.723   9.877  19.907  0.00  0.00    +0.000 A 
ATOM      4  C   UNL     1       0.593   9.730  21.235  0.00  0.00    +0.000 A 
ATOM      5  C   UNL     1      -0.147  10.709  22.003  0.00  0.00    +0.000 A 
ATOM      6  C   UNL     1      -0.758  11.779  21.448  0.00  0.00    +0.000 A 
ATOM      7  C   UNL     1      -0.594  11.922  19.963  0.00  0.00    +0.000 A 
ATOM      8  O   UNL     1      -1.038  12.859  19.311  0.00  0.00    +0.000 OA
ATOM      9  N   UNL     1       0.134  10.958  19.313  0.00  0.00    +0.000 N 
ATOM     10  H   UNL     1       0.223  11.104  18.313  0.00  0.00    +0.000 HD
BRANCH   5  11
ATOM     11  O   UNL     1      -0.167  10.511  23.370  0.00  0.00    +0.000 OA
ATOM     12  H   UNL     1      -0.815   9.821  23.592  0.00  0.00    +0.000 HD
ENDBRANCH   5  11
ENDBRANCH   1   6
BRANCH   1  13
ATOM     13  C   UNL     1      -0.629  14.142  22.424  0.00  0.00    +0.000 A 
ATOM     14  C   UNL     1       0.268  14.520  21.505  0.00  0.00    +0.000 A 
ATOM     15  N   UNL     1       0.929  15.729  21.554  0.00  0.00    +0.000 N 
ATOM     16  C   UNL     1       0.794  16.579  22.642  0.00  0.00    +0.000 A 
ATOM     17  O   UNL     1       1.375  17.656  22.743  0.00  0.00    +0.000 OA
ATOM     18  N   UNL     1      -0.049  16.152  23.630  0.00  0.00    +0.000 N 
ATOM     19  C   UNL     1      -0.874  15.070  23.557  0.00  0.00    +0.000 A 
ATOM     20  O   UNL     1      -1.775  14.893  24.376  0.00  0.00    +0.000 OA
ATOM     21  H   UNL     1      -0.232  16.807  24.374  0.00  0.00    +0.000 HD
BRANCH  15  22
ATOM     22  C1* UNL     1       1.778  16.160  20.453  0.00  0.00    +0.000 C 
ATOM     23  C2* UNL     1       3.257  15.897  20.683  0.00  0.00    +0.000 C 
ATOM     24  C3* UNL     1       3.777  15.730  19.275  0.00  0.00    +0.000 C 
ATOM     25  C4* UNL     1       2.611  15.076  18.540  0.00  0.00    +0.000 C 
ATOM     26  O4* UNL     1       1.406  15.478  19.236  0.00  0.00    +0.000 OA
BRANCH  24  27
ATOM     27  O3* UNL     1       4.079  17.013  18.724  0.00  0.00    +0.000 OA
ATOM     28  H3* UNL     1       3.273  17.395  18.332  0.00  0.00    +0.000 HD
ENDBRANCH  24  27
BRANCH  25  29
ATOM     29  C5* UNL     1       2.683  13.545  18.559  0.00  0.00    +0.000 C 
BRANCH  29  30
ATOM     30  O5* UNL     1       1.660  12.992  17.731  0.00  0.00    +0.000 OA
ATOM     31  H5* UNL     1       2.069  12.831  16.859  0.00  0.00    +0.000 HD
ENDBRANCH  29  30
ENDBRANCH  25  29
ENDBRANCH  15  22
ENDBRANCH   1  13
BRANCH   1  32
ATOM     32  C   UNL     1      -2.914  13.137  22.002  0.00  0.00    +0.000 A 
ATOM     33  C   UNL     1      -3.456  13.923  21.052  0.00  0.00    +0.000 A 
ATOM     34  C   UNL     1      -4.881  14.018  20.845  0.00  0.00    +0.000 A 
ATOM     35  C   UNL     1      -5.730  13.354  21.643  0.00  0.00    +0.000 A 
ATOM     36  C   UNL     1      -7.219  13.387  21.489  0.00  0.00    +0.000 C 
ATOM     37  N   UNL     1      -5.217  12.599  22.669  0.00  0.00    +0.000 N 
ATOM     38  C   UNL     1      -3.876  12.452  22.933  0.00  0.00    +0.000 A 
ATOM     39  O   UNL     1      -3.493  11.809  23.908  0.00  0.00    +0.000 OA
ATOM     40  H   UNL     1      -5.841  12.126  23.312  0.00  0.00    +0.000 HD
BRANCH  33  41
ATOM     41  O   UNL     1      -2.723  14.760  20.247  0.00  0.00    +0.000 OA
ATOM     42  H   UNL     1      -2.106  15.236  20.849  0.00  0.00    +0.000 HD
ENDBRANCH  33  41
ENDBRANCH   1  32
TORSDOF 9
ENDMDL
MODEL 2
REMARK VINA RESULT:      -6.3      3.689      7.749
REMARK  Name = 
REMARK  11 active torsions:
REMARK  status: ('A' for Active; 'I' for Inactive)
REMARK    1  A    between atoms: C_1  and  C_2
REMARK    2  A    between atoms: C_4  and  O_5
REMARK    3  A    between atoms: C_6  and  C_7
REMARK    4  A    between atoms: C_7  and  C_8
REMARK    5  A    between atoms: C_7  and  C_24
REMARK    6  A    between atoms: N_10  and  C1*_11
REMARK    7  A    between atoms: C3*_13  and  O3*_14
REMARK    8  A    between atoms: C4*_15  and  C5*_16
REMARK    9  A    between atoms: C5*_16  and  O5*_17
REMARK   10  A    between atoms: C_25  and  O_26
REMARK   11  A    between atoms: C_28  and  C_29
REMARK                            x       y       z     vdW  Elec       q    Type
REMARK                         _______ _______ _______ _____ _____    ______ ____
ROOT
ATOM      1  C   UNL     1       0.351  11.021  19.894  0.00  0.00    +0.000 C 
ENDROOT
BRANCH   1   6
ATOM      2  C   UNL     1      -4.620  11.592  16.799  0.00  0.00    +0.000 C 
ATOM      3  C   UNL     1      -3.351  11.352  17.548  0.00  0.00    +0.000 A 
ATOM      4  C   UNL     1      -2.354  10.551  17.140  0.00  0.00    +0.000 A 
ATOM      5  C   UNL     1      -1.151  10.429  17.937  0.00  0.00    +0.000 A 
ATOM      6  C   UNL     1      -0.973  11.067  19.115  0.00  0.00    +0.000 A 
ATOM      7  C   UNL     1      -2.101  11.960  19.545  0.00  0.00    +0.000 A 
ATOM      8  O   UNL     1      -2.082  12.649  20.557  0.00  0.00    +0.000 OA
ATOM      9  N   UNL     1      -3.199  12.030  18.726  0.00  0.00    +0.000 N 
ATOM     10  H   UNL     1      -3.928  12.651  19.056  0.00  0.00    +0.000 HD
BRANCH   5  11
ATOM     11  O   UNL     1      -0.154   9.636  17.402  0.00  0.00    +0.000 OA
ATOM     12  H   UNL     1       0.368  10.151  16.763  0.00  0.00    +0.000 HD
ENDBRANCH   5  11
ENDBRANCH   1   6
BRANCH   1  13
ATOM     13  C   UNL     1       0.883   9.620  20.121  0.00  0.00    +0.000 A 
ATOM     14  C   UNL     1       1.380   8.875  19.126  0.00  0.00    +0.000 A 
ATOM     15  N   UNL     1       1.978   7.651  19.331  0.00  0.00    +0.000 N 
ATOM     16  C   UNL     1       1.988   7.056  20.585  0.00  0.00    +0.000 A 
ATOM     17  O   UNL     1       2.490   5.959  20.816  0.00  0.00    +0.000 OA
ATOM     18  N   UNL     1       1.395   7.772  21.587  0.00  0.00    +0.000 N 
ATOM     19  C   UNL     1       0.961   9.060  21.494  0.00  0.00    +0.000 A 
ATOM     20  O   UNL     1       0.670   9.713  22.494  0.00  0.00    +0.000 OA
ATOM     21  H   UNL     1       1.487   7.395  22.518  0.00  0.00    +0.000 HD
BRANCH  15  22
ATOM     22  C1* UNL     1       2.638   6.951  18.240  0.00  0.00    +0.000 C 
ATOM     23  C2* UNL     1       4.047   6.488  18.574  0.00  0.00    +0.000 C 
ATOM     24  C3* UNL     1       4.205   5.273  17.691  0.00  0.00    +0.000 C 
ATOM     25  C4* UNL     1       2.799   4.682  17.644  0.00  0.00    +0.000 C 
ATOM     26  O4* UNL     1       1.881   5.780  17.863  0.00  0.00    +0.000 OA
BRANCH  24  27
ATOM     27  O3* UNL     1       4.636   5.683  16.391  0.00  0.00    +0.000 OA
ATOM     28  H3* UNL     1       4.773   6.647  16.384  0.00  0.00    +0.000 HD
ENDBRANCH  24  27
BRANCH  25  29
ATOM     29  C5* UNL     1       2.561   3.636  18.738  0.00  0.00    +0.000 C 
BRANCH  29  30
ATOM     30  O5* UNL     1       1.231   3.744  19.244  0.00  0.00    +0.000 OA
ATOM     31  H5* UNL     1       1.268   3.468  20.179  0.00  0.00    +0.000 HD
ENDBRANCH  29  30
ENDBRANCH  25  29
ENDBRANCH  15  22
ENDBRANCH   1  13
BRANCH   1  32
ATOM     32  C   UNL     1       1.430  12.008  19.481  0.00  0.00    +0.000 A 
ATOM     33  C   UNL     1       2.175  12.013  18.358  0.00  0.00    +0.000 A 
ATOM     34  C   UNL     1       3.114  13.066  18.056  0.00  0.00    +0.000 A 
ATOM     35  C   UNL     1       3.318  14.066  18.926  0.00  0.00    +0.000 A 
ATOM     36  C   UNL     1       4.261  15.203  18.684  0.00  0.00    +0.000 C 
ATOM     37  N   UNL     1       2.629  14.057  20.114  0.00  0.00    +0.000 N 
ATOM     38  C   UNL     1       1.716  13.096  20.478  0.00  0.00    +0.000 A 
ATOM     39  O   UNL     1       1.185  13.120  21.586  0.00  0.00    +0.000 OA
ATOM     40  H   UNL     1       2.802  14.777  20.806  0.00  0.00    +0.000 HD
BRANCH  33  41
ATOM     41  O   UNL     1       2.173  10.993  17.438  0.00  0.00    +0.000 OA
ATOM     42  H   UNL     1       1.409  11.172  16.844  0.00  0.00    +0.000 HD
ENDBRANCH  33  41
ENDBRANCH   1  32
TORSDOF 9
ENDMDL
MODEL 3
REMARK VINA RESULT:      -6.3      2.173      6.440
REMARK  Name = 
REMARK  11 active torsions:
REMARK  status: ('A' for Active; 'I' for Inactive)
REMARK    1  A    between atoms: C_1  and  C_2
REMARK    2  A    between atoms: C_4  and  O_5
REMARK    3  A    between atoms: C_6  and  C_7
REMARK    4  A    between atoms: C_7  and  C_8
REMARK    5  A    between atoms: C_7  and  C_24
REMARK    6  A    between atoms: N_10  and  C1*_11
REMARK    7  A    between atoms: C3*_13  and  O3*_14
REMARK    8  A    between atoms: C4*_15  and  C5*_16
REMARK    9  A    between atoms: C5*_16  and  O5*_17
REMARK   10  A    between atoms: C_25  and  O_26
REMARK   11  A    between atoms: C_28  and  C_29
REMARK                            x       y       z     vdW  Elec       q    Type
REMARK                         _______ _______ _______ _____ _____    ______ ____
ROOT
ATOM      1  C   UNL     1       0.338  11.890  19.236  0.00  0.00    +0.000 C 
ENDROOT
BRANCH   1   6
ATOM      2  C   UNL     1       2.053   6.365  20.309  0.00  0.00    +0.000 C 
ATOM      3  C   UNL     1       1.700   7.777  19.976  0.00  0.00    +0.000 A 
ATOM      4  C   UNL     1       1.983   8.392  18.817  0.00  0.00    +0.000 A 
ATOM      5  C   UNL     1       1.553   9.756  18.597  0.00  0.00    +0.000 A 
ATOM      6  C   UNL     1       0.890  10.484  19.522  0.00  0.00    +0.000 A 
ATOM      7  C   UNL     1       0.582   9.772  20.807  0.00  0.00    +0.000 A 
ATOM      8  O   UNL     1      -0.056  10.266  21.729  0.00  0.00    +0.000 OA
ATOM      9  N   UNL     1       1.012   8.476  20.930  0.00  0.00    +0.000 N 
ATOM     10  H   UNL     1       0.773   8.037  21.812  0.00  0.00    +0.000 HD
BRANCH   5  11
ATOM     11  O   UNL     1       1.830  10.280  17.348  0.00  0.00    +0.000 OA
ATOM     12  H   UNL     1       1.943   9.558  16.707  0.00  0.00    +0.000 HD
ENDBRANCH   5  11
ENDBRANCH   1   6
BRANCH   1  13
ATOM     13  C   UNL     1      -1.166  12.004  19.383  0.00  0.00    +0.000 A 
ATOM     14  C   UNL     1      -1.744  12.393  20.526  0.00  0.00    +0.000 A 
ATOM     15  N   UNL     1      -3.099  12.619  20.643  0.00  0.00    +0.000 N 
ATOM     16  C   UNL     1      -3.969  12.330  19.601  0.00  0.00    +0.000 A 
ATOM     17  O   UNL     1      -5.184  12.494  19.661  0.00  0.00    +0.000 OA
ATOM     18  N   UNL     1      -3.392  11.840  18.463  0.00  0.00    +0.000 N 
ATOM     19  C   UNL     1      -2.053  11.776  18.215  0.00  0.00    +0.000 A 
ATOM     20  O   UNL     1      -1.619  11.558  17.085  0.00  0.00    +0.000 OA
ATOM     21  H   UNL     1      -4.001  11.724  17.668  0.00  0.00    +0.000 HD
BRANCH  15  22
ATOM     22  C1* UNL     1      -3.658  13.188  21.859  0.00  0.00    +0.000 C 
ATOM     23  C2* UNL     1      -3.088  12.586  23.133  0.00  0.00    +0.000 C 
ATOM     24  C3* UNL     1      -3.222  13.725  24.116  0.00  0.00    +0.000 C 
ATOM     25  C4* UNL     1      -3.008  14.966  23.254  0.00  0.00    +0.000 C 
ATOM     26  O4* UNL     1      -3.410  14.610  21.909  0.00  0.00    +0.000 OA
BRANCH  24  27
ATOM     27  O3* UNL     1      -4.534  13.712  24.683  0.00  0.00    +0.000 OA
ATOM     28  H3* UNL     1      -4.523  13.207  25.516  0.00  0.00    +0.000 HD
ENDBRANCH  24  27
BRANCH  25  29
ATOM     29  C5* UNL     1      -1.542  15.410  23.211  0.00  0.00    +0.000 C 
BRANCH  29  30
ATOM     30  O5* UNL     1      -0.802  14.774  24.252  0.00  0.00    +0.000 OA
ATOM     31  H5* UNL     1      -0.085  14.276  23.816  0.00  0.00    +0.000 HD
ENDBRANCH  29  30
ENDBRANCH  25  29
ENDBRANCH  15  22
ENDBRANCH   1  13
BRANCH   1  32
ATOM     32  C   UNL     1       1.086  13.063  19.850  0.00  0.00    +0.000 A 
ATOM     33  C   UNL     1       1.118  13.453  21.139  0.00  0.00    +0.000 A 
ATOM     34  C   UNL     1       1.941  14.545  21.598  0.00  0.00    +0.000 A 
ATOM     35  C   UNL     1       2.678  15.254  20.730  0.00  0.00    +0.000 A 
ATOM     36  C   UNL     1       3.569  16.390  21.123  0.00  0.00    +0.000 C 
ATOM     37  N   UNL     1       2.616  14.931  19.396  0.00  0.00    +0.000 N 
ATOM     38  C   UNL     1       1.861  13.906  18.877  0.00  0.00    +0.000 A 
ATOM     39  O   UNL     1       1.807  13.717  17.664  0.00  0.00    +0.000 OA
ATOM     40  H   UNL     1       3.127  15.482  18.717  0.00  0.00    +0.000 HD
BRANCH  33  41
ATOM     41  O   UNL     1       0.322  12.911  22.119  0.00  0.00    +0.000 OA
ATOM     42  H   UNL     1      -0.278  13.637  22.407  0.00  0.00    +0.000 HD
ENDBRANCH  33  41
ENDBRANCH   1  32
TORSDOF 9
ENDMDL
MODEL 4
REMARK VINA RESULT:      -6.2      3.855      7.690
REMARK  Name = 
REMARK  11 active torsions:
REMARK  status: ('A' for Active; 'I' for Inactive)
REMARK    1  A    between atoms: C_1  and  C_2
REMARK    2  A    between atoms: C_4  and  O_5
REMARK    3  A    between atoms: C_6  and  C_7
REMARK    4  A    between atoms: C_7  and  C_8
REMARK    5  A    between atoms: C_7  and  C_24
REMARK    6  A    between atoms: N_10  and  C1*_11
REMARK    7  A    between atoms: C3*_13  and  O3*_14
REMARK    8  A    between atoms: C4*_15  and  C5*_16
REMARK    9  A    between atoms: C5*_16  and  O5*_17
REMARK   10  A    between atoms: C_25  and  O_26
REMARK   11  A    between atoms: C_28  and  C_29
REMARK                            x       y       z     vdW  Elec       q    Type
REMARK                         _______ _______ _______ _____ _____    ______ ____
ROOT
ATOM      1  C   UNL     1       0.420  10.852  19.816  0.00  0.00    +0.000 C 
ENDROOT
BRANCH   1   6
ATOM      2  C   UNL     1      -4.676  11.606  16.971  0.00  0.00    +0.000 C 
ATOM      3  C   UNL     1      -3.376  11.322  17.650  0.00  0.00    +0.000 A 
ATOM      4  C   UNL     1      -2.397  10.551  17.152  0.00  0.00    +0.000 A 
ATOM      5  C   UNL     1      -1.162  10.381  17.889  0.00  0.00    +0.000 A 
ATOM      6  C   UNL     1      -0.936  10.944  19.096  0.00  0.00    +0.000 A 
ATOM      7  C   UNL     1      -2.044  11.805  19.628  0.00  0.00    +0.000 A 
ATOM      8  O   UNL     1      -1.983  12.429  20.680  0.00  0.00    +0.000 OA
ATOM      9  N   UNL     1      -3.175  11.924  18.862  0.00  0.00    +0.000 N 
ATOM     10  H   UNL     1      -3.890  12.522  19.260  0.00  0.00    +0.000 HD
BRANCH   5  11
ATOM     11  O   UNL     1      -0.188   9.627  17.264  0.00  0.00    +0.000 OA
ATOM     12  H   UNL     1      -0.601   8.884  16.791  0.00  0.00    +0.000 HD
ENDBRANCH   5  11
ENDBRANCH   1   6
BRANCH   1  13
ATOM     13  C   UNL     1       0.984   9.448  19.889  0.00  0.00    +0.000 A 
ATOM     14  C   UNL     1       1.597   8.870  18.848  0.00  0.00    +0.000 A 
ATOM     15  N   UNL     1       2.222   7.644  18.931  0.00  0.00    +0.000 N 
ATOM     16  C   UNL     1       2.142   6.872  20.081  0.00  0.00    +0.000 A 
ATOM     17  O   UNL     1       2.664   5.767  20.199  0.00  0.00    +0.000 OA
ATOM     18  N   UNL     1       1.434   7.417  21.115  0.00  0.00    +0.000 N 
ATOM     19  C   UNL     1       0.960   8.694  21.168  0.00  0.00    +0.000 A 
ATOM     20  O   UNL     1       0.554   9.186  22.219  0.00  0.00    +0.000 OA
ATOM     21  H   UNL     1       1.456   6.911  21.987  0.00  0.00    +0.000 HD
BRANCH  15  22
ATOM     22  C1* UNL     1       3.005   7.129  17.818  0.00  0.00    +0.000 C 
ATOM     23  C2* UNL     1       4.330   7.847  17.619  0.00  0.00    +0.000 C 
ATOM     24  C3* UNL     1       5.189   6.772  16.996  0.00  0.00    +0.000 C 
ATOM     25  C4* UNL     1       4.681   5.488  17.649  0.00  0.00    +0.000 C 
ATOM     26  O4* UNL     1       3.302   5.730  18.017  0.00  0.00    +0.000 OA
BRANCH  24  27
ATOM     27  O3* UNL     1       4.974   6.751  15.584  0.00  0.00    +0.000 OA
ATOM     28  H3* UNL     1       5.556   7.405  15.157  0.00  0.00    +0.000 HD
ENDBRANCH  24  27
BRANCH  25  29
ATOM     29  C5* UNL     1       5.457   5.124  18.919  0.00  0.00    +0.000 C 
BRANCH  29  30
ATOM     30  O5* UNL     1       6.198   3.921  18.717  0.00  0.00    +0.000 OA
ATOM     31  H5* UNL     1       5.559   3.254  18.401  0.00  0.00    +0.000 HD
ENDBRANCH  29  30
ENDBRANCH  25  29
ENDBRANCH  15  22
ENDBRANCH   1  13
BRANCH   1  32
ATOM     32  C   UNL     1       1.465  11.896  19.456  0.00  0.00    +0.000 A 
ATOM     33  C   UNL     1       2.191  11.998  18.326  0.00  0.00    +0.000 A 
ATOM     34  C   UNL     1       3.096  13.095  18.083  0.00  0.00    +0.000 A 
ATOM     35  C   UNL     1       3.286  14.040  19.016  0.00  0.00    +0.000 A 
ATOM     36  C   UNL     1       4.194  15.216  18.840  0.00  0.00    +0.000 C 
ATOM     37  N   UNL     1       2.618  13.929  20.211  0.00  0.00    +0.000 N 
ATOM     38  C   UNL     1       1.737  12.921  20.521  0.00  0.00    +0.000 A 
ATOM     39  O   UNL     1       1.224  12.854  21.636  0.00  0.00    +0.000 OA
ATOM     40  H   UNL     1       2.782  14.606  20.948  0.00  0.00    +0.000 HD
BRANCH  33  41
ATOM     41  O   UNL     1       2.202  11.044  17.338  0.00  0.00    +0.000 OA
ATOM     42  H   UNL     1       1.263  10.773  17.219  0.00  0.00    +0.000 HD
ENDBRANCH  33  41
ENDBRANCH   1  32
TORSDOF 9
ENDMDL
MODEL 5
REMARK VINA RESULT:      -6.2      1.116      1.515
REMARK  Name = 
REMARK  11 active torsions:
REMARK  status: ('A' for Active; 'I' for Inactive)
REMARK    1  A    between atoms: C_1  and  C_2
REMARK    2  A    between atoms: C_4  and  O_5
REMARK    3  A    between atoms: C_6  and  C_7
REMARK    4  A    between atoms: C_7  and  C_8
REMARK    5  A    between atoms: C_7  and  C_24
REMARK    6  A    between atoms: N_10  and  C1*_11
REMARK    7  A    between atoms: C3*_13  and  O3*_14
REMARK    8  A    between atoms: C4*_15  and  C5*_16
REMARK    9  A    between atoms: C5*_16  and  O5*_17
REMARK   10  A    between atoms: C_25  and  O_26
REMARK   11  A    between atoms: C_28  and  C_29
REMARK                            x       y       z     vdW  Elec       q    Type
REMARK                         _______ _______ _______ _____ _____    ______ ____
ROOT
ATOM      1  C   UNL     1      -1.481  13.069  22.211  0.00  0.00    +0.000 C 
ENDROOT
BRANCH   1   6
ATOM      2  C   UNL     1       1.466   9.627  18.459  0.00  0.00    +0.000 C 
ATOM      3  C   UNL     1       0.702  10.418  19.469  0.00  0.00    +0.000 A 
ATOM      4  C   UNL     1       0.648  10.147  20.782  0.00  0.00    +0.000 A 
ATOM      5  C   UNL     1      -0.098  11.013  21.671  0.00  0.00    +0.000 A 
ATOM      6  C   UNL     1      -0.788  12.093  21.246  0.00  0.00    +0.000 A 
ATOM      7  C   UNL     1      -0.708  12.377  19.774  0.00  0.00    +0.000 A 
ATOM      8  O   UNL     1      -1.231  13.343  19.233  0.00  0.00    +0.000 OA
ATOM      9  N   UNL     1       0.030  11.515  19.005  0.00  0.00    +0.000 N 
ATOM     10  H   UNL     1       0.060  11.754  18.020  0.00  0.00    +0.000 HD
BRANCH   5  11
ATOM     11  O   UNL     1      -0.037  10.692  23.014  0.00  0.00    +0.000 OA
ATOM     12  H   UNL     1       0.115   9.737  23.117  0.00  0.00    +0.000 HD
ENDBRANCH   5  11
ENDBRANCH   1   6
BRANCH   1  13
ATOM     13  C   UNL     1      -0.708  14.350  22.453  0.00  0.00    +0.000 A 
ATOM     14  C   UNL     1       0.092  14.887  21.524  0.00  0.00    +0.000 A 
ATOM     15  N   UNL     1       0.708  16.111  21.680  0.00  0.00    +0.000 N 
ATOM     16  C   UNL     1       0.632  16.807  22.878  0.00  0.00    +0.000 A 
ATOM     17  O   UNL     1       1.176  17.889  23.074  0.00  0.00    +0.000 OA
ATOM     18  N   UNL     1      -0.107  16.215  23.864  0.00  0.00    +0.000 N 
ATOM     19  C   UNL     1      -0.893  15.111  23.714  0.00  0.00    +0.000 A 
ATOM     20  O   UNL     1      -1.713  14.786  24.571  0.00  0.00    +0.000 OA
ATOM     21  H   UNL     1      -0.252  16.759  24.700  0.00  0.00    +0.000 HD
BRANCH  15  22
ATOM     22  C1* UNL     1       1.442  16.721  20.582  0.00  0.00    +0.000 C 
ATOM     23  C2* UNL     1       1.904  15.727  19.529  0.00  0.00    +0.000 C 
ATOM     24  C3* UNL     1       1.946  16.577  18.281  0.00  0.00    +0.000 C 
ATOM     25  C4* UNL     1       0.799  17.563  18.483  0.00  0.00    +0.000 C 
ATOM     26  O4* UNL     1       0.622  17.703  19.913  0.00  0.00    +0.000 OA
BRANCH  24  27
ATOM     27  O3* UNL     1       3.201  17.256  18.209  0.00  0.00    +0.000 OA
ATOM     28  H3* UNL     1       3.877  16.652  17.849  0.00  0.00    +0.000 HD
ENDBRANCH  24  27
BRANCH  25  29
ATOM     29  C5* UNL     1      -0.522  17.064  17.886  0.00  0.00    +0.000 C 
BRANCH  29  30
ATOM     30  O5* UNL     1      -1.524  16.989  18.899  0.00  0.00    +0.000 OA
ATOM     31  H5* UNL     1      -2.384  17.021  18.438  0.00  0.00    +0.000 HD
ENDBRANCH  29  30
ENDBRANCH  25  29
ENDBRANCH  15  22
ENDBRANCH   1  13
BRANCH   1  32
ATOM     32  C   UNL     1      -2.970  13.303  22.005  0.00  0.00    +0.000 A 
ATOM     33  C   UNL     1      -3.574  14.157  21.156  0.00  0.00    +0.000 A 
ATOM     34  C   UNL     1      -5.007  14.217  21.007  0.00  0.00    +0.000 A 
ATOM     35  C   UNL     1      -5.803  13.446  21.762  0.00  0.00    +0.000 A 
ATOM     36  C   UNL     1      -7.296  13.436  21.661  0.00  0.00    +0.000 C 
ATOM     37  N   UNL     1      -5.226  12.614  22.690  0.00  0.00    +0.000 N 
ATOM     38  C   UNL     1      -3.872  12.493  22.894  0.00  0.00    +0.000 A 
ATOM     39  O   UNL     1      -3.432  11.774  23.787  0.00  0.00    +0.000 OA
ATOM     40  H   UNL     1      -5.810  12.057  23.303  0.00  0.00    +0.000 HD
BRANCH  33  41
ATOM     41  O   UNL     1      -2.901  15.097  20.414  0.00  0.00    +0.000 OA
ATOM     42  H   UNL     1      -2.749  15.857  21.022  0.00  0.00    +0.000 HD
ENDBRANCH  33  41
ENDBRANCH   1  32
TORSDOF 9
ENDMDL
MODEL 6
REMARK VINA RESULT:      -6.2      2.590      6.383
REMARK  Name = 
REMARK  11 active torsions:
REMARK  status: ('A' for Active; 'I' for Inactive)
REMARK    1  A    between atoms: C_1  and  C_2
REMARK    2  A    between atoms: C_4  and  O_5
REMARK    3  A    between atoms: C_6  and  C_7
REMARK    4  A    between atoms: C_7  and  C_8
REMARK    5  A    between atoms: C_7  and  C_24
REMARK    6  A    between atoms: N_10  and  C1*_11
REMARK    7  A    between atoms: C3*_13  and  O3*_14
REMARK    8  A    between atoms: C4*_15  and  C5*_16
REMARK    9  A    between atoms: C5*_16  and  O5*_17
REMARK   10  A    between atoms: C_25  and  O_26
REMARK   11  A    between atoms: C_28  and  C_29
REMARK                            x       y       z     vdW  Elec       q    Type
REMARK                         _______ _______ _______ _____ _____    ______ ____
ROOT
ATOM      1  C   UNL     1       0.689  12.166  20.886  0.00  0.00    +0.000 C 
ENDROOT
BRANCH   1   6
ATOM      2  C   UNL     1       3.205  16.579  17.917  0.00  0.00    +0.000 C 
ATOM      3  C   UNL     1       2.660  15.430  18.700  0.00  0.00    +0.000 A 
ATOM      4  C   UNL     1       3.213  14.923  19.814  0.00  0.00    +0.000 A 
ATOM      5  C   UNL     1       2.567  13.829  20.509  0.00  0.00    +0.000 A 
ATOM      6  C   UNL     1       1.425  13.248  20.080  0.00  0.00    +0.000 A 
ATOM      7  C   UNL     1       0.826  13.837  18.836  0.00  0.00    +0.000 A 
ATOM      8  O   UNL     1      -0.231  13.465  18.342  0.00  0.00    +0.000 OA
ATOM      9  N   UNL     1       1.493  14.880  18.247  0.00  0.00    +0.000 N 
ATOM     10  H   UNL     1       1.044  15.247  17.415  0.00  0.00    +0.000 HD
BRANCH   5  11
ATOM     11  O   UNL     1       3.173  13.421  21.682  0.00  0.00    +0.000 OA
ATOM     12  H   UNL     1       3.769  14.120  22.004  0.00  0.00    +0.000 HD
ENDBRANCH   5  11
ENDBRANCH   1   6
BRANCH   1  13
ATOM     13  C   UNL     1      -0.789  12.440  21.079  0.00  0.00    +0.000 A 
ATOM     14  C   UNL     1      -1.709  12.053  20.186  0.00  0.00    +0.000 A 
ATOM     15  N   UNL     1      -3.064  12.184  20.400  0.00  0.00    +0.000 N 
ATOM     16  C   UNL     1      -3.555  12.849  21.514  0.00  0.00    +0.000 A 
ATOM     17  O   UNL     1      -4.751  13.010  21.741  0.00  0.00    +0.000 OA
ATOM     18  N   UNL     1      -2.616  13.331  22.382  0.00  0.00    +0.000 N 
ATOM     19  C   UNL     1      -1.279  13.070  22.331  0.00  0.00    +0.000 A 
ATOM     20  O   UNL     1      -0.537  13.330  23.276  0.00  0.00    +0.000 OA
ATOM     21  H   UNL     1      -2.963  13.725  23.243  0.00  0.00    +0.000 HD
BRANCH  15  22
ATOM     22  C1* UNL     1      -4.025  11.611  19.470  0.00  0.00    +0.000 C 
ATOM     23  C2* UNL     1      -4.638  12.628  18.521  0.00  0.00    +0.000 C 
ATOM     24  C3* UNL     1      -4.960  11.784  17.310  0.00  0.00    +0.000 C 
ATOM     25  C4* UNL     1      -3.841  10.747  17.291  0.00  0.00    +0.000 C 
ATOM     26  O4* UNL     1      -3.396  10.595  18.660  0.00  0.00    +0.000 OA
BRANCH  24  27
ATOM     27  O3* UNL     1      -6.235  11.164  17.488  0.00  0.00    +0.000 OA
ATOM     28  H3* UNL     1      -6.792  11.336  16.707  0.00  0.00    +0.000 HD
ENDBRANCH  24  27
BRANCH  25  29
ATOM     29  C5* UNL     1      -2.641  11.187  16.445  0.00  0.00    +0.000 C 
BRANCH  29  30
ATOM     30  O5* UNL     1      -1.471  10.471  16.838  0.00  0.00    +0.000 OA
ATOM     31  H5* UNL     1      -0.725  10.876  16.356  0.00  0.00    +0.000 HD
ENDBRANCH  29  30
ENDBRANCH  25  29
ENDBRANCH  15  22
ENDBRANCH   1  13
BRANCH   1  32
ATOM     32  C   UNL     1       0.984  10.718  20.528  0.00  0.00    +0.000 A 
ATOM     33  C   UNL     1       1.139  10.172  19.306  0.00  0.00    +0.000 A 
ATOM     34  C   UNL     1       1.499   8.789  19.115  0.00  0.00    +0.000 A 
ATOM     35  C   UNL     1       1.645   7.972  20.169  0.00  0.00    +0.000 A 
ATOM     36  C   UNL     1       2.031   6.530  20.060  0.00  0.00    +0.000 C 
ATOM     37  N   UNL     1       1.425   8.475  21.428  0.00  0.00    +0.000 N 
ATOM     38  C   UNL     1       1.082   9.778  21.698  0.00  0.00    +0.000 A 
ATOM     39  O   UNL     1       0.840  10.141  22.846  0.00  0.00    +0.000 OA
ATOM     40  H   UNL     1       1.483   7.865  22.235  0.00  0.00    +0.000 HD
BRANCH  33  41
ATOM     41  O   UNL     1       0.896  10.847  18.134  0.00  0.00    +0.000 OA
ATOM     42  H   UNL     1       1.556  10.505  17.489  0.00  0.00    +0.000 HD
ENDBRANCH  33  41
ENDBRANCH   1  32
TORSDOF 9
ENDMDL
MODEL 7
REMARK VINA RESULT:      -6.2      2.671      5.565
REMARK  Name = 
REMARK  11 active torsions:
REMARK  status: ('A' for Active; 'I' for Inactive)
REMARK    1  A    between atoms: C_1  and  C_2
REMARK    2  A    between atoms: C_4  and  O_5
REMARK    3  A    between atoms: C_6  and  C_7
REMARK    4  A    between atoms: C_7  and  C_8
REMARK    5  A    between atoms: C_7  and  C_24
REMARK    6  A    between atoms: N_10  and  C1*_11
REMARK    7  A    between atoms: C3*_13  and  O3*_14
REMARK    8  A    between atoms: C4*_15  and  C5*_16
REMARK    9  A    between atoms: C5*_16  and  O5*_17
REMARK   10  A    between atoms: C_25  and  O_26
REMARK   11  A    between atoms: C_28  and  C_29
REMARK                            x       y       z     vdW  Elec       q    Type
REMARK                         _______ _______ _______ _____ _____    ______ ____
ROOT
ATOM      1  C   UNL     1      -2.128  12.952  20.321  0.00  0.00    +0.000 C 
ENDROOT
BRANCH   1   6
ATOM      2  C   UNL     1      -3.157  10.419  15.111  0.00  0.00    +0.000 C 
ATOM      3  C   UNL     1      -2.993  11.095  16.433  0.00  0.00    +0.000 A 
ATOM      4  C   UNL     1      -3.966  11.259  17.342  0.00  0.00    +0.000 A 
ATOM      5  C   UNL     1      -3.674  11.898  18.608  0.00  0.00    +0.000 A 
ATOM      6  C   UNL     1      -2.454  12.380  18.932  0.00  0.00    +0.000 A 
ATOM      7  C   UNL     1      -1.383  12.179  17.900  0.00  0.00    +0.000 A 
ATOM      8  O   UNL     1      -0.213  12.507  18.053  0.00  0.00    +0.000 OA
ATOM      9  N   UNL     1      -1.740  11.553  16.734  0.00  0.00    +0.000 N 
ATOM     10  H   UNL     1      -0.980  11.434  16.073  0.00  0.00    +0.000 HD
BRANCH   5  11
ATOM     11  O   UNL     1      -4.723  11.961  19.506  0.00  0.00    +0.000 OA
ATOM     12  H   UNL     1      -4.923  11.069  19.840  0.00  0.00    +0.000 HD
ENDBRANCH   5  11
ENDBRANCH   1   6
BRANCH   1  13
ATOM     13  C   UNL     1      -1.558  11.935  21.289  0.00  0.00    +0.000 A 
ATOM     14  C   UNL     1      -0.693  10.989  20.903  0.00  0.00    +0.000 A 
ATOM     15  N   UNL     1      -0.072  10.133  21.787  0.00  0.00    +0.000 N 
ATOM     16  C   UNL     1      -0.410  10.121  23.133  0.00  0.00    +0.000 A 
ATOM     17  O   UNL     1       0.099   9.366  23.957  0.00  0.00    +0.000 OA
ATOM     18  N   UNL     1      -1.364  11.021  23.515  0.00  0.00    +0.000 N 
ATOM     19  C   UNL     1      -1.874  12.018  22.737  0.00  0.00    +0.000 A 
ATOM     20  O   UNL     1      -2.538  12.933  23.219  0.00  0.00    +0.000 OA
ATOM     21  H   UNL     1      -1.542  11.090  24.505  0.00  0.00    +0.000 HD
BRANCH  15  22
ATOM     22  C1* UNL     1       0.973   9.226  21.338  0.00  0.00    +0.000 C 
ATOM     23  C2* UNL     1       0.451   7.881  20.860  0.00  0.00    +0.000 C 
ATOM     24  C3* UNL     1       1.497   7.470  19.851  0.00  0.00    +0.000 C 
ATOM     25  C4* UNL     1       1.942   8.796  19.239  0.00  0.00    +0.000 C 
ATOM     26  O4* UNL     1       1.711   9.812  20.244  0.00  0.00    +0.000 OA
BRANCH  24  27
ATOM     27  O3* UNL     1       2.580   6.825  20.524  0.00  0.00    +0.000 OA
ATOM     28  H3* UNL     1       3.409   7.302  20.339  0.00  0.00    +0.000 HD
ENDBRANCH  24  27
BRANCH  25  29
ATOM     29  C5* UNL     1       1.138   9.170  17.990  0.00  0.00    +0.000 C 
BRANCH  29  30
ATOM     30  O5* UNL     1       1.677  10.347  17.389  0.00  0.00    +0.000 OA
ATOM     31  H5* UNL     1       2.301  10.726  18.037  0.00  0.00    +0.000 HD
ENDBRANCH  29  30
ENDBRANCH  25  29
ENDBRANCH  15  22
ENDBRANCH   1  13
BRANCH   1  32
ATOM     32  C   UNL     1      -1.400  14.287  20.364  0.00  0.00    +0.000 A 
ATOM     33  C   UNL     1      -0.075  14.521  20.288  0.00  0.00    +0.000 A 
ATOM     34  C   UNL     1       0.476  15.853  20.259  0.00  0.00    +0.000 A 
ATOM     35  C   UNL     1      -0.326  16.924  20.363  0.00  0.00    +0.000 A 
ATOM     36  C   UNL     1       0.161  18.339  20.329  0.00  0.00    +0.000 C 
ATOM     37  N   UNL     1      -1.676  16.723  20.515  0.00  0.00    +0.000 N 
ATOM     38  C   UNL     1      -2.282  15.490  20.549  0.00  0.00    +0.000 A 
ATOM     39  O   UNL     1      -3.490  15.387  20.751  0.00  0.00    +0.000 OA
ATOM     40  H   UNL     1      -2.295  17.515  20.642  0.00  0.00    +0.000 HD
BRANCH  33  41
ATOM     41  O   UNL     1       0.876  13.530  20.307  0.00  0.00    +0.000 OA
ATOM     42  H   UNL     1       0.381  12.689  20.439  0.00  0.00    +0.000 HD
ENDBRANCH  33  41
ENDBRANCH   1  32
TORSDOF 9
ENDMDL
MODEL 8
REMARK VINA RESULT:      -6.0      2.643      7.384
REMARK  Name = 
REMARK  11 active torsions:
REMARK  status: ('A' for Active; 'I' for Inactive)
REMARK    1  A    between atoms: C_1  and  C_2
REMARK    2  A    between atoms: C_4  and  O_5
REMARK    3  A    between atoms: C_6  and  C_7
REMARK    4  A    between atoms: C_7  and  C_8
REMARK    5  A    between atoms: C_7  and  C_24
REMARK    6  A    between atoms: N_10  and  C1*_11
REMARK    7  A    between atoms: C3*_13  and  O3*_14
REMARK    8  A    between atoms: C4*_15  and  C5*_16
REMARK    9  A    between atoms: C5*_16  and  O5*_17
REMARK   10  A    between atoms: C_25  and  O_26
REMARK   11  A    between atoms: C_28  and  C_29
REMARK                            x       y       z     vdW  Elec       q    Type
REMARK                         _______ _______ _______ _____ _____    ______ ____
ROOT
ATOM      1  C   UNL     1      -0.061  12.794  20.557  0.00  0.00    +0.000 C 
ENDROOT
BRANCH   1   6
ATOM      2  C   UNL     1      -3.831  14.733  24.638  0.00  0.00    +0.000 C 
ATOM      3  C   UNL     1      -2.818  14.201  23.678  0.00  0.00    +0.000 A 
ATOM      4  C   UNL     1      -2.085  13.092  23.864  0.00  0.00    +0.000 A 
ATOM      5  C   UNL     1      -1.160  12.655  22.840  0.00  0.00    +0.000 A 
ATOM      6  C   UNL     1      -0.959  13.327  21.685  0.00  0.00    +0.000 A 
ATOM      7  C   UNL     1      -1.795  14.560  21.500  0.00  0.00    +0.000 A 
ATOM      8  O   UNL     1      -1.776  15.256  20.492  0.00  0.00    +0.000 OA
ATOM      9  N   UNL     1      -2.656  14.898  22.512  0.00  0.00    +0.000 N 
ATOM     10  H   UNL     1      -3.203  15.733  22.336  0.00  0.00    +0.000 HD
BRANCH   5  11
ATOM     11  O   UNL     1      -0.502  11.466  23.092  0.00  0.00    +0.000 OA
ATOM     12  H   UNL     1      -0.824  11.082  23.925  0.00  0.00    +0.000 HD
ENDBRANCH   5  11
ENDBRANCH   1   6
BRANCH   1  13
ATOM     13  C   UNL     1      -0.798  11.973  19.519  0.00  0.00    +0.000 A 
ATOM     14  C   UNL     1      -2.119  12.078  19.332  0.00  0.00    +0.000 A 
ATOM     15  N   UNL     1      -2.787  11.432  18.314  0.00  0.00    +0.000 N 
ATOM     16  C   UNL     1      -2.138  10.523  17.491  0.00  0.00    +0.000 A 
ATOM     17  O   UNL     1      -2.691   9.907  16.583  0.00  0.00    +0.000 OA
ATOM     18  N   UNL     1      -0.807  10.340  17.741  0.00  0.00    +0.000 N 
ATOM     19  C   UNL     1      -0.049  11.082  18.596  0.00  0.00    +0.000 A 
ATOM     20  O   UNL     1       1.179  11.022  18.584  0.00  0.00    +0.000 OA
ATOM     21  H   UNL     1      -0.305   9.760  17.085  0.00  0.00    +0.000 HD
BRANCH  15  22
ATOM     22  C1* UNL     1      -4.195  11.698  18.058  0.00  0.00    +0.000 C 
ATOM     23  C2* UNL     1      -5.100  10.506  18.320  0.00  0.00    +0.000 C 
ATOM     24  C3* UNL     1      -6.406  11.168  18.691  0.00  0.00    +0.000 C 
ATOM     25  C4* UNL     1      -5.968  12.439  19.414  0.00  0.00    +0.000 C 
ATOM     26  O4* UNL     1      -4.661  12.781  18.892  0.00  0.00    +0.000 OA
BRANCH  24  27
ATOM     27  O3* UNL     1      -7.137  11.477  17.503  0.00  0.00    +0.000 OA
ATOM     28  H3* UNL     1      -7.855  10.829  17.386  0.00  0.00    +0.000 HD
ENDBRANCH  24  27
BRANCH  25  29
ATOM     29  C5* UNL     1      -5.840  12.244  20.928  0.00  0.00    +0.000 C 
BRANCH  29  30
ATOM     30  O5* UNL     1      -6.859  11.364  21.401  0.00  0.00    +0.000 OA
ATOM     31  H5* UNL     1      -6.404  10.564  21.725  0.00  0.00    +0.000 HD
ENDBRANCH  29  30
ENDBRANCH  25  29
ENDBRANCH  15  22
ENDBRANCH   1  13
BRANCH   1  32
ATOM     32  C   UNL     1       0.934  13.769  19.948  0.00  0.00    +0.000 A 
ATOM     33  C   UNL     1       0.739  14.649  18.947  0.00  0.00    +0.000 A 
ATOM     34  C   UNL     1       1.758  15.577  18.522  0.00  0.00    +0.000 A 
ATOM     35  C   UNL     1       2.975  15.558  19.086  0.00  0.00    +0.000 A 
ATOM     36  C   UNL     1       4.082  16.493  18.714  0.00  0.00    +0.000 C 
ATOM     37  N   UNL     1       3.234  14.625  20.061  0.00  0.00    +0.000 N 
ATOM     38  C   UNL     1       2.321  13.710  20.526  0.00  0.00    +0.000 A 
ATOM     39  O   UNL     1       2.645  12.864  21.357  0.00  0.00    +0.000 OA
ATOM     40  H   UNL     1       4.160  14.562  20.468  0.00  0.00    +0.000 HD
BRANCH  33  41
ATOM     41  O   UNL     1      -0.406  14.699  18.190  0.00  0.00    +0.000 OA
ATOM     42  H   UNL     1      -0.318  15.503  17.628  0.00  0.00    +0.000 HD
ENDBRANCH  33  41
ENDBRANCH   1  32
TORSDOF 9
ENDMDL
MODEL 9
REMARK VINA RESULT:      -6.0      2.146      5.976
REMARK  Name = 
REMARK  11 active torsions:
REMARK  status: ('A' for Active; 'I' for Inactive)
REMARK    1  A    between atoms: C_1  and  C_2
REMARK    2  A    between atoms: C_4  and  O_5
REMARK    3  A    between atoms: C_6  and  C_7
REMARK    4  A    between atoms: C_7  and  C_8
REMARK    5  A    between atoms: C_7  and  C_24
REMARK    6  A    between atoms: N_10  and  C1*_11
REMARK    7  A    between atoms: C3*_13  and  O3*_14
REMARK    8  A    between atoms: C4*_15  and  C5*_16
REMARK    9  A    between atoms: C5*_16  and  O5*_17
REMARK   10  A    between atoms: C_25  and  O_26
REMARK   11  A    between atoms: C_28  and  C_29
REMARK                            x       y       z     vdW  Elec       q    Type
REMARK                         _______ _______ _______ _____ _____    ______ ____
ROOT
ATOM      1  C   UNL     1      -1.977  12.634  19.833  0.00  0.00    +0.000 C 
ENDROOT
BRANCH   1   6
ATOM      2  C   UNL     1      -7.339  12.548  22.253  0.00  0.00    +0.000 C 
ATOM      3  C   UNL     1      -6.016  12.516  21.561  0.00  0.00    +0.000 A 
ATOM      4  C   UNL     1      -5.842  12.481  20.230  0.00  0.00    +0.000 A 
ATOM      5  C   UNL     1      -4.505  12.492  19.674  0.00  0.00    +0.000 A 
ATOM      6  C   UNL     1      -3.386  12.507  20.432  0.00  0.00    +0.000 A 
ATOM      7  C   UNL     1      -3.610  12.550  21.916  0.00  0.00    +0.000 A 
ATOM      8  O   UNL     1      -2.709  12.620  22.743  0.00  0.00    +0.000 OA
ATOM      9  N   UNL     1      -4.907  12.551  22.360  0.00  0.00    +0.000 N 
ATOM     10  H   UNL     1      -5.005  12.589  23.368  0.00  0.00    +0.000 HD
BRANCH   5  11
ATOM     11  O   UNL     1      -4.427  12.525  18.295  0.00  0.00    +0.000 OA
ATOM     12  H   UNL     1      -3.595  12.949  18.023  0.00  0.00    +0.000 HD
ENDBRANCH   5  11
ENDBRANCH   1   6
BRANCH   1  13
ATOM     13  C   UNL     1      -1.387  14.026  19.935  0.00  0.00    +0.000 A 
ATOM     14  C   UNL     1      -1.796  14.909  20.854  0.00  0.00    +0.000 A 
ATOM     15  N   UNL     1      -1.190  16.133  21.041  0.00  0.00    +0.000 N 
ATOM     16  C   UNL     1      -0.188  16.577  20.191  0.00  0.00    +0.000 A 
ATOM     17  O   UNL     1       0.370  17.666  20.302  0.00  0.00    +0.000 OA
ATOM     18  N   UNL     1       0.168  15.717  19.190  0.00  0.00    +0.000 N 
ATOM     19  C   UNL     1      -0.251  14.426  19.066  0.00  0.00    +0.000 A 
ATOM     20  O   UNL     1       0.298  13.644  18.291  0.00  0.00    +0.000 OA
ATOM     21  H   UNL     1       0.962  15.986  18.631  0.00  0.00    +0.000 HD
BRANCH  15  22
ATOM     22  C1* UNL     1      -1.572  16.993  22.152  0.00  0.00    +0.000 C 
ATOM     23  C2* UNL     1      -3.032  16.860  22.553  0.00  0.00    +0.000 C 
ATOM     24  C3* UNL     1      -2.996  17.212  24.021  0.00  0.00    +0.000 C 
ATOM     25  C4* UNL     1      -1.642  16.680  24.481  0.00  0.00    +0.000 C 
ATOM     26  O4* UNL     1      -0.778  16.687  23.319  0.00  0.00    +0.000 OA
BRANCH  24  27
ATOM     27  O3* UNL     1      -3.070  18.630  24.172  0.00  0.00    +0.000 OA
ATOM     28  H3* UNL     1      -2.199  18.975  24.439  0.00  0.00    +0.000 HD
ENDBRANCH  24  27
BRANCH  25  29
ATOM     29  C5* UNL     1      -1.718  15.243  25.008  0.00  0.00    +0.000 C 
BRANCH  29  30
ATOM     30  O5* UNL     1      -0.924  14.377  24.199  0.00  0.00    +0.000 OA
ATOM     31  H5* UNL     1      -0.015  14.732  24.226  0.00  0.00    +0.000 HD
ENDBRANCH  29  30
ENDBRANCH  25  29
ENDBRANCH  15  22
ENDBRANCH   1  13
BRANCH   1  32
ATOM     32  C   UNL     1      -0.979  11.539  20.176  0.00  0.00    +0.000 A 
ATOM     33  C   UNL     1      -0.177  11.444  21.254  0.00  0.00    +0.000 A 
ATOM     34  C   UNL     1       0.668  10.300  21.493  0.00  0.00    +0.000 A 
ATOM     35  C   UNL     1       0.722   9.296  20.605  0.00  0.00    +0.000 A 
ATOM     36  C   UNL     1       1.559   8.068  20.783  0.00  0.00    +0.000 C 
ATOM     37  N   UNL     1      -0.028   9.390  19.458  0.00  0.00    +0.000 N 
ATOM     38  C   UNL     1      -0.860  10.441  19.155  0.00  0.00    +0.000 A 
ATOM     39  O   UNL     1      -1.452  10.486  18.079  0.00  0.00    +0.000 OA
ATOM     40  H   UNL     1       0.033   8.666  18.752  0.00  0.00    +0.000 HD
BRANCH  33  41
ATOM     41  O   UNL     1      -0.026  12.447  22.181  0.00  0.00    +0.000 OA
ATOM     42  H   UNL     1      -0.929  12.810  22.330  0.00  0.00    +0.000 HD
ENDBRANCH  33  41
ENDBRANCH   1  32
TORSDOF 9
ENDMDL
