MODEL 1
REMARK VINA RESULT:      -8.5      0.000      0.000
REMARK  Name = 
REMARK  6 active torsions:
REMARK  status: ('A' for Active; 'I' for Inactive)
REMARK    1  A    between atoms: C_2  and  C_3
REMARK    2  A    between atoms: C_3  and  S_4
REMARK    3  A    between atoms: S_4  and  C_5
REMARK    4  A    between atoms: N_9  and  C_10
REMARK    5  A    between atoms: C_20  and  C_21
REMARK    6  A    between atoms: C_21  and  C_22
REMARK                            x       y       z     vdW  Elec       q    Type
REMARK                         _______ _______ _______ _____ _____    ______ ____
ROOT
ATOM      1  O   UNL     1       2.873   4.018  20.227  0.00  0.00    +0.000 OA
ATOM      2  C   UNL     1       2.721   4.987  19.480  0.00  0.00    +0.000 C 
ATOM      3  N   UNL     1       2.259   6.144  20.031  0.00  0.00    +0.000 N 
ATOM      4  C   UNL     1       2.111   7.334  19.384  0.00  0.00    +0.000 A 
ATOM      5  N   UNL     1       2.523   7.673  18.190  0.00  0.00    +0.000 NA
ATOM      6  C   UNL     1       2.155   8.980  17.935  0.00  0.00    +0.000 A 
ATOM      7  C   UNL     1       1.486   9.623  18.959  0.00  0.00    +0.000 A 
ATOM      8  S   UNL     1       1.271   8.525  20.266  0.00  0.00    +0.000 S 
ATOM      9  H   UNL     1       2.007   6.108  21.009  0.00  0.00    +0.000 HD
ENDROOT
BRANCH   2  10
ATOM     10  C   UNL     1       3.033   4.922  17.986  0.00  0.00    +0.000 C 
BRANCH  10  11
ATOM     11  S   UNL     1       4.139   3.537  17.584  0.00  0.00    +0.000 S 
BRANCH  11  12
ATOM     12  C   UNL     1       5.690   4.268  17.872  0.00  0.00    +0.000 A 
ATOM     13  N   UNL     1       6.172   4.565  19.059  0.00  0.00    +0.000 NA
ATOM     14  N   UNL     1       7.489   4.883  18.859  0.00  0.00    +0.000 NA
ATOM     15  N   UNL     1       7.825   4.757  17.584  0.00  0.00    +0.000 NA
ATOM     16  N   UNL     1       6.678   4.455  16.919  0.00  0.00    +0.000 N 
BRANCH  16  17
ATOM     17  C   UNL     1       6.652   4.416  15.504  0.00  0.00    +0.000 A 
ATOM     18  C   UNL     1       5.693   3.626  14.854  0.00  0.00    +0.000 A 
ATOM     19  C   UNL     1       5.661   3.581  13.456  0.00  0.00    +0.000 A 
ATOM     20  C   UNL     1       6.595   4.295  12.708  0.00  0.00    +0.000 A 
ATOM     21  C   UNL     1       7.570   5.055  13.354  0.00  0.00    +0.000 A 
ATOM     22  C   UNL     1       7.599   5.119  14.747  0.00  0.00    +0.000 A 
ENDBRANCH  16  17
ENDBRANCH  11  12
ENDBRANCH  10  11
ENDBRANCH   2  10
BRANCH   7  23
ATOM     23  C   UNL     1       0.981  11.030  19.034  0.00  0.00    +0.000 C 
BRANCH  23  24
ATOM     24  C   UNL     1      -0.500  11.136  18.735  0.00  0.00    +0.000 A 
ATOM     25  C   UNL     1      -1.031  10.379  17.670  0.00  0.00    +0.000 A 
ATOM     26  C   UNL     1      -2.391  10.438  17.361  0.00  0.00    +0.000 A 
ATOM     27 CL   UNL     1      -3.003   9.545  16.025  0.00  0.00    +0.000 Cl
ATOM     28  C   UNL     1      -3.251  11.226  18.119  0.00  0.00    +0.000 A 
ATOM     29  C   UNL     1      -2.745  11.973  19.182  0.00  0.00    +0.000 A 
ATOM     30  C   UNL     1      -1.378  11.936  19.484  0.00  0.00    +0.000 A 
ATOM     31 CL   UNL     1      -0.828  12.930  20.785  0.00  0.00    +0.000 Cl
ENDBRANCH  23  24
ENDBRANCH   7  23
TORSDOF 6
ENDMDL
MODEL 2
REMARK VINA RESULT:      -8.4      2.373      3.386
REMARK  Name = 
REMARK  6 active torsions:
REMARK  status: ('A' for Active; 'I' for Inactive)
REMARK    1  A    between atoms: C_2  and  C_3
REMARK    2  A    between atoms: C_3  and  S_4
REMARK    3  A    between atoms: S_4  and  C_5
REMARK    4  A    between atoms: N_9  and  C_10
REMARK    5  A    between atoms: C_20  and  C_21
REMARK    6  A    between atoms: C_21  and  C_22
REMARK                            x       y       z     vdW  Elec       q    Type
REMARK                         _______ _______ _______ _____ _____    ______ ____
ROOT
ATOM      1  O   UNL     1       2.848   5.770  20.127  0.00  0.00    +0.000 OA
ATOM      2  C   UNL     1       2.511   6.768  19.487  0.00  0.00    +0.000 C 
ATOM      3  N   UNL     1       1.733   7.692  20.118  0.00  0.00    +0.000 N 
ATOM      4  C   UNL     1       1.338   8.889  19.604  0.00  0.00    +0.000 A 
ATOM      5  N   UNL     1       1.735   9.481  18.508  0.00  0.00    +0.000 NA
ATOM      6  C   UNL     1       1.070  10.683  18.370  0.00  0.00    +0.000 A 
ATOM      7  C   UNL     1       0.188  10.997  19.387  0.00  0.00    +0.000 A 
ATOM      8  S   UNL     1       0.163   9.708  20.527  0.00  0.00    +0.000 S 
ATOM      9  H   UNL     1       1.429   7.460  21.054  0.00  0.00    +0.000 HD
ENDROOT
BRANCH   2  10
ATOM     10  C   UNL     1       2.935   6.989  18.037  0.00  0.00    +0.000 C 
BRANCH  10  11
ATOM     11  S   UNL     1       4.743   6.986  17.851  0.00  0.00    +0.000 S 
BRANCH  11  12
ATOM     12  C   UNL     1       4.929   5.898  16.509  0.00  0.00    +0.000 A 
ATOM     13  N   UNL     1       5.485   6.211  15.358  0.00  0.00    +0.000 NA
ATOM     14  N   UNL     1       5.653   5.027  14.689  0.00  0.00    +0.000 NA
ATOM     15  N   UNL     1       5.240   4.001  15.418  0.00  0.00    +0.000 NA
ATOM     16  N   UNL     1       4.691   4.533  16.543  0.00  0.00    +0.000 N 
BRANCH  16  17
ATOM     17  C   UNL     1       4.000   3.714  17.467  0.00  0.00    +0.000 A 
ATOM     18  C   UNL     1       2.659   3.381  17.226  0.00  0.00    +0.000 A 
ATOM     19  C   UNL     1       1.968   2.572  18.135  0.00  0.00    +0.000 A 
ATOM     20  C   UNL     1       2.598   2.119  19.292  0.00  0.00    +0.000 A 
ATOM     21  C   UNL     1       3.922   2.475  19.549  0.00  0.00    +0.000 A 
ATOM     22  C   UNL     1       4.623   3.268  18.641  0.00  0.00    +0.000 A 
ENDBRANCH  16  17
ENDBRANCH  11  12
ENDBRANCH  10  11
ENDBRANCH   2  10
BRANCH   7  23
ATOM     23  C   UNL     1      -0.660  12.217  19.574  0.00  0.00    +0.000 C 
BRANCH  23  24
ATOM     24  C   UNL     1      -2.058  12.046  19.019  0.00  0.00    +0.000 A 
ATOM     25  C   UNL     1      -2.212  11.535  17.714  0.00  0.00    +0.000 A 
ATOM     26  C   UNL     1      -3.481  11.354  17.163  0.00  0.00    +0.000 A 
ATOM     27 CL   UNL     1      -3.639  10.778  15.550  0.00  0.00    +0.000 Cl
ATOM     28  C   UNL     1      -4.620  11.648  17.906  0.00  0.00    +0.000 A 
ATOM     29  C   UNL     1      -4.487  12.144  19.203  0.00  0.00    +0.000 A 
ATOM     30  C   UNL     1      -3.217  12.350  19.754  0.00  0.00    +0.000 A 
ATOM     31 CL   UNL     1      -3.143  13.014  21.347  0.00  0.00    +0.000 Cl
ENDBRANCH  23  24
ENDBRANCH   7  23
TORSDOF 6
ENDMDL
MODEL 3
REMARK VINA RESULT:      -8.4      2.018      2.670
REMARK  Name = 
REMARK  6 active torsions:
REMARK  status: ('A' for Active; 'I' for Inactive)
REMARK    1  A    between atoms: C_2  and  C_3
REMARK    2  A    between atoms: C_3  and  S_4
REMARK    3  A    between atoms: S_4  and  C_5
REMARK    4  A    between atoms: N_9  and  C_10
REMARK    5  A    between atoms: C_20  and  C_21
REMARK    6  A    between atoms: C_21  and  C_22
REMARK                            x       y       z     vdW  Elec       q    Type
REMARK                         _______ _______ _______ _____ _____    ______ ____
ROOT
ATOM      1  O   UNL     1       2.369   5.326  21.218  0.00  0.00    +0.000 OA
ATOM      2  C   UNL     1       2.183   6.253  20.426  0.00  0.00    +0.000 C 
ATOM      3  N   UNL     1       1.452   7.318  20.860  0.00  0.00    +0.000 N 
ATOM      4  C   UNL     1       1.217   8.464  20.162  0.00  0.00    +0.000 A 
ATOM      5  N   UNL     1       1.756   8.863  19.040  0.00  0.00    +0.000 NA
ATOM      6  C   UNL     1       1.225  10.088  18.688  0.00  0.00    +0.000 A 
ATOM      7  C   UNL     1       0.300  10.613  19.571  0.00  0.00    +0.000 A 
ATOM      8  S   UNL     1       0.058   9.499  20.860  0.00  0.00    +0.000 S 
ATOM      9  H   UNL     1       1.053   7.243  21.785  0.00  0.00    +0.000 HD
ENDROOT
BRANCH   2  10
ATOM     10  C   UNL     1       2.741   6.236  19.005  0.00  0.00    +0.000 C 
BRANCH  10  11
ATOM     11  S   UNL     1       1.795   5.129  17.918  0.00  0.00    +0.000 S 
BRANCH  11  12
ATOM     12  C   UNL     1       2.557   3.606  18.266  0.00  0.00    +0.000 A 
ATOM     13  N   UNL     1       1.961   2.580  18.834  0.00  0.00    +0.000 NA
ATOM     14  N   UNL     1       2.823   1.524  18.698  0.00  0.00    +0.000 NA
ATOM     15  N   UNL     1       3.913   1.877  18.034  0.00  0.00    +0.000 NA
ATOM     16  N   UNL     1       3.812   3.217  17.826  0.00  0.00    +0.000 N 
BRANCH  16  17
ATOM     17  C   UNL     1       4.896   3.948  17.283  0.00  0.00    +0.000 A 
ATOM     18  C   UNL     1       4.963   4.157  15.898  0.00  0.00    +0.000 A 
ATOM     19  C   UNL     1       6.031   4.878  15.354  0.00  0.00    +0.000 A 
ATOM     20  C   UNL     1       7.042   5.365  16.179  0.00  0.00    +0.000 A 
ATOM     21  C   UNL     1       6.994   5.130  17.553  0.00  0.00    +0.000 A 
ATOM     22  C   UNL     1       5.925   4.426  18.106  0.00  0.00    +0.000 A 
ENDBRANCH  16  17
ENDBRANCH  11  12
ENDBRANCH  10  11
ENDBRANCH   2  10
BRANCH   7  23
ATOM     23  C   UNL     1      -0.436  11.916  19.521  0.00  0.00    +0.000 C 
BRANCH  23  24
ATOM     24  C   UNL     1      -1.784  11.798  18.842  0.00  0.00    +0.000 A 
ATOM     25  C   UNL     1      -1.834  11.345  17.508  0.00  0.00    +0.000 A 
ATOM     26  C   UNL     1      -3.054  11.214  16.843  0.00  0.00    +0.000 A 
ATOM     27 CL   UNL     1      -3.081  10.708  15.200  0.00  0.00    +0.000 Cl
ATOM     28  C   UNL     1      -4.247  11.503  17.497  0.00  0.00    +0.000 A 
ATOM     29  C   UNL     1      -4.218  11.942  18.821  0.00  0.00    +0.000 A 
ATOM     30  C   UNL     1      -2.997  12.098  19.487  0.00  0.00    +0.000 A 
ATOM     31 CL   UNL     1      -3.049  12.695  21.107  0.00  0.00    +0.000 Cl
ENDBRANCH  23  24
ENDBRANCH   7  23
TORSDOF 6
ENDMDL
MODEL 4
REMARK VINA RESULT:      -8.3      2.151      2.898
REMARK  Name = 
REMARK  6 active torsions:
REMARK  status: ('A' for Active; 'I' for Inactive)
REMARK    1  A    between atoms: C_2  and  C_3
REMARK    2  A    between atoms: C_3  and  S_4
REMARK    3  A    between atoms: S_4  and  C_5
REMARK    4  A    between atoms: N_9  and  C_10
REMARK    5  A    between atoms: C_20  and  C_21
REMARK    6  A    between atoms: C_21  and  C_22
REMARK                            x       y       z     vdW  Elec       q    Type
REMARK                         _______ _______ _______ _____ _____    ______ ____
ROOT
ATOM      1  O   UNL     1       3.950   6.945  17.235  0.00  0.00    +0.000 OA
ATOM      2  C   UNL     1       3.161   7.389  18.072  0.00  0.00    +0.000 C 
ATOM      3  N   UNL     1       2.691   8.654  17.890  0.00  0.00    +0.000 N 
ATOM      4  C   UNL     1       1.754   9.277  18.657  0.00  0.00    +0.000 A 
ATOM      5  N   UNL     1       0.995   8.771  19.594  0.00  0.00    +0.000 NA
ATOM      6  C   UNL     1       0.188   9.763  20.114  0.00  0.00    +0.000 A 
ATOM      7  C   UNL     1       0.332  11.012  19.539  0.00  0.00    +0.000 A 
ATOM      8  S   UNL     1       1.562  10.940  18.339  0.00  0.00    +0.000 S 
ATOM      9  H   UNL     1       3.077   9.170  17.111  0.00  0.00    +0.000 HD
ENDROOT
BRANCH   2  10
ATOM     10  C   UNL     1       2.709   6.571  19.280  0.00  0.00    +0.000 C 
BRANCH  10  11
ATOM     11  S   UNL     1       2.087   4.933  18.797  0.00  0.00    +0.000 S 
BRANCH  11  12
ATOM     12  C   UNL     1       3.197   3.902  19.648  0.00  0.00    +0.000 A 
ATOM     13  N   UNL     1       2.923   3.262  20.765  0.00  0.00    +0.000 NA
ATOM     14  N   UNL     1       3.959   2.387  20.959  0.00  0.00    +0.000 NA
ATOM     15  N   UNL     1       4.839   2.459  19.971  0.00  0.00    +0.000 NA
ATOM     16  N   UNL     1       4.426   3.477  19.170  0.00  0.00    +0.000 N 
BRANCH  16  17
ATOM     17  C   UNL     1       5.237   3.932  18.104  0.00  0.00    +0.000 A 
ATOM     18  C   UNL     1       4.879   3.624  16.784  0.00  0.00    +0.000 A 
ATOM     19  C   UNL     1       5.676   4.069  15.724  0.00  0.00    +0.000 A 
ATOM     20  C   UNL     1       6.838   4.794  15.975  0.00  0.00    +0.000 A 
ATOM     21  C   UNL     1       7.214   5.074  17.289  0.00  0.00    +0.000 A 
ATOM     22  C   UNL     1       6.417   4.648  18.351  0.00  0.00    +0.000 A 
ENDBRANCH  16  17
ENDBRANCH  11  12
ENDBRANCH  10  11
ENDBRANCH   2  10
BRANCH   7  23
ATOM     23  C   UNL     1      -0.399  12.286  19.828  0.00  0.00    +0.000 C 
BRANCH  23  24
ATOM     24  C   UNL     1      -1.874  12.202  19.496  0.00  0.00    +0.000 A 
ATOM     25  C   UNL     1      -2.259  11.641  18.262  0.00  0.00    +0.000 A 
ATOM     26  C   UNL     1      -3.607  11.535  17.915  0.00  0.00    +0.000 A 
ATOM     27 CL   UNL     1      -4.047  10.894  16.381  0.00  0.00    +0.000 Cl
ATOM     28  C   UNL     1      -4.596  11.958  18.797  0.00  0.00    +0.000 A 
ATOM     29  C   UNL     1      -4.233  12.506  20.028  0.00  0.00    +0.000 A 
ATOM     30  C   UNL     1      -2.883  12.636  20.373  0.00  0.00    +0.000 A 
ATOM     31 CL   UNL     1      -2.521  13.371  21.894  0.00  0.00    +0.000 Cl
ENDBRANCH  23  24
ENDBRANCH   7  23
TORSDOF 6
ENDMDL
MODEL 5
REMARK VINA RESULT:      -8.3      2.074      2.811
REMARK  Name = 
REMARK  6 active torsions:
REMARK  status: ('A' for Active; 'I' for Inactive)
REMARK    1  A    between atoms: C_2  and  C_3
REMARK    2  A    between atoms: C_3  and  S_4
REMARK    3  A    between atoms: S_4  and  C_5
REMARK    4  A    between atoms: N_9  and  C_10
REMARK    5  A    between atoms: C_20  and  C_21
REMARK    6  A    between atoms: C_21  and  C_22
REMARK                            x       y       z     vdW  Elec       q    Type
REMARK                         _______ _______ _______ _____ _____    ______ ____
ROOT
ATOM      1  O   UNL     1       2.192   5.827  21.467  0.00  0.00    +0.000 OA
ATOM      2  C   UNL     1       2.023   6.629  20.546  0.00  0.00    +0.000 C 
ATOM      3  N   UNL     1       1.246   7.721  20.793  0.00  0.00    +0.000 N 
ATOM      4  C   UNL     1       1.019   8.751  19.931  0.00  0.00    +0.000 A 
ATOM      5  N   UNL     1       1.604   9.008  18.790  0.00  0.00    +0.000 NA
ATOM      6  C   UNL     1       1.061  10.155  18.247  0.00  0.00    +0.000 A 
ATOM      7  C   UNL     1       0.081  10.769  19.005  0.00  0.00    +0.000 A 
ATOM      8  S   UNL     1      -0.197   9.837  20.424  0.00  0.00    +0.000 S 
ATOM      9  H   UNL     1       0.804   7.763  21.700  0.00  0.00    +0.000 HD
ENDROOT
BRANCH   2  10
ATOM     10  C   UNL     1       2.651   6.433  19.168  0.00  0.00    +0.000 C 
BRANCH  10  11
ATOM     11  S   UNL     1       2.236   4.812  18.458  0.00  0.00    +0.000 S 
BRANCH  11  12
ATOM     12  C   UNL     1       3.343   3.787  19.322  0.00  0.00    +0.000 A 
ATOM     13  N   UNL     1       2.989   2.838  20.161  0.00  0.00    +0.000 NA
ATOM     14  N   UNL     1       4.129   2.125  20.422  0.00  0.00    +0.000 NA
ATOM     15  N   UNL     1       5.159   2.599  19.737  0.00  0.00    +0.000 NA
ATOM     16  N   UNL     1       4.708   3.713  19.099  0.00  0.00    +0.000 N 
BRANCH  16  17
ATOM     17  C   UNL     1       5.604   4.561  18.406  0.00  0.00    +0.000 A 
ATOM     18  C   UNL     1       5.703   4.468  17.010  0.00  0.00    +0.000 A 
ATOM     19  C   UNL     1       6.586   5.303  16.318  0.00  0.00    +0.000 A 
ATOM     20  C   UNL     1       7.389   6.206  17.011  0.00  0.00    +0.000 A 
ATOM     21  C   UNL     1       7.316   6.277  18.402  0.00  0.00    +0.000 A 
ATOM     22  C   UNL     1       6.426   5.460  19.099  0.00  0.00    +0.000 A 
ENDBRANCH  16  17
ENDBRANCH  11  12
ENDBRANCH  10  11
ENDBRANCH   2  10
BRANCH   7  23
ATOM     23  C   UNL     1      -0.683  12.029  18.739  0.00  0.00    +0.000 C 
BRANCH  23  24
ATOM     24  C   UNL     1      -2.075  11.766  18.204  0.00  0.00    +0.000 A 
ATOM     25  C   UNL     1      -2.212  11.242  16.902  0.00  0.00    +0.000 A 
ATOM     26  C   UNL     1      -3.474  10.976  16.369  0.00  0.00    +0.000 A 
ATOM     27 CL   UNL     1      -3.614  10.386  14.760  0.00  0.00    +0.000 Cl
ATOM     28  C   UNL     1      -4.619  11.199  17.126  0.00  0.00    +0.000 A 
ATOM     29  C   UNL     1      -4.502  11.707  18.420  0.00  0.00    +0.000 A 
ATOM     30  C   UNL     1      -3.241  11.997  18.953  0.00  0.00    +0.000 A 
ATOM     31 CL   UNL     1      -3.189  12.670  20.543  0.00  0.00    +0.000 Cl
ENDBRANCH  23  24
ENDBRANCH   7  23
TORSDOF 6
ENDMDL
MODEL 6
REMARK VINA RESULT:      -8.3      1.995      2.904
REMARK  Name = 
REMARK  6 active torsions:
REMARK  status: ('A' for Active; 'I' for Inactive)
REMARK    1  A    between atoms: C_2  and  C_3
REMARK    2  A    between atoms: C_3  and  S_4
REMARK    3  A    between atoms: S_4  and  C_5
REMARK    4  A    between atoms: N_9  and  C_10
REMARK    5  A    between atoms: C_20  and  C_21
REMARK    6  A    between atoms: C_21  and  C_22
REMARK                            x       y       z     vdW  Elec       q    Type
REMARK                         _______ _______ _______ _____ _____    ______ ____
ROOT
ATOM      1  O   UNL     1       4.288   4.755  19.720  0.00  0.00    +0.000 OA
ATOM      2  C   UNL     1       3.703   5.608  19.048  0.00  0.00    +0.000 C 
ATOM      3  N   UNL     1       2.993   6.560  19.716  0.00  0.00    +0.000 N 
ATOM      4  C   UNL     1       2.358   7.625  19.151  0.00  0.00    +0.000 A 
ATOM      5  N   UNL     1       2.423   8.059  17.919  0.00  0.00    +0.000 NA
ATOM      6  C   UNL     1       1.613   9.169  17.782  0.00  0.00    +0.000 A 
ATOM      7  C   UNL     1       0.960   9.577  18.930  0.00  0.00    +0.000 A 
ATOM      8  S   UNL     1       1.343   8.492  20.210  0.00  0.00    +0.000 S 
ATOM      9  H   UNL     1       2.940   6.462  20.720  0.00  0.00    +0.000 HD
ENDROOT
BRANCH   2  10
ATOM     10  C   UNL     1       3.754   5.621  17.522  0.00  0.00    +0.000 C 
BRANCH  10  11
ATOM     11  S   UNL     1       5.037   6.744  16.895  0.00  0.00    +0.000 S 
BRANCH  11  12
ATOM     12  C   UNL     1       6.472   5.835  17.264  0.00  0.00    +0.000 A 
ATOM     13  N   UNL     1       7.052   5.793  18.444  0.00  0.00    +0.000 NA
ATOM     14  N   UNL     1       7.981   4.789  18.369  0.00  0.00    +0.000 NA
ATOM     15  N   UNL     1       7.956   4.200  17.182  0.00  0.00    +0.000 NA
ATOM     16  N   UNL     1       7.069   4.904  16.430  0.00  0.00    +0.000 N 
BRANCH  16  17
ATOM     17  C   UNL     1       6.925   4.640  15.047  0.00  0.00    +0.000 A 
ATOM     18  C   UNL     1       7.773   5.278  14.130  0.00  0.00    +0.000 A 
ATOM     19  C   UNL     1       7.637   5.022  12.762  0.00  0.00    +0.000 A 
ATOM     20  C   UNL     1       6.644   4.159  12.303  0.00  0.00    +0.000 A 
ATOM     21  C   UNL     1       5.779   3.548  13.211  0.00  0.00    +0.000 A 
ATOM     22  C   UNL     1       5.918   3.785  14.578  0.00  0.00    +0.000 A 
ENDBRANCH  16  17
ENDBRANCH  11  12
ENDBRANCH  10  11
ENDBRANCH   2  10
BRANCH   7  23
ATOM     23  C   UNL     1       0.047  10.744  19.147  0.00  0.00    +0.000 C 
BRANCH  23  24
ATOM     24  C   UNL     1       0.784  11.982  19.612  0.00  0.00    +0.000 A 
ATOM     25  C   UNL     1       1.651  12.633  18.711  0.00  0.00    +0.000 A 
ATOM     26  C   UNL     1       2.346  13.782  19.092  0.00  0.00    +0.000 A 
ATOM     27 CL   UNL     1       3.437  14.525  17.990  0.00  0.00    +0.000 Cl
ATOM     28  C   UNL     1       2.173  14.320  20.362  0.00  0.00    +0.000 A 
ATOM     29  C   UNL     1       1.311  13.696  21.264  0.00  0.00    +0.000 A 
ATOM     30  C   UNL     1       0.627  12.531  20.896  0.00  0.00    +0.000 A 
ATOM     31 CL   UNL     1      -0.381  11.794  22.089  0.00  0.00    +0.000 Cl
ENDBRANCH  23  24
ENDBRANCH   7  23
TORSDOF 6
ENDMDL
MODEL 7
REMARK VINA RESULT:      -8.2      4.183     10.141
REMARK  Name = 
REMARK  6 active torsions:
REMARK  status: ('A' for Active; 'I' for Inactive)
REMARK    1  A    between atoms: C_2  and  C_3
REMARK    2  A    between atoms: C_3  and  S_4
REMARK    3  A    between atoms: S_4  and  C_5
REMARK    4  A    between atoms: N_9  and  C_10
REMARK    5  A    between atoms: C_20  and  C_21
REMARK    6  A    between atoms: C_21  and  C_22
REMARK                            x       y       z     vdW  Elec       q    Type
REMARK                         _______ _______ _______ _____ _____    ______ ____
ROOT
ATOM      1  O   UNL     1       0.194   8.929  21.999  0.00  0.00    +0.000 OA
ATOM      2  C   UNL     1       0.904   8.600  21.047  0.00  0.00    +0.000 C 
ATOM      3  N   UNL     1       1.342   7.310  21.000  0.00  0.00    +0.000 N 
ATOM      4  C   UNL     1       2.058   6.746  19.988  0.00  0.00    +0.000 A 
ATOM      5  N   UNL     1       2.329   7.234  18.806  0.00  0.00    +0.000 NA
ATOM      6  C   UNL     1       3.087   6.322  18.098  0.00  0.00    +0.000 A 
ATOM      7  C   UNL     1       3.359   5.136  18.753  0.00  0.00    +0.000 A 
ATOM      8  S   UNL     1       2.679   5.197  20.332  0.00  0.00    +0.000 S 
ATOM      9  H   UNL     1       1.107   6.726  21.790  0.00  0.00    +0.000 HD
ENDROOT
BRANCH   2  10
ATOM     10  C   UNL     1       1.294   9.581  19.944  0.00  0.00    +0.000 C 
BRANCH  10  11
ATOM     11  S   UNL     1      -0.160  10.239  19.075  0.00  0.00    +0.000 S 
BRANCH  11  12
ATOM     12  C   UNL     1       0.146  11.947  19.181  0.00  0.00    +0.000 A 
ATOM     13  N   UNL     1       0.985  12.610  18.415  0.00  0.00    +0.000 NA
ATOM     14  N   UNL     1       0.744  13.936  18.655  0.00  0.00    +0.000 NA
ATOM     15  N   UNL     1      -0.243  14.095  19.525  0.00  0.00    +0.000 NA
ATOM     16  N   UNL     1      -0.581  12.846  19.945  0.00  0.00    +0.000 N 
BRANCH  16  17
ATOM     17  C   UNL     1      -1.497  12.664  21.008  0.00  0.00    +0.000 A 
ATOM     18  C   UNL     1      -2.846  13.001  20.822  0.00  0.00    +0.000 A 
ATOM     19  C   UNL     1      -3.758  12.825  21.868  0.00  0.00    +0.000 A 
ATOM     20  C   UNL     1      -3.327  12.344  23.102  0.00  0.00    +0.000 A 
ATOM     21  C   UNL     1      -1.980  12.039  23.300  0.00  0.00    +0.000 A 
ATOM     22  C   UNL     1      -1.067  12.196  22.257  0.00  0.00    +0.000 A 
ENDBRANCH  16  17
ENDBRANCH  11  12
ENDBRANCH  10  11
ENDBRANCH   2  10
BRANCH   7  23
ATOM     23  C   UNL     1       4.110   3.932  18.276  0.00  0.00    +0.000 C 
BRANCH  23  24
ATOM     24  C   UNL     1       5.196   4.279  17.279  0.00  0.00    +0.000 A 
ATOM     25  C   UNL     1       4.999   3.952  15.922  0.00  0.00    +0.000 A 
ATOM     26  C   UNL     1       5.968   4.258  14.965  0.00  0.00    +0.000 A 
ATOM     27 CL   UNL     1       5.724   3.801  13.325  0.00  0.00    +0.000 Cl
ATOM     28  C   UNL     1       7.135   4.919  15.333  0.00  0.00    +0.000 A 
ATOM     29  C   UNL     1       7.343   5.260  16.669  0.00  0.00    +0.000 A 
ATOM     30  C   UNL     1       6.385   4.936  17.638  0.00  0.00    +0.000 A 
ATOM     31 CL   UNL     1       6.744   5.350  19.276  0.00  0.00    +0.000 Cl
ENDBRANCH  23  24
ENDBRANCH   7  23
TORSDOF 6
ENDMDL
MODEL 8
REMARK VINA RESULT:      -8.1      4.932     10.279
REMARK  Name = 
REMARK  6 active torsions:
REMARK  status: ('A' for Active; 'I' for Inactive)
REMARK    1  A    between atoms: C_2  and  C_3
REMARK    2  A    between atoms: C_3  and  S_4
REMARK    3  A    between atoms: S_4  and  C_5
REMARK    4  A    between atoms: N_9  and  C_10
REMARK    5  A    between atoms: C_20  and  C_21
REMARK    6  A    between atoms: C_21  and  C_22
REMARK                            x       y       z     vdW  Elec       q    Type
REMARK                         _______ _______ _______ _____ _____    ______ ____
ROOT
ATOM      1  O   UNL     1      -1.065  10.745  21.941  0.00  0.00    +0.000 OA
ATOM      2  C   UNL     1      -0.439  10.551  20.896  0.00  0.00    +0.000 C 
ATOM      3  N   UNL     1       0.334   9.432  20.820  0.00  0.00    +0.000 N 
ATOM      4  C   UNL     1       1.023   9.009  19.723  0.00  0.00    +0.000 A 
ATOM      5  N   UNL     1       0.966   9.461  18.497  0.00  0.00    +0.000 NA
ATOM      6  C   UNL     1       1.838   8.740  17.704  0.00  0.00    +0.000 A 
ATOM      7  C   UNL     1       2.529   7.728  18.344  0.00  0.00    +0.000 A 
ATOM      8  S   UNL     1       2.101   7.722  20.011  0.00  0.00    +0.000 S 
ATOM      9  H   UNL     1       0.394   8.868  21.656  0.00  0.00    +0.000 HD
ENDROOT
BRANCH   2  10
ATOM     10  C   UNL     1      -0.510  11.514  19.712  0.00  0.00    +0.000 C 
BRANCH  10  11
ATOM     11  S   UNL     1      -2.202  12.109  19.422  0.00  0.00    +0.000 S 
BRANCH  11  12
ATOM     12  C   UNL     1      -2.593  11.271  17.951  0.00  0.00    +0.000 A 
ATOM     13  N   UNL     1      -1.725  10.629  17.198  0.00  0.00    +0.000 NA
ATOM     14  N   UNL     1      -2.468   9.917  16.294  0.00  0.00    +0.000 NA
ATOM     15  N   UNL     1      -3.765  10.087  16.500  0.00  0.00    +0.000 NA
ATOM     16  N   UNL     1      -3.873  11.014  17.489  0.00  0.00    +0.000 N 
BRANCH  16  17
ATOM     17  C   UNL     1      -5.135  11.551  17.841  0.00  0.00    +0.000 A 
ATOM     18  C   UNL     1      -5.672  12.603  17.085  0.00  0.00    +0.000 A 
ATOM     19  C   UNL     1      -6.918  13.140  17.427  0.00  0.00    +0.000 A 
ATOM     20  C   UNL     1      -7.614  12.653  18.531  0.00  0.00    +0.000 A 
ATOM     21  C   UNL     1      -7.066  11.629  19.304  0.00  0.00    +0.000 A 
ATOM     22  C   UNL     1      -5.832  11.077  18.961  0.00  0.00    +0.000 A 
ENDBRANCH  16  17
ENDBRANCH  11  12
ENDBRANCH  10  11
ENDBRANCH   2  10
BRANCH   7  23
ATOM     23  C   UNL     1       3.511   6.744  17.790  0.00  0.00    +0.000 C 
BRANCH  23  24
ATOM     24  C   UNL     1       3.369   5.368  18.406  0.00  0.00    +0.000 A 
ATOM     25  C   UNL     1       2.137   4.693  18.280  0.00  0.00    +0.000 A 
ATOM     26  C   UNL     1       1.961   3.421  18.825  0.00  0.00    +0.000 A 
ATOM     27 CL   UNL     1       0.432   2.643  18.702  0.00  0.00    +0.000 Cl
ATOM     28  C   UNL     1       3.009   2.784  19.480  0.00  0.00    +0.000 A 
ATOM     29  C   UNL     1       4.239   3.431  19.605  0.00  0.00    +0.000 A 
ATOM     30  C   UNL     1       4.416   4.717  19.080  0.00  0.00    +0.000 A 
ATOM     31 CL   UNL     1       5.954   5.466  19.323  0.00  0.00    +0.000 Cl
ENDBRANCH  23  24
ENDBRANCH   7  23
TORSDOF 6
ENDMDL
MODEL 9
REMARK VINA RESULT:      -8.1      1.743      2.732
REMARK  Name = 
REMARK  6 active torsions:
REMARK  status: ('A' for Active; 'I' for Inactive)
REMARK    1  A    between atoms: C_2  and  C_3
REMARK    2  A    between atoms: C_3  and  S_4
REMARK    3  A    between atoms: S_4  and  C_5
REMARK    4  A    between atoms: N_9  and  C_10
REMARK    5  A    between atoms: C_20  and  C_21
REMARK    6  A    between atoms: C_21  and  C_22
REMARK                            x       y       z     vdW  Elec       q    Type
REMARK                         _______ _______ _______ _____ _____    ______ ____
ROOT
ATOM      1  O   UNL     1       3.684   4.275  19.892  0.00  0.00    +0.000 OA
ATOM      2  C   UNL     1       3.376   5.237  19.185  0.00  0.00    +0.000 C 
ATOM      3  N   UNL     1       2.759   6.292  19.786  0.00  0.00    +0.000 N 
ATOM      4  C   UNL     1       2.425   7.470  19.188  0.00  0.00    +0.000 A 
ATOM      5  N   UNL     1       2.757   7.908  18.001  0.00  0.00    +0.000 NA
ATOM      6  C   UNL     1       2.196   9.154  17.801  0.00  0.00    +0.000 A 
ATOM      7  C   UNL     1       1.460   9.654  18.859  0.00  0.00    +0.000 A 
ATOM      8  S   UNL     1       1.436   8.491  20.126  0.00  0.00    +0.000 S 
ATOM      9  H   UNL     1       2.535   6.185  20.766  0.00  0.00    +0.000 HD
ENDROOT
BRANCH   2  10
ATOM     10  C   UNL     1       3.663   5.271  17.685  0.00  0.00    +0.000 C 
BRANCH  10  11
ATOM     11  S   UNL     1       4.303   3.682  17.080  0.00  0.00    +0.000 S 
BRANCH  11  12
ATOM     12  C   UNL     1       5.307   4.217  15.766  0.00  0.00    +0.000 A 
ATOM     13  N   UNL     1       5.116   3.910  14.501  0.00  0.00    +0.000 NA
ATOM     14  N   UNL     1       5.960   4.720  13.787  0.00  0.00    +0.000 NA
ATOM     15  N   UNL     1       6.635   5.532  14.587  0.00  0.00    +0.000 NA
ATOM     16  N   UNL     1       6.307   5.172  15.857  0.00  0.00    +0.000 N 
BRANCH  16  17
ATOM     17  C   UNL     1       6.984   5.734  16.965  0.00  0.00    +0.000 A 
ATOM     18  C   UNL     1       7.351   4.910  18.040  0.00  0.00    +0.000 A 
ATOM     19  C   UNL     1       8.020   5.458  19.139  0.00  0.00    +0.000 A 
ATOM     20  C   UNL     1       8.298   6.822  19.184  0.00  0.00    +0.000 A 
ATOM     21  C   UNL     1       7.905   7.649  18.132  0.00  0.00    +0.000 A 
ATOM     22  C   UNL     1       7.252   7.108  17.024  0.00  0.00    +0.000 A 
ENDBRANCH  16  17
ENDBRANCH  11  12
ENDBRANCH  10  11
ENDBRANCH   2  10
BRANCH   7  23
ATOM     23  C   UNL     1       0.755  10.968  18.995  0.00  0.00    +0.000 C 
BRANCH  23  24
ATOM     24  C   UNL     1      -0.700  10.894  18.581  0.00  0.00    +0.000 A 
ATOM     25  C   UNL     1      -1.034  10.200  17.401  0.00  0.00    +0.000 A 
ATOM     26  C   UNL     1      -2.362  10.100  16.983  0.00  0.00    +0.000 A 
ATOM     27 CL   UNL     1      -2.736   9.292  15.512  0.00  0.00    +0.000 Cl
ATOM     28  C   UNL     1      -3.383  10.662  17.742  0.00  0.00    +0.000 A 
ATOM     29  C   UNL     1      -3.072  11.343  18.919  0.00  0.00    +0.000 A 
ATOM     30  C   UNL     1      -1.740  11.467  19.333  0.00  0.00    +0.000 A 
ATOM     31 CL   UNL     1      -1.440  12.369  20.774  0.00  0.00    +0.000 Cl
ENDBRANCH  23  24
ENDBRANCH   7  23
TORSDOF 6
ENDMDL
