MODEL 1
REMARK VINA RESULT:      -8.1      0.000      0.000
REMARK  Name = 
REMARK  3 active torsions:
REMARK  status: ('A' for Active; 'I' for Inactive)
REMARK    1  A    between atoms: C_17  and  C_18
REMARK    2  A    between atoms: C_18  and  C_19
REMARK    3  A    between atoms: C_19  and  O_20
REMARK                            x       y       z     vdW  Elec       q    Type
REMARK                         _______ _______ _______ _____ _____    ______ ____
ROOT
ATOM      1  O   UNL     1       7.256   5.253  20.305  0.00  0.00    +0.000 OA
ATOM      2  C   UNL     1       6.762   5.275  19.174  0.00  0.00    +0.000 C 
ATOM      3  C   UNL     1       5.434   4.650  18.957  0.00  0.00    +0.000 A 
ATOM      4  N   UNL     1       5.004   3.571  19.731  0.00  0.00    +0.000 N 
ATOM      5  C   UNL     1       3.720   3.176  19.415  0.00  0.00    +0.000 A 
ATOM      6  C   UNL     1       2.890   2.154  19.907  0.00  0.00    +0.000 A 
ATOM      7  C   UNL     1       1.579   2.075  19.409  0.00  0.00    +0.000 A 
ATOM      8  C   UNL     1       1.108   2.974  18.459  0.00  0.00    +0.000 A 
ATOM      9  C   UNL     1       1.962   3.949  17.947  0.00  0.00    +0.000 A 
ATOM     10  C   UNL     1       3.289   4.044  18.426  0.00  0.00    +0.000 A 
ATOM     11  C   UNL     1       4.380   4.897  18.067  0.00  0.00    +0.000 A 
ATOM     12  C   UNL     1       4.181   5.876  16.955  0.00  0.00    +0.000 C 
ATOM     13  N   UNL     1       5.376   6.495  16.459  0.00  0.00    +0.000 NA
ATOM     14  C   UNL     1       6.332   5.604  15.797  0.00  0.00    +0.000 C 
ATOM     15  C   UNL     1       7.344   4.931  16.759  0.00  0.00    +0.000 C 
ATOM     16  C   UNL     1       7.628   5.851  18.000  0.00  0.00    +0.000 C 
ATOM     17  C   UNL     1       7.386   7.327  17.501  0.00  0.00    +0.000 C 
ATOM     18  C   UNL     1       5.897   7.518  17.367  0.00  0.00    +0.000 C 
ATOM     19  H   UNL     1       5.568   3.140  20.455  0.00  0.00    +0.000 HD
ENDROOT
BRANCH  17  20
ATOM     20  C   UNL     1       8.202   8.650  17.413  0.00  0.00    +0.000 C 
BRANCH  20  21
ATOM     21  C   UNL     1       8.697   9.365  18.671  0.00  0.00    +0.000 C 
BRANCH  21  22
ATOM     22  O   UNL     1       9.304  10.576  18.343  0.00  0.00    +0.000 OA
ATOM     23  H   UNL     1       9.522  11.057  19.163  0.00  0.00    +0.000 HD
ENDBRANCH  21  22
ENDBRANCH  20  21
ENDBRANCH  17  20
TORSDOF 3
ENDMDL
MODEL 2
REMARK VINA RESULT:      -7.8      2.664      6.035
REMARK  Name = 
REMARK  3 active torsions:
REMARK  status: ('A' for Active; 'I' for Inactive)
REMARK    1  A    between atoms: C_17  and  C_18
REMARK    2  A    between atoms: C_18  and  C_19
REMARK    3  A    between atoms: C_19  and  O_20
REMARK                            x       y       z     vdW  Elec       q    Type
REMARK                         _______ _______ _______ _____ _____    ______ ____
ROOT
ATOM      1  O   UNL     1       6.480   5.080  19.662  0.00  0.00    +0.000 OA
ATOM      2  C   UNL     1       5.483   4.915  18.953  0.00  0.00    +0.000 C 
ATOM      3  C   UNL     1       5.661   4.758  17.489  0.00  0.00    +0.000 A 
ATOM      4  N   UNL     1       6.728   5.359  16.818  0.00  0.00    +0.000 N 
ATOM      5  C   UNL     1       6.748   5.042  15.475  0.00  0.00    +0.000 A 
ATOM      6  C   UNL     1       7.604   5.411  14.423  0.00  0.00    +0.000 A 
ATOM      7  C   UNL     1       7.383   4.833  13.162  0.00  0.00    +0.000 A 
ATOM      8  C   UNL     1       6.353   3.923  12.951  0.00  0.00    +0.000 A 
ATOM      9  C   UNL     1       5.484   3.609  13.994  0.00  0.00    +0.000 A 
ATOM     10  C   UNL     1       5.680   4.184  15.271  0.00  0.00    +0.000 A 
ATOM     11  C   UNL     1       4.943   4.083  16.492  0.00  0.00    +0.000 A 
ATOM     12  C   UNL     1       3.690   3.268  16.502  0.00  0.00    +0.000 C 
ATOM     13  N   UNL     1       2.857   3.432  17.657  0.00  0.00    +0.000 NA
ATOM     14  C   UNL     1       2.257   4.757  17.831  0.00  0.00    +0.000 C 
ATOM     15  C   UNL     1       3.148   5.762  18.604  0.00  0.00    +0.000 C 
ATOM     16  C   UNL     1       4.072   5.011  19.630  0.00  0.00    +0.000 C 
ATOM     17  C   UNL     1       3.298   3.692  20.014  0.00  0.00    +0.000 C 
ATOM     18  C   UNL     1       3.395   2.755  18.838  0.00  0.00    +0.000 C 
ATOM     19  H   UNL     1       7.416   5.947  17.273  0.00  0.00    +0.000 HD
ENDROOT
BRANCH  17  20
ATOM     20  C   UNL     1       2.760   3.021  21.312  0.00  0.00    +0.000 C 
BRANCH  20  21
ATOM     21  C   UNL     1       1.266   2.772  21.518  0.00  0.00    +0.000 C 
BRANCH  21  22
ATOM     22  O   UNL     1       0.520   3.391  20.516  0.00  0.00    +0.000 OA
ATOM     23  H   UNL     1       0.242   2.721  19.865  0.00  0.00    +0.000 HD
ENDBRANCH  21  22
ENDBRANCH  20  21
ENDBRANCH  17  20
TORSDOF 3
ENDMDL
MODEL 3
REMARK VINA RESULT:      -7.3      2.647      6.036
REMARK  Name = 
REMARK  3 active torsions:
REMARK  status: ('A' for Active; 'I' for Inactive)
REMARK    1  A    between atoms: C_17  and  C_18
REMARK    2  A    between atoms: C_18  and  C_19
REMARK    3  A    between atoms: C_19  and  O_20
REMARK                            x       y       z     vdW  Elec       q    Type
REMARK                         _______ _______ _______ _____ _____    ______ ____
ROOT
ATOM      1  O   UNL     1       7.459   4.689  18.795  0.00  0.00    +0.000 OA
ATOM      2  C   UNL     1       6.364   4.691  18.226  0.00  0.00    +0.000 C 
ATOM      3  C   UNL     1       6.323   4.592  16.746  0.00  0.00    +0.000 A 
ATOM      4  N   UNL     1       7.362   5.087  15.956  0.00  0.00    +0.000 N 
ATOM      5  C   UNL     1       7.162   4.843  14.613  0.00  0.00    +0.000 A 
ATOM      6  C   UNL     1       7.912   5.156  13.466  0.00  0.00    +0.000 A 
ATOM      7  C   UNL     1       7.451   4.680  12.228  0.00  0.00    +0.000 A 
ATOM      8  C   UNL     1       6.289   3.923  12.129  0.00  0.00    +0.000 A 
ATOM      9  C   UNL     1       5.532   3.666  13.270  0.00  0.00    +0.000 A 
ATOM     10  C   UNL     1       5.971   4.141  14.528  0.00  0.00    +0.000 A 
ATOM     11  C   UNL     1       5.396   4.069  15.835  0.00  0.00    +0.000 A 
ATOM     12  C   UNL     1       4.057   3.421  15.988  0.00  0.00    +0.000 C 
ATOM     13  N   UNL     1       3.414   3.627  17.253  0.00  0.00    +0.000 NA
ATOM     14  C   UNL     1       3.025   5.007  17.557  0.00  0.00    +0.000 C 
ATOM     15  C   UNL     1       4.138   5.847  18.235  0.00  0.00    +0.000 C 
ATOM     16  C   UNL     1       5.080   4.929  19.095  0.00  0.00    +0.000 C 
ATOM     17  C   UNL     1       4.195   3.701  19.534  0.00  0.00    +0.000 C 
ATOM     18  C   UNL     1       4.009   2.824  18.323  0.00  0.00    +0.000 C 
ATOM     19  H   UNL     1       8.178   5.557  16.332  0.00  0.00    +0.000 HD
ENDROOT
BRANCH  17  20
ATOM     20  C   UNL     1       3.750   3.035  20.870  0.00  0.00    +0.000 C 
BRANCH  20  21
ATOM     21  C   UNL     1       2.302   2.597  21.095  0.00  0.00    +0.000 C 
BRANCH  21  22
ATOM     22  O   UNL     1       1.876   2.946  22.376  0.00  0.00    +0.000 OA
ATOM     23  H   UNL     1       2.640   2.936  22.981  0.00  0.00    +0.000 HD
ENDBRANCH  21  22
ENDBRANCH  20  21
ENDBRANCH  17  20
TORSDOF 3
ENDMDL
MODEL 4
REMARK VINA RESULT:      -6.8      2.693      5.968
REMARK  Name = 
REMARK  3 active torsions:
REMARK  status: ('A' for Active; 'I' for Inactive)
REMARK    1  A    between atoms: C_17  and  C_18
REMARK    2  A    between atoms: C_18  and  C_19
REMARK    3  A    between atoms: C_19  and  O_20
REMARK                            x       y       z     vdW  Elec       q    Type
REMARK                         _______ _______ _______ _____ _____    ______ ____
ROOT
ATOM      1  O   UNL     1       7.768   4.660  18.523  0.00  0.00    +0.000 OA
ATOM      2  C   UNL     1       6.644   4.671  18.011  0.00  0.00    +0.000 C 
ATOM      3  C   UNL     1       6.526   4.581  16.536  0.00  0.00    +0.000 A 
ATOM      4  N   UNL     1       7.525   5.077  15.695  0.00  0.00    +0.000 N 
ATOM      5  C   UNL     1       7.255   4.843  14.363  0.00  0.00    +0.000 A 
ATOM      6  C   UNL     1       7.946   5.159  13.181  0.00  0.00    +0.000 A 
ATOM      7  C   UNL     1       7.419   4.693  11.965  0.00  0.00    +0.000 A 
ATOM      8  C   UNL     1       6.250   3.941  11.922  0.00  0.00    +0.000 A 
ATOM      9  C   UNL     1       5.552   3.681  13.099  0.00  0.00    +0.000 A 
ATOM     10  C   UNL     1       6.057   4.146  14.335  0.00  0.00    +0.000 A 
ATOM     11  C   UNL     1       5.551   4.068  15.670  0.00  0.00    +0.000 A 
ATOM     12  C   UNL     1       4.219   3.425  15.889  0.00  0.00    +0.000 C 
ATOM     13  N   UNL     1       3.643   3.626  17.187  0.00  0.00    +0.000 NA
ATOM     14  C   UNL     1       3.277   5.005  17.518  0.00  0.00    +0.000 C 
ATOM     15  C   UNL     1       4.427   5.836  18.143  0.00  0.00    +0.000 C 
ATOM     16  C   UNL     1       5.409   4.909  18.947  0.00  0.00    +0.000 C 
ATOM     17  C   UNL     1       4.542   3.682  19.424  0.00  0.00    +0.000 C 
ATOM     18  C   UNL     1       4.289   2.813  18.220  0.00  0.00    +0.000 C 
ATOM     19  H   UNL     1       8.361   5.541  16.032  0.00  0.00    +0.000 HD
ENDROOT
BRANCH  17  20
ATOM     20  C   UNL     1       4.163   3.009  20.777  0.00  0.00    +0.000 C 
BRANCH  20  21
ATOM     21  C   UNL     1       4.408   1.520  21.020  0.00  0.00    +0.000 C 
BRANCH  21  22
ATOM     22  O   UNL     1       5.661   1.314  21.595  0.00  0.00    +0.000 OA
ATOM     23  H   UNL     1       5.760   1.902  22.367  0.00  0.00    +0.000 HD
ENDBRANCH  21  22
ENDBRANCH  20  21
ENDBRANCH  17  20
TORSDOF 3
ENDMDL
MODEL 5
REMARK VINA RESULT:      -6.7      3.254      4.711
REMARK  Name = 
REMARK  3 active torsions:
REMARK  status: ('A' for Active; 'I' for Inactive)
REMARK    1  A    between atoms: C_17  and  C_18
REMARK    2  A    between atoms: C_18  and  C_19
REMARK    3  A    between atoms: C_19  and  O_20
REMARK                            x       y       z     vdW  Elec       q    Type
REMARK                         _______ _______ _______ _____ _____    ______ ____
ROOT
ATOM      1  O   UNL     1       4.498   7.500  15.080  0.00  0.00    +0.000 OA
ATOM      2  C   UNL     1       4.981   6.649  15.832  0.00  0.00    +0.000 C 
ATOM      3  C   UNL     1       4.283   6.333  17.102  0.00  0.00    +0.000 A 
ATOM      4  N   UNL     1       3.515   7.290  17.767  0.00  0.00    +0.000 N 
ATOM      5  C   UNL     1       2.901   6.781  18.893  0.00  0.00    +0.000 A 
ATOM      6  C   UNL     1       2.061   7.357  19.861  0.00  0.00    +0.000 A 
ATOM      7  C   UNL     1       1.535   6.518  20.858  0.00  0.00    +0.000 A 
ATOM      8  C   UNL     1       1.832   5.160  20.895  0.00  0.00    +0.000 A 
ATOM      9  C   UNL     1       2.707   4.619  19.956  0.00  0.00    +0.000 A 
ATOM     10  C   UNL     1       3.257   5.443  18.947  0.00  0.00    +0.000 A 
ATOM     11  C   UNL     1       4.192   5.182  17.898  0.00  0.00    +0.000 A 
ATOM     12  C   UNL     1       4.786   3.814  17.798  0.00  0.00    +0.000 C 
ATOM     13  N   UNL     1       5.911   3.693  16.917  0.00  0.00    +0.000 NA
ATOM     14  C   UNL     1       7.116   4.426  17.313  0.00  0.00    +0.000 C 
ATOM     15  C   UNL     1       7.162   5.892  16.812  0.00  0.00    +0.000 C 
ATOM     16  C   UNL     1       6.378   6.042  15.459  0.00  0.00    +0.000 C 
ATOM     17  C   UNL     1       6.456   4.630  14.763  0.00  0.00    +0.000 C 
ATOM     18  C   UNL     1       5.523   3.709  15.505  0.00  0.00    +0.000 C 
ATOM     19  H   UNL     1       3.409   8.245  17.445  0.00  0.00    +0.000 HD
ENDROOT
BRANCH  17  20
ATOM     20  C   UNL     1       6.970   4.050  13.411  0.00  0.00    +0.000 C 
BRANCH  20  21
ATOM     21  C   UNL     1       6.014   3.406  12.408  0.00  0.00    +0.000 C 
BRANCH  21  22
ATOM     22  O   UNL     1       6.547   2.217  11.911  0.00  0.00    +0.000 OA
ATOM     23  H   UNL     1       5.855   1.736  11.421  0.00  0.00    +0.000 HD
ENDBRANCH  21  22
ENDBRANCH  20  21
ENDBRANCH  17  20
TORSDOF 3
ENDMDL
MODEL 6
REMARK VINA RESULT:      -6.5      2.924      4.075
REMARK  Name = 
REMARK  3 active torsions:
REMARK  status: ('A' for Active; 'I' for Inactive)
REMARK    1  A    between atoms: C_17  and  C_18
REMARK    2  A    between atoms: C_18  and  C_19
REMARK    3  A    between atoms: C_19  and  O_20
REMARK                            x       y       z     vdW  Elec       q    Type
REMARK                         _______ _______ _______ _____ _____    ______ ____
ROOT
ATOM      1  O   UNL     1       4.492   7.565  15.254  0.00  0.00    +0.000 OA
ATOM      2  C   UNL     1       5.014   6.724  15.991  0.00  0.00    +0.000 C 
ATOM      3  C   UNL     1       4.314   6.327  17.237  0.00  0.00    +0.000 A 
ATOM      4  N   UNL     1       3.474   7.214  17.913  0.00  0.00    +0.000 N 
ATOM      5  C   UNL     1       2.873   6.634  19.011  0.00  0.00    +0.000 A 
ATOM      6  C   UNL     1       1.979   7.126  19.977  0.00  0.00    +0.000 A 
ATOM      7  C   UNL     1       1.489   6.226  20.939  0.00  0.00    +0.000 A 
ATOM      8  C   UNL     1       1.871   4.890  20.943  0.00  0.00    +0.000 A 
ATOM      9  C   UNL     1       2.797   4.432  20.007  0.00  0.00    +0.000 A 
ATOM     10  C   UNL     1       3.311   5.320  19.034  0.00  0.00    +0.000 A 
ATOM     11  C   UNL     1       4.281   5.150  17.997  0.00  0.00    +0.000 A 
ATOM     12  C   UNL     1       4.963   3.825  17.870  0.00  0.00    +0.000 C 
ATOM     13  N   UNL     1       6.109   3.802  17.010  0.00  0.00    +0.000 NA
ATOM     14  C   UNL     1       7.258   4.597  17.452  0.00  0.00    +0.000 C 
ATOM     15  C   UNL     1       7.220   6.078  16.994  0.00  0.00    +0.000 C 
ATOM     16  C   UNL     1       6.454   6.218  15.630  0.00  0.00    +0.000 C 
ATOM     17  C   UNL     1       6.635   4.835  14.895  0.00  0.00    +0.000 C 
ATOM     18  C   UNL     1       5.748   3.836  15.592  0.00  0.00    +0.000 C 
ATOM     19  H   UNL     1       3.314   8.170  17.616  0.00  0.00    +0.000 HD
ENDROOT
BRANCH  17  20
ATOM     20  C   UNL     1       7.210   4.330  13.539  0.00  0.00    +0.000 C 
BRANCH  20  21
ATOM     21  C   UNL     1       7.938   5.275  12.582  0.00  0.00    +0.000 C 
BRANCH  21  22
ATOM     22  O   UNL     1       8.934   5.983  13.253  0.00  0.00    +0.000 OA
ATOM     23  H   UNL     1       9.390   6.570  12.622  0.00  0.00    +0.000 HD
ENDBRANCH  21  22
ENDBRANCH  20  21
ENDBRANCH  17  20
TORSDOF 3
ENDMDL
MODEL 7
REMARK VINA RESULT:      -6.5      2.771      6.100
REMARK  Name = 
REMARK  3 active torsions:
REMARK  status: ('A' for Active; 'I' for Inactive)
REMARK    1  A    between atoms: C_17  and  C_18
REMARK    2  A    between atoms: C_18  and  C_19
REMARK    3  A    between atoms: C_19  and  O_20
REMARK                            x       y       z     vdW  Elec       q    Type
REMARK                         _______ _______ _______ _____ _____    ______ ____
ROOT
ATOM      1  O   UNL     1       5.128   5.027  20.082  0.00  0.00    +0.000 OA
ATOM      2  C   UNL     1       4.299   4.891  19.178  0.00  0.00    +0.000 C 
ATOM      3  C   UNL     1       4.777   4.750  17.781  0.00  0.00    +0.000 A 
ATOM      4  N   UNL     1       5.970   5.339  17.357  0.00  0.00    +0.000 N 
ATOM      5  C   UNL     1       6.266   5.039  16.043  0.00  0.00    +0.000 A 
ATOM      6  C   UNL     1       7.329   5.404  15.200  0.00  0.00    +0.000 A 
ATOM      7  C   UNL     1       7.367   4.847  13.911  0.00  0.00    +0.000 A 
ATOM      8  C   UNL     1       6.389   3.962  13.474  0.00  0.00    +0.000 A 
ATOM      9  C   UNL     1       5.316   3.651  14.306  0.00  0.00    +0.000 A 
ATOM     10  C   UNL     1       5.250   4.205  15.606  0.00  0.00    +0.000 A 
ATOM     11  C   UNL     1       4.272   4.103  16.645  0.00  0.00    +0.000 A 
ATOM     12  C   UNL     1       3.031   3.312  16.378  0.00  0.00    +0.000 C 
ATOM     13  N   UNL     1       1.978   3.478  17.336  0.00  0.00    +0.000 NA
ATOM     14  C   UNL     1       1.377   4.812  17.404  0.00  0.00    +0.000 C 
ATOM     15  C   UNL     1       2.104   5.789  18.363  0.00  0.00    +0.000 C 
ATOM     16  C   UNL     1       2.779   5.006  19.546  0.00  0.00    +0.000 C 
ATOM     17  C   UNL     1       1.920   3.698  19.738  0.00  0.00    +0.000 C 
ATOM     18  C   UNL     1       2.246   2.774  18.592  0.00  0.00    +0.000 C 
ATOM     19  H   UNL     1       6.558   5.906  17.956  0.00  0.00    +0.000 HD
ENDROOT
BRANCH  17  20
ATOM     20  C   UNL     1       1.112   3.021  20.884  0.00  0.00    +0.000 C 
BRANCH  20  21
ATOM     21  C   UNL     1       1.795   2.554  22.170  0.00  0.00    +0.000 C 
BRANCH  21  22
ATOM     22  O   UNL     1       3.129   2.230  21.929  0.00  0.00    +0.000 OA
ATOM     23  H   UNL     1       3.674   3.033  22.018  0.00  0.00    +0.000 HD
ENDBRANCH  21  22
ENDBRANCH  20  21
ENDBRANCH  17  20
TORSDOF 3
ENDMDL
MODEL 8
REMARK VINA RESULT:      -6.4      3.823      6.035
REMARK  Name = 
REMARK  3 active torsions:
REMARK  status: ('A' for Active; 'I' for Inactive)
REMARK    1  A    between atoms: C_17  and  C_18
REMARK    2  A    between atoms: C_18  and  C_19
REMARK    3  A    between atoms: C_19  and  O_20
REMARK                            x       y       z     vdW  Elec       q    Type
REMARK                         _______ _______ _______ _____ _____    ______ ____
ROOT
ATOM      1  O   UNL     1       2.507   4.125  21.931  0.00  0.00    +0.000 OA
ATOM      2  C   UNL     1       2.409   4.187  20.702  0.00  0.00    +0.000 C 
ATOM      3  C   UNL     1       2.242   5.514  20.061  0.00  0.00    +0.000 A 
ATOM      4  N   UNL     1       1.608   6.567  20.723  0.00  0.00    +0.000 N 
ATOM      5  C   UNL     1       1.609   7.730  19.981  0.00  0.00    +0.000 A 
ATOM      6  C   UNL     1       1.092   9.014  20.224  0.00  0.00    +0.000 A 
ATOM      7  C   UNL     1       1.341  10.015  19.270  0.00  0.00    +0.000 A 
ATOM      8  C   UNL     1       2.075   9.754  18.119  0.00  0.00    +0.000 A 
ATOM      9  C   UNL     1       2.537   8.462  17.872  0.00  0.00    +0.000 A 
ATOM     10  C   UNL     1       2.291   7.435  18.813  0.00  0.00    +0.000 A 
ATOM     11  C   UNL     1       2.599   6.038  18.811  0.00  0.00    +0.000 A 
ATOM     12  C   UNL     1       3.272   5.460  17.608  0.00  0.00    +0.000 C 
ATOM     13  N   UNL     1       3.299   4.028  17.546  0.00  0.00    +0.000 NA
ATOM     14  C   UNL     1       1.998   3.368  17.408  0.00  0.00    +0.000 C 
ATOM     15  C   UNL     1       1.287   3.076  18.754  0.00  0.00    +0.000 C 
ATOM     16  C   UNL     1       2.338   2.842  19.899  0.00  0.00    +0.000 C 
ATOM     17  C   UNL     1       3.630   2.289  19.185  0.00  0.00    +0.000 C 
ATOM     18  C   UNL     1       4.277   3.444  18.466  0.00  0.00    +0.000 C 
ATOM     19  H   UNL     1       1.208   6.485  21.651  0.00  0.00    +0.000 HD
ENDROOT
BRANCH  17  20
ATOM     20  C   UNL     1       4.527   1.018  19.272  0.00  0.00    +0.000 C 
BRANCH  20  21
ATOM     21  C   UNL     1       5.253   0.646  20.565  0.00  0.00    +0.000 C 
BRANCH  21  22
ATOM     22  O   UNL     1       5.274   1.725  21.447  0.00  0.00    +0.000 OA
ATOM     23  H   UNL     1       4.995   1.422  22.331  0.00  0.00    +0.000 HD
ENDBRANCH  21  22
ENDBRANCH  20  21
ENDBRANCH  17  20
TORSDOF 3
ENDMDL
MODEL 9
REMARK VINA RESULT:      -6.2      6.651      7.826
REMARK  Name = 
REMARK  3 active torsions:
REMARK  status: ('A' for Active; 'I' for Inactive)
REMARK    1  A    between atoms: C_17  and  C_18
REMARK    2  A    between atoms: C_18  and  C_19
REMARK    3  A    between atoms: C_19  and  O_20
REMARK                            x       y       z     vdW  Elec       q    Type
REMARK                         _______ _______ _______ _____ _____    ______ ____
ROOT
ATOM      1  O   UNL     1      -0.666   8.342  21.764  0.00  0.00    +0.000 OA
ATOM      2  C   UNL     1       0.014   9.059  21.024  0.00  0.00    +0.000 C 
ATOM      3  C   UNL     1       1.081   8.438  20.203  0.00  0.00    +0.000 A 
ATOM      4  N   UNL     1       1.748   7.287  20.629  0.00  0.00    +0.000 N 
ATOM      5  C   UNL     1       2.660   6.834  19.697  0.00  0.00    +0.000 A 
ATOM      6  C   UNL     1       3.549   5.746  19.687  0.00  0.00    +0.000 A 
ATOM      7  C   UNL     1       4.298   5.519  18.520  0.00  0.00    +0.000 A 
ATOM      8  C   UNL     1       4.170   6.340  17.405  0.00  0.00    +0.000 A 
ATOM      9  C   UNL     1       3.320   7.443  17.453  0.00  0.00    +0.000 A 
ATOM     10  C   UNL     1       2.562   7.698  18.619  0.00  0.00    +0.000 A 
ATOM     11  C   UNL     1       1.659   8.751  18.965  0.00  0.00    +0.000 A 
ATOM     12  C   UNL     1       1.447   9.858  17.983  0.00  0.00    +0.000 C 
ATOM     13  N   UNL     1       0.762  11.011  18.492  0.00  0.00    +0.000 NA
ATOM     14  C   UNL     1       1.468  11.769  19.528  0.00  0.00    +0.000 C 
ATOM     15  C   UNL     1       1.219  11.258  20.971  0.00  0.00    +0.000 C 
ATOM     16  C   UNL     1      -0.207  10.610  21.092  0.00  0.00    +0.000 C 
ATOM     17  C   UNL     1      -1.094  11.323  20.000  0.00  0.00    +0.000 C 
ATOM     18  C   UNL     1      -0.674  10.783  18.658  0.00  0.00    +0.000 C 
ATOM     19  H   UNL     1       1.568   6.830  21.515  0.00  0.00    +0.000 HD
ENDROOT
BRANCH  17  20
ATOM     20  C   UNL     1      -2.412  12.151  19.963  0.00  0.00    +0.000 C 
BRANCH  20  21
ATOM     21  C   UNL     1      -3.476  11.904  18.892  0.00  0.00    +0.000 C 
BRANCH  21  22
ATOM     22  O   UNL     1      -4.540  12.792  19.041  0.00  0.00    +0.000 OA
ATOM     23  H   UNL     1      -4.904  13.005  18.162  0.00  0.00    +0.000 HD
ENDBRANCH  21  22
ENDBRANCH  20  21
ENDBRANCH  17  20
TORSDOF 3
ENDMDL
