MODEL 1
REMARK VINA RESULT:      -6.6      0.000      0.000
REMARK  Name = 
REMARK  11 active torsions:
REMARK  status: ('A' for Active; 'I' for Inactive)
REMARK    1  A    between atoms: C_1  and  C_2
REMARK    2  A    between atoms: C_2  and  C_3
REMARK    3  A    between atoms: C_3  and  C_4
REMARK    4  A    between atoms: C_4  and  C_5
REMARK    5  A    between atoms: C_4  and  N_6
REMARK    6  A    between atoms: N_6  and  C_7
REMARK    7  A    between atoms: N_6  and  S_16
REMARK    8  A    between atoms: C_13  and  C_14
REMARK    9  A    between atoms: C_14  and  O_15
REMARK   10  A    between atoms: S_16  and  C_19
REMARK   11  A    between atoms: C_22  and  C_23
REMARK                            x       y       z     vdW  Elec       q    Type
REMARK                         _______ _______ _______ _____ _____    ______ ____
ROOT
ATOM      1  N   UNL     1       5.842   5.258  17.073  0.00  0.00    +0.000 N 
ENDROOT
BRANCH   1   2
ATOM      2  C   UNL     1       4.437   5.306  17.466  0.00  0.00    +0.000 A 
ATOM      3  C   UNL     1       3.857   6.587  17.469  0.00  0.00    +0.000 A 
ATOM      4  C   UNL     1       2.538   6.773  17.882  0.00  0.00    +0.000 A 
ATOM      5 CL   UNL     1       1.875   8.359  17.933  0.00  0.00    +0.000 Cl
ATOM      6  C   UNL     1       1.764   5.691  18.271  0.00  0.00    +0.000 A 
ATOM      7  C   UNL     1       2.331   4.418  18.289  0.00  0.00    +0.000 A 
ATOM      8  C   UNL     1       3.682   4.207  17.922  0.00  0.00    +0.000 A 
BRANCH   8   9
ATOM      9  C   UNL     1       4.217   2.812  18.120  0.00  0.00    +0.000 C 
BRANCH   9  10
ATOM     10  O   UNL     1       5.119   2.742  19.220  0.00  0.00    +0.000 OA
ATOM     11  H   UNL     1       5.225   1.813  19.480  0.00  0.00    +0.000 HD
ENDBRANCH   9  10
ENDBRANCH   8   9
ENDBRANCH   1   2
BRANCH   1  12
ATOM     12  S   UNL     1       6.898   5.386  18.455  0.00  0.00    +0.000 S 
ATOM     13  O   UNL     1       6.108   5.494  19.666  0.00  0.00    +0.000 OA
ATOM     14  O   UNL     1       7.917   4.365  18.319  0.00  0.00    +0.000 OA
BRANCH  12  15
ATOM     15  C   UNL     1       7.688   6.976  18.265  0.00  0.00    +0.000 A 
ATOM     16  C   UNL     1       8.595   7.404  19.238  0.00  0.00    +0.000 A 
ATOM     17  C   UNL     1       9.049   8.725  19.216  0.00  0.00    +0.000 A 
ATOM     18  C   UNL     1       8.601   9.620  18.229  0.00  0.00    +0.000 A 
ATOM     19  C   UNL     1       7.763   9.145  17.206  0.00  0.00    +0.000 A 
ATOM     20  C   UNL     1       7.323   7.818  17.209  0.00  0.00    +0.000 A 
BRANCH  18  21
ATOM     21  C   UNL     1       8.955  11.089  18.290  0.00  0.00    +0.000 C 
ATOM     22  F   UNL     1       8.959  11.598  19.553  0.00  0.00    +0.000 F 
ATOM     23  F   UNL     1      10.182  11.360  17.769  0.00  0.00    +0.000 F 
ATOM     24  F   UNL     1       8.072  11.854  17.587  0.00  0.00    +0.000 F 
ENDBRANCH  18  21
ENDBRANCH  12  15
ENDBRANCH   1  12
BRANCH   1  25
ATOM     25  C   UNL     1       6.254   4.332  15.926  0.00  0.00    +0.000 C 
ATOM     26  C   UNL     1       7.558   4.806  15.279  0.00  0.00    +0.000 C 
BRANCH  25  27
ATOM     27  C   UNL     1       5.156   4.245  14.830  0.00  0.00    +0.000 C 
BRANCH  27  29
ATOM     28  C   UNL     1       5.052   3.313  12.472  0.00  0.00    +0.000 C 
ATOM     29  C   UNL     1       5.702   4.337  13.396  0.00  0.00    +0.000 C 
ENDBRANCH  27  29
ENDBRANCH  25  27
ENDBRANCH   1  25
TORSDOF 9
ENDMDL
MODEL 2
REMARK VINA RESULT:      -6.6      4.455      6.549
REMARK  Name = 
REMARK  11 active torsions:
REMARK  status: ('A' for Active; 'I' for Inactive)
REMARK    1  A    between atoms: C_1  and  C_2
REMARK    2  A    between atoms: C_2  and  C_3
REMARK    3  A    between atoms: C_3  and  C_4
REMARK    4  A    between atoms: C_4  and  C_5
REMARK    5  A    between atoms: C_4  and  N_6
REMARK    6  A    between atoms: N_6  and  C_7
REMARK    7  A    between atoms: N_6  and  S_16
REMARK    8  A    between atoms: C_13  and  C_14
REMARK    9  A    between atoms: C_14  and  O_15
REMARK   10  A    between atoms: S_16  and  C_19
REMARK   11  A    between atoms: C_22  and  C_23
REMARK                            x       y       z     vdW  Elec       q    Type
REMARK                         _______ _______ _______ _____ _____    ______ ____
ROOT
ATOM      1  N   UNL     1       3.916   4.966  18.520  0.00  0.00    +0.000 N 
ENDROOT
BRANCH   1   2
ATOM      2  C   UNL     1       5.137   4.868  17.727  0.00  0.00    +0.000 A 
ATOM      3  C   UNL     1       4.964   4.398  16.413  0.00  0.00    +0.000 A 
ATOM      4  C   UNL     1       6.061   4.204  15.574  0.00  0.00    +0.000 A 
ATOM      5 CL   UNL     1       5.824   3.571  13.992  0.00  0.00    +0.000 Cl
ATOM      6  C   UNL     1       7.342   4.499  16.011  0.00  0.00    +0.000 A 
ATOM      7  C   UNL     1       7.530   4.950  17.317  0.00  0.00    +0.000 A 
ATOM      8  C   UNL     1       6.440   5.109  18.207  0.00  0.00    +0.000 A 
BRANCH   8   9
ATOM      9  C   UNL     1       6.787   5.464  19.630  0.00  0.00    +0.000 C 
BRANCH   9  10
ATOM     10  O   UNL     1       8.193   5.441  19.853  0.00  0.00    +0.000 OA
ATOM     11  H   UNL     1       8.399   6.006  20.614  0.00  0.00    +0.000 HD
ENDBRANCH   9  10
ENDBRANCH   8   9
ENDBRANCH   1   2
BRANCH   1  12
ATOM     12  S   UNL     1       2.791   6.102  17.825  0.00  0.00    +0.000 S 
ATOM     13  O   UNL     1       3.500   7.032  16.967  0.00  0.00    +0.000 OA
ATOM     14  O   UNL     1       1.660   5.345  17.328  0.00  0.00    +0.000 OA
BRANCH  12  15
ATOM     15  C   UNL     1       2.229   7.077  19.212  0.00  0.00    +0.000 A 
ATOM     16  C   UNL     1       1.942   6.436  20.420  0.00  0.00    +0.000 A 
ATOM     17  C   UNL     1       1.299   7.148  21.436  0.00  0.00    +0.000 A 
ATOM     18  C   UNL     1       0.942   8.494  21.251  0.00  0.00    +0.000 A 
ATOM     19  C   UNL     1       1.324   9.147  20.066  0.00  0.00    +0.000 A 
ATOM     20  C   UNL     1       1.988   8.446  19.054  0.00  0.00    +0.000 A 
BRANCH  18  21
ATOM     21  C   UNL     1       0.104   9.227  22.275  0.00  0.00    +0.000 C 
ATOM     22  F   UNL     1       0.755   9.462  23.447  0.00  0.00    +0.000 F 
ATOM     23  F   UNL     1      -0.332  10.438  21.835  0.00  0.00    +0.000 F 
ATOM     24  F   UNL     1      -1.016   8.526  22.611  0.00  0.00    +0.000 F 
ENDBRANCH  18  21
ENDBRANCH  12  15
ENDBRANCH   1  12
BRANCH   1  25
ATOM     25  C   UNL     1       3.360   3.698  19.174  0.00  0.00    +0.000 C 
ATOM     26  C   UNL     1       4.482   2.862  19.794  0.00  0.00    +0.000 C 
BRANCH  25  27
ATOM     27  C   UNL     1       2.584   2.817  18.157  0.00  0.00    +0.000 C 
BRANCH  27  29
ATOM     28  C   UNL     1       0.802   3.037  19.949  0.00  0.00    +0.000 C 
ATOM     29  C   UNL     1       1.231   2.308  18.681  0.00  0.00    +0.000 C 
ENDBRANCH  27  29
ENDBRANCH  25  27
ENDBRANCH   1  25
TORSDOF 9
ENDMDL
MODEL 3
REMARK VINA RESULT:      -6.4      1.663      2.413
REMARK  Name = 
REMARK  11 active torsions:
REMARK  status: ('A' for Active; 'I' for Inactive)
REMARK    1  A    between atoms: C_1  and  C_2
REMARK    2  A    between atoms: C_2  and  C_3
REMARK    3  A    between atoms: C_3  and  C_4
REMARK    4  A    between atoms: C_4  and  C_5
REMARK    5  A    between atoms: C_4  and  N_6
REMARK    6  A    between atoms: N_6  and  C_7
REMARK    7  A    between atoms: N_6  and  S_16
REMARK    8  A    between atoms: C_13  and  C_14
REMARK    9  A    between atoms: C_14  and  O_15
REMARK   10  A    between atoms: S_16  and  C_19
REMARK   11  A    between atoms: C_22  and  C_23
REMARK                            x       y       z     vdW  Elec       q    Type
REMARK                         _______ _______ _______ _____ _____    ______ ____
ROOT
ATOM      1  N   UNL     1       5.931   4.898  16.763  0.00  0.00    +0.000 N 
ENDROOT
BRANCH   1   2
ATOM      2  C   UNL     1       4.587   4.719  17.302  0.00  0.00    +0.000 A 
ATOM      3  C   UNL     1       4.236   3.392  17.611  0.00  0.00    +0.000 A 
ATOM      4  C   UNL     1       2.959   3.081  18.077  0.00  0.00    +0.000 A 
ATOM      5 CL   UNL     1       2.540   1.442  18.389  0.00  0.00    +0.000 Cl
ATOM      6  C   UNL     1       2.020   4.080  18.273  0.00  0.00    +0.000 A 
ATOM      7  C   UNL     1       2.348   5.398  17.955  0.00  0.00    +0.000 A 
ATOM      8  C   UNL     1       3.620   5.735  17.434  0.00  0.00    +0.000 A 
BRANCH   8   9
ATOM      9  C   UNL     1       3.804   7.166  16.997  0.00  0.00    +0.000 C 
BRANCH   9  10
ATOM     10  O   UNL     1       3.187   8.078  17.899  0.00  0.00    +0.000 OA
ATOM     11  H   UNL     1       2.904   8.864  17.407  0.00  0.00    +0.000 HD
ENDBRANCH   9  10
ENDBRANCH   8   9
ENDBRANCH   1   2
BRANCH   1  12
ATOM     12  S   UNL     1       7.129   4.935  18.029  0.00  0.00    +0.000 S 
ATOM     13  O   UNL     1       6.527   4.533  19.285  0.00  0.00    +0.000 OA
ATOM     14  O   UNL     1       8.314   4.270  17.525  0.00  0.00    +0.000 OA
BRANCH  12  15
ATOM     15  C   UNL     1       7.516   6.667  18.225  0.00  0.00    +0.000 A 
ATOM     16  C   UNL     1       6.991   7.588  17.315  0.00  0.00    +0.000 A 
ATOM     17  C   UNL     1       7.458   8.904  17.326  0.00  0.00    +0.000 A 
ATOM     18  C   UNL     1       8.446   9.305  18.241  0.00  0.00    +0.000 A 
ATOM     19  C   UNL     1       8.892   8.390  19.210  0.00  0.00    +0.000 A 
ATOM     20  C   UNL     1       8.412   7.077  19.218  0.00  0.00    +0.000 A 
BRANCH  18  21
ATOM     21  C   UNL     1       9.076  10.677  18.157  0.00  0.00    +0.000 C 
ATOM     22  F   UNL     1       9.310  11.246  19.372  0.00  0.00    +0.000 F 
ATOM     23  F   UNL     1      10.270  10.674  17.505  0.00  0.00    +0.000 F 
ATOM     24  F   UNL     1       8.284  11.560  17.485  0.00  0.00    +0.000 F 
ENDBRANCH  18  21
ENDBRANCH  12  15
ENDBRANCH   1  12
BRANCH   1  25
ATOM     25  C   UNL     1       6.291   4.216  15.440  0.00  0.00    +0.000 C 
ATOM     26  C   UNL     1       7.450   4.936  14.748  0.00  0.00    +0.000 C 
BRANCH  25  27
ATOM     27  C   UNL     1       5.081   4.167  14.467  0.00  0.00    +0.000 C 
BRANCH  27  29
ATOM     28  C   UNL     1       4.884   2.997  12.224  0.00  0.00    +0.000 C 
ATOM     29  C   UNL     1       5.479   4.179  12.982  0.00  0.00    +0.000 C 
ENDBRANCH  27  29
ENDBRANCH  25  27
ENDBRANCH   1  25
TORSDOF 9
ENDMDL
MODEL 4
REMARK VINA RESULT:      -6.4      6.529      8.927
REMARK  Name = 
REMARK  11 active torsions:
REMARK  status: ('A' for Active; 'I' for Inactive)
REMARK    1  A    between atoms: C_1  and  C_2
REMARK    2  A    between atoms: C_2  and  C_3
REMARK    3  A    between atoms: C_3  and  C_4
REMARK    4  A    between atoms: C_4  and  C_5
REMARK    5  A    between atoms: C_4  and  N_6
REMARK    6  A    between atoms: N_6  and  C_7
REMARK    7  A    between atoms: N_6  and  S_16
REMARK    8  A    between atoms: C_13  and  C_14
REMARK    9  A    between atoms: C_14  and  O_15
REMARK   10  A    between atoms: S_16  and  C_19
REMARK   11  A    between atoms: C_22  and  C_23
REMARK                            x       y       z     vdW  Elec       q    Type
REMARK                         _______ _______ _______ _____ _____    ______ ____
ROOT
ATOM      1  N   UNL     1       0.024  10.856  19.850  0.00  0.00    +0.000 N 
ENDROOT
BRANCH   1   2
ATOM      2  C   UNL     1       0.445  12.148  20.381  0.00  0.00    +0.000 A 
ATOM      3  C   UNL     1       1.532  12.744  19.719  0.00  0.00    +0.000 A 
ATOM      4  C   UNL     1       2.067  13.951  20.167  0.00  0.00    +0.000 A 
ATOM      5 CL   UNL     1       3.436  14.627  19.374  0.00  0.00    +0.000 Cl
ATOM      6  C   UNL     1       1.516  14.602  21.260  0.00  0.00    +0.000 A 
ATOM      7  C   UNL     1       0.448  14.013  21.937  0.00  0.00    +0.000 A 
ATOM      8  C   UNL     1      -0.083  12.765  21.533  0.00  0.00    +0.000 A 
BRANCH   8   9
ATOM      9  C   UNL     1      -1.138  12.168  22.428  0.00  0.00    +0.000 C 
BRANCH   9  10
ATOM     10  O   UNL     1      -0.590  11.205  23.323  0.00  0.00    +0.000 OA
ATOM     11  H   UNL     1       0.250  11.543  23.672  0.00  0.00    +0.000 HD
ENDBRANCH   9  10
ENDBRANCH   8   9
ENDBRANCH   1   2
BRANCH   1  12
ATOM     12  S   UNL     1       0.595   9.539  20.840  0.00  0.00    +0.000 S 
ATOM     13  O   UNL     1       1.592  10.025  21.774  0.00  0.00    +0.000 OA
ATOM     14  O   UNL     1      -0.567   8.808  21.304  0.00  0.00    +0.000 OA
BRANCH  12  15
ATOM     15  C   UNL     1       1.487   8.486  19.707  0.00  0.00    +0.000 A 
ATOM     16  C   UNL     1       1.920   7.231  20.143  0.00  0.00    +0.000 A 
ATOM     17  C   UNL     1       2.800   6.495  19.346  0.00  0.00    +0.000 A 
ATOM     18  C   UNL     1       3.249   7.005  18.117  0.00  0.00    +0.000 A 
ATOM     19  C   UNL     1       2.729   8.225  17.652  0.00  0.00    +0.000 A 
ATOM     20  C   UNL     1       1.830   8.957  18.435  0.00  0.00    +0.000 A 
BRANCH  18  21
ATOM     21  C   UNL     1       4.324   6.296  17.324  0.00  0.00    +0.000 C 
ATOM     22  F   UNL     1       3.983   5.031  16.952  0.00  0.00    +0.000 F 
ATOM     23  F   UNL     1       4.656   6.950  16.178  0.00  0.00    +0.000 F 
ATOM     24  F   UNL     1       5.481   6.172  18.033  0.00  0.00    +0.000 F 
ENDBRANCH  18  21
ENDBRANCH  12  15
ENDBRANCH   1  12
BRANCH   1  25
ATOM     25  C   UNL     1      -1.364  10.739  19.214  0.00  0.00    +0.000 C 
ATOM     26  C   UNL     1      -1.296   9.991  17.880  0.00  0.00    +0.000 C 
BRANCH  25  27
ATOM     27  C   UNL     1      -2.009  12.131  18.973  0.00  0.00    +0.000 C 
BRANCH  27  29
ATOM     28  C   UNL     1      -4.489  11.837  18.522  0.00  0.00    +0.000 C 
ATOM     29  C   UNL     1      -3.433  12.262  19.536  0.00  0.00    +0.000 C 
ENDBRANCH  27  29
ENDBRANCH  25  27
ENDBRANCH   1  25
TORSDOF 9
ENDMDL
MODEL 5
REMARK VINA RESULT:      -6.4      8.516     10.397
REMARK  Name = 
REMARK  11 active torsions:
REMARK  status: ('A' for Active; 'I' for Inactive)
REMARK    1  A    between atoms: C_1  and  C_2
REMARK    2  A    between atoms: C_2  and  C_3
REMARK    3  A    between atoms: C_3  and  C_4
REMARK    4  A    between atoms: C_4  and  C_5
REMARK    5  A    between atoms: C_4  and  N_6
REMARK    6  A    between atoms: N_6  and  C_7
REMARK    7  A    between atoms: N_6  and  S_16
REMARK    8  A    between atoms: C_13  and  C_14
REMARK    9  A    between atoms: C_14  and  O_15
REMARK   10  A    between atoms: S_16  and  C_19
REMARK   11  A    between atoms: C_22  and  C_23
REMARK                            x       y       z     vdW  Elec       q    Type
REMARK                         _______ _______ _______ _____ _____    ______ ____
ROOT
ATOM      1  N   UNL     1      -0.419  11.453  20.205  0.00  0.00    +0.000 N 
ENDROOT
BRANCH   1   2
ATOM      2  C   UNL     1       0.351  10.218  20.301  0.00  0.00    +0.000 A 
ATOM      3  C   UNL     1       1.082   9.875  19.150  0.00  0.00    +0.000 A 
ATOM      4  C   UNL     1       1.811   8.688  19.094  0.00  0.00    +0.000 A 
ATOM      5 CL   UNL     1       2.646   8.265  17.651  0.00  0.00    +0.000 Cl
ATOM      6  C   UNL     1       1.852   7.836  20.186  0.00  0.00    +0.000 A 
ATOM      7  C   UNL     1       1.119   8.155  21.328  0.00  0.00    +0.000 A 
ATOM      8  C   UNL     1       0.331   9.329  21.394  0.00  0.00    +0.000 A 
BRANCH   8   9
ATOM      9  C   UNL     1      -0.526   9.489  22.624  0.00  0.00    +0.000 C 
BRANCH   9  10
ATOM     10  O   UNL     1       0.256   9.769  23.780  0.00  0.00    +0.000 OA
ATOM     11  H   UNL     1      -0.056  10.599  24.176  0.00  0.00    +0.000 HD
ENDBRANCH   9  10
ENDBRANCH   8   9
ENDBRANCH   1   2
BRANCH   1  12
ATOM     12  S   UNL     1       0.554  12.847  20.595  0.00  0.00    +0.000 S 
ATOM     13  O   UNL     1       1.803  12.419  21.194  0.00  0.00    +0.000 OA
ATOM     14  O   UNL     1       0.544  13.720  19.439  0.00  0.00    +0.000 OA
BRANCH  12  15
ATOM     15  C   UNL     1      -0.342  13.663  21.905  0.00  0.00    +0.000 A 
ATOM     16  C   UNL     1      -0.036  14.992  22.213  0.00  0.00    +0.000 A 
ATOM     17  C   UNL     1      -0.570  15.567  23.368  0.00  0.00    +0.000 A 
ATOM     18  C   UNL     1      -1.406  14.823  24.218  0.00  0.00    +0.000 A 
ATOM     19  C   UNL     1      -1.777  13.521  23.842  0.00  0.00    +0.000 A 
ATOM     20  C   UNL     1      -1.264  12.946  22.675  0.00  0.00    +0.000 A 
BRANCH  18  21
ATOM     21  C   UNL     1      -1.857  15.378  25.550  0.00  0.00    +0.000 C 
ATOM     22  F   UNL     1      -2.849  14.653  26.136  0.00  0.00    +0.000 F 
ATOM     23  F   UNL     1      -0.850  15.448  26.463  0.00  0.00    +0.000 F 
ATOM     24  F   UNL     1      -2.345  16.645  25.434  0.00  0.00    +0.000 F 
ENDBRANCH  18  21
ENDBRANCH  12  15
ENDBRANCH   1  12
BRANCH   1  25
ATOM     25  C   UNL     1      -1.465  11.584  19.095  0.00  0.00    +0.000 C 
ATOM     26  C   UNL     1      -2.712  12.315  19.599  0.00  0.00    +0.000 C 
BRANCH  25  27
ATOM     27  C   UNL     1      -1.891  10.199  18.535  0.00  0.00    +0.000 C 
BRANCH  27  29
ATOM     28  C   UNL     1      -3.246   9.831  16.421  0.00  0.00    +0.000 C 
ATOM     29  C   UNL     1      -1.864  10.115  17.001  0.00  0.00    +0.000 C 
ENDBRANCH  27  29
ENDBRANCH  25  27
ENDBRANCH   1  25
TORSDOF 9
ENDMDL
MODEL 6
REMARK VINA RESULT:      -6.3      4.013      5.923
REMARK  Name = 
REMARK  11 active torsions:
REMARK  status: ('A' for Active; 'I' for Inactive)
REMARK    1  A    between atoms: C_1  and  C_2
REMARK    2  A    between atoms: C_2  and  C_3
REMARK    3  A    between atoms: C_3  and  C_4
REMARK    4  A    between atoms: C_4  and  C_5
REMARK    5  A    between atoms: C_4  and  N_6
REMARK    6  A    between atoms: N_6  and  C_7
REMARK    7  A    between atoms: N_6  and  S_16
REMARK    8  A    between atoms: C_13  and  C_14
REMARK    9  A    between atoms: C_14  and  O_15
REMARK   10  A    between atoms: S_16  and  C_19
REMARK   11  A    between atoms: C_22  and  C_23
REMARK                            x       y       z     vdW  Elec       q    Type
REMARK                         _______ _______ _______ _____ _____    ______ ____
ROOT
ATOM      1  N   UNL     1       4.125   5.854  18.647  0.00  0.00    +0.000 N 
ENDROOT
BRANCH   1   2
ATOM      2  C   UNL     1       3.012   5.141  19.265  0.00  0.00    +0.000 A 
ATOM      3  C   UNL     1       2.716   3.888  18.702  0.00  0.00    +0.000 A 
ATOM      4  C   UNL     1       1.638   3.134  19.165  0.00  0.00    +0.000 A 
ATOM      5 CL   UNL     1       1.262   1.631  18.417  0.00  0.00    +0.000 Cl
ATOM      6  C   UNL     1       0.855   3.595  20.211  0.00  0.00    +0.000 A 
ATOM      7  C   UNL     1       1.127   4.844  20.768  0.00  0.00    +0.000 A 
ATOM      8  C   UNL     1       2.184   5.652  20.285  0.00  0.00    +0.000 A 
BRANCH   8   9
ATOM      9  C   UNL     1       2.287   7.037  20.870  0.00  0.00    +0.000 C 
BRANCH   9  10
ATOM     10  O   UNL     1       1.005   7.626  21.064  0.00  0.00    +0.000 OA
ATOM     11  H   UNL     1       0.464   7.029  21.605  0.00  0.00    +0.000 HD
ENDBRANCH   9  10
ENDBRANCH   8   9
ENDBRANCH   1   2
BRANCH   1  12
ATOM     12  S   UNL     1       5.612   4.953  18.772  0.00  0.00    +0.000 S 
ATOM     13  O   UNL     1       6.699   5.847  19.119  0.00  0.00    +0.000 OA
ATOM     14  O   UNL     1       5.339   3.771  19.565  0.00  0.00    +0.000 OA
BRANCH  12  15
ATOM     15  C   UNL     1       5.953   4.424  17.102  0.00  0.00    +0.000 A 
ATOM     16  C   UNL     1       7.053   4.962  16.429  0.00  0.00    +0.000 A 
ATOM     17  C   UNL     1       7.202   4.725  15.060  0.00  0.00    +0.000 A 
ATOM     18  C   UNL     1       6.258   3.954  14.361  0.00  0.00    +0.000 A 
ATOM     19  C   UNL     1       5.212   3.343  15.073  0.00  0.00    +0.000 A 
ATOM     20  C   UNL     1       5.070   3.558  16.447  0.00  0.00    +0.000 A 
BRANCH  18  21
ATOM     21  C   UNL     1       6.318   3.826  12.855  0.00  0.00    +0.000 C 
ATOM     22  F   UNL     1       6.732   2.602  12.427  0.00  0.00    +0.000 F 
ATOM     23  F   UNL     1       5.116   4.048  12.256  0.00  0.00    +0.000 F 
ATOM     24  F   UNL     1       7.183   4.722  12.302  0.00  0.00    +0.000 F 
ENDBRANCH  18  21
ENDBRANCH  12  15
ENDBRANCH   1  12
BRANCH   1  25
ATOM     25  C   UNL     1       3.866   6.656  17.369  0.00  0.00    +0.000 C 
ATOM     26  C   UNL     1       4.937   7.731  17.168  0.00  0.00    +0.000 C 
BRANCH  25  27
ATOM     27  C   UNL     1       2.471   7.340  17.387  0.00  0.00    +0.000 C 
BRANCH  27  29
ATOM     28  C   UNL     1       1.104   9.406  17.938  0.00  0.00    +0.000 C 
ATOM     29  C   UNL     1       2.501   8.799  17.868  0.00  0.00    +0.000 C 
ENDBRANCH  27  29
ENDBRANCH  25  27
ENDBRANCH   1  25
TORSDOF 9
ENDMDL
MODEL 7
REMARK VINA RESULT:      -6.3      6.677      9.140
REMARK  Name = 
REMARK  11 active torsions:
REMARK  status: ('A' for Active; 'I' for Inactive)
REMARK    1  A    between atoms: C_1  and  C_2
REMARK    2  A    between atoms: C_2  and  C_3
REMARK    3  A    between atoms: C_3  and  C_4
REMARK    4  A    between atoms: C_4  and  C_5
REMARK    5  A    between atoms: C_4  and  N_6
REMARK    6  A    between atoms: N_6  and  C_7
REMARK    7  A    between atoms: N_6  and  S_16
REMARK    8  A    between atoms: C_13  and  C_14
REMARK    9  A    between atoms: C_14  and  O_15
REMARK   10  A    between atoms: S_16  and  C_19
REMARK   11  A    between atoms: C_22  and  C_23
REMARK                            x       y       z     vdW  Elec       q    Type
REMARK                         _______ _______ _______ _____ _____    ______ ____
ROOT
ATOM      1  N   UNL     1       0.165  10.549  19.998  0.00  0.00    +0.000 N 
ENDROOT
BRANCH   1   2
ATOM      2  C   UNL     1       0.495  11.881  20.493  0.00  0.00    +0.000 A 
ATOM      3  C   UNL     1       1.663  12.450  19.955  0.00  0.00    +0.000 A 
ATOM      4  C   UNL     1       2.118  13.694  20.391  0.00  0.00    +0.000 A 
ATOM      5 CL   UNL     1       3.582  14.338  19.760  0.00  0.00    +0.000 Cl
ATOM      6  C   UNL     1       1.408  14.408  21.345  0.00  0.00    +0.000 A 
ATOM      7  C   UNL     1       0.258  13.848  21.899  0.00  0.00    +0.000 A 
ATOM      8  C   UNL     1      -0.199  12.566  21.510  0.00  0.00    +0.000 A 
BRANCH   8   9
ATOM      9  C   UNL     1      -1.369  12.013  22.283  0.00  0.00    +0.000 C 
BRANCH   9  10
ATOM     10  O   UNL     1      -0.947  11.225  23.391  0.00  0.00    +0.000 OA
ATOM     11  H   UNL     1      -1.333  11.592  24.202  0.00  0.00    +0.000 HD
ENDBRANCH   9  10
ENDBRANCH   8   9
ENDBRANCH   1   2
BRANCH   1  12
ATOM     12  S   UNL     1       0.530   9.318  21.178  0.00  0.00    +0.000 S 
ATOM     13  O   UNL     1       1.411   9.861  22.194  0.00  0.00    +0.000 OA
ATOM     14  O   UNL     1      -0.718   8.679  21.539  0.00  0.00    +0.000 OA
BRANCH  12  15
ATOM     15  C   UNL     1       1.517   8.127  20.287  0.00  0.00    +0.000 A 
ATOM     16  C   UNL     1       2.034   8.473  19.035  0.00  0.00    +0.000 A 
ATOM     17  C   UNL     1       2.617   7.484  18.239  0.00  0.00    +0.000 A 
ATOM     18  C   UNL     1       2.686   6.154  18.685  0.00  0.00    +0.000 A 
ATOM     19  C   UNL     1       2.247   5.845  19.984  0.00  0.00    +0.000 A 
ATOM     20  C   UNL     1       1.683   6.834  20.795  0.00  0.00    +0.000 A 
BRANCH  18  21
ATOM     21  C   UNL     1       3.164   5.048  17.771  0.00  0.00    +0.000 C 
ATOM     22  F   UNL     1       2.154   4.363  17.169  0.00  0.00    +0.000 F 
ATOM     23  F   UNL     1       3.965   5.499  16.768  0.00  0.00    +0.000 F 
ATOM     24  F   UNL     1       3.895   4.113  18.441  0.00  0.00    +0.000 F 
ENDBRANCH  18  21
ENDBRANCH  12  15
ENDBRANCH   1  12
BRANCH   1  25
ATOM     25  C   UNL     1      -1.083  10.375  19.128  0.00  0.00    +0.000 C 
ATOM     26  C   UNL     1      -0.730   9.738  17.782  0.00  0.00    +0.000 C 
BRANCH  25  27
ATOM     27  C   UNL     1      -1.799  11.729  18.867  0.00  0.00    +0.000 C 
BRANCH  27  29
ATOM     28  C   UNL     1      -4.170  12.347  19.526  0.00  0.00    +0.000 C 
ATOM     29  C   UNL     1      -3.293  11.587  18.536  0.00  0.00    +0.000 C 
ENDBRANCH  27  29
ENDBRANCH  25  27
ENDBRANCH   1  25
TORSDOF 9
ENDMDL
MODEL 8
REMARK VINA RESULT:      -6.3      6.668      9.023
REMARK  Name = 
REMARK  11 active torsions:
REMARK  status: ('A' for Active; 'I' for Inactive)
REMARK    1  A    between atoms: C_1  and  C_2
REMARK    2  A    between atoms: C_2  and  C_3
REMARK    3  A    between atoms: C_3  and  C_4
REMARK    4  A    between atoms: C_4  and  C_5
REMARK    5  A    between atoms: C_4  and  N_6
REMARK    6  A    between atoms: N_6  and  C_7
REMARK    7  A    between atoms: N_6  and  S_16
REMARK    8  A    between atoms: C_13  and  C_14
REMARK    9  A    between atoms: C_14  and  O_15
REMARK   10  A    between atoms: S_16  and  C_19
REMARK   11  A    between atoms: C_22  and  C_23
REMARK                            x       y       z     vdW  Elec       q    Type
REMARK                         _______ _______ _______ _____ _____    ______ ____
ROOT
ATOM      1  N   UNL     1      -0.237  11.017  19.441  0.00  0.00    +0.000 N 
ENDROOT
BRANCH   1   2
ATOM      2  C   UNL     1       0.041  12.411  19.768  0.00  0.00    +0.000 A 
ATOM      3  C   UNL     1       0.987  13.045  18.942  0.00  0.00    +0.000 A 
ATOM      4  C   UNL     1       1.383  14.359  19.188  0.00  0.00    +0.000 A 
ATOM      5 CL   UNL     1       2.586  15.088  18.197  0.00  0.00    +0.000 Cl
ATOM      6  C   UNL     1       0.829  15.076  20.236  0.00  0.00    +0.000 A 
ATOM      7  C   UNL     1      -0.097  14.455  21.073  0.00  0.00    +0.000 A 
ATOM      8  C   UNL     1      -0.481  13.107  20.877  0.00  0.00    +0.000 A 
BRANCH   8   9
ATOM      9  C   UNL     1      -1.377  12.508  21.930  0.00  0.00    +0.000 C 
BRANCH   9  10
ATOM     10  O   UNL     1      -0.630  11.953  23.008  0.00  0.00    +0.000 OA
ATOM     11  H   UNL     1       0.249  11.702  22.683  0.00  0.00    +0.000 HD
ENDBRANCH   9  10
ENDBRANCH   8   9
ENDBRANCH   1   2
BRANCH   1  12
ATOM     12  S   UNL     1       0.483   9.931  20.600  0.00  0.00    +0.000 S 
ATOM     13  O   UNL     1       1.498  10.631  21.362  0.00  0.00    +0.000 OA
ATOM     14  O   UNL     1      -0.596   9.229  21.266  0.00  0.00    +0.000 OA
BRANCH  12  15
ATOM     15  C   UNL     1       1.373   8.746  19.605  0.00  0.00    +0.000 A 
ATOM     16  C   UNL     1       1.789   7.545  20.188  0.00  0.00    +0.000 A 
ATOM     17  C   UNL     1       2.668   6.714  19.490  0.00  0.00    +0.000 A 
ATOM     18  C   UNL     1       3.135   7.076  18.214  0.00  0.00    +0.000 A 
ATOM     19  C   UNL     1       2.632   8.239  17.607  0.00  0.00    +0.000 A 
ATOM     20  C   UNL     1       1.734   9.064  18.292  0.00  0.00    +0.000 A 
BRANCH  18  21
ATOM     21  C   UNL     1       4.209   6.270  17.520  0.00  0.00    +0.000 C 
ATOM     22  F   UNL     1       4.748   6.897  16.438  0.00  0.00    +0.000 F 
ATOM     23  F   UNL     1       5.252   5.961  18.337  0.00  0.00    +0.000 F 
ATOM     24  F   UNL     1       3.733   5.080  17.056  0.00  0.00    +0.000 F 
ENDBRANCH  18  21
ENDBRANCH  12  15
ENDBRANCH   1  12
BRANCH   1  25
ATOM     25  C   UNL     1      -1.607  10.656  18.860  0.00  0.00    +0.000 C 
ATOM     26  C   UNL     1      -1.461   9.884  17.547  0.00  0.00    +0.000 C 
BRANCH  25  27
ATOM     27  C   UNL     1      -2.476  11.918  18.603  0.00  0.00    +0.000 C 
BRANCH  27  29
ATOM     28  C   UNL     1      -4.588  11.730  17.208  0.00  0.00    +0.000 C 
ATOM     29  C   UNL     1      -3.988  11.642  18.607  0.00  0.00    +0.000 C 
ENDBRANCH  27  29
ENDBRANCH  25  27
ENDBRANCH   1  25
TORSDOF 9
ENDMDL
MODEL 9
REMARK VINA RESULT:      -6.2      8.521     10.447
REMARK  Name = 
REMARK  11 active torsions:
REMARK  status: ('A' for Active; 'I' for Inactive)
REMARK    1  A    between atoms: C_1  and  C_2
REMARK    2  A    between atoms: C_2  and  C_3
REMARK    3  A    between atoms: C_3  and  C_4
REMARK    4  A    between atoms: C_4  and  C_5
REMARK    5  A    between atoms: C_4  and  N_6
REMARK    6  A    between atoms: N_6  and  C_7
REMARK    7  A    between atoms: N_6  and  S_16
REMARK    8  A    between atoms: C_13  and  C_14
REMARK    9  A    between atoms: C_14  and  O_15
REMARK   10  A    between atoms: S_16  and  C_19
REMARK   11  A    between atoms: C_22  and  C_23
REMARK                            x       y       z     vdW  Elec       q    Type
REMARK                         _______ _______ _______ _____ _____    ______ ____
ROOT
ATOM      1  N   UNL     1      -0.379  11.373  20.075  0.00  0.00    +0.000 N 
ENDROOT
BRANCH   1   2
ATOM      2  C   UNL     1       0.396  10.143  20.198  0.00  0.00    +0.000 A 
ATOM      3  C   UNL     1       1.124   9.775  19.053  0.00  0.00    +0.000 A 
ATOM      4  C   UNL     1       1.857   8.589  19.023  0.00  0.00    +0.000 A 
ATOM      5 CL   UNL     1       2.689   8.135  17.588  0.00  0.00    +0.000 Cl
ATOM      6  C   UNL     1       1.905   7.764  20.135  0.00  0.00    +0.000 A 
ATOM      7  C   UNL     1       1.174   8.108  21.272  0.00  0.00    +0.000 A 
ATOM      8  C   UNL     1       0.382   9.280  21.312  0.00  0.00    +0.000 A 
BRANCH   8   9
ATOM      9  C   UNL     1      -0.471   9.467  22.541  0.00  0.00    +0.000 C 
BRANCH   9  10
ATOM     10  O   UNL     1       0.318   9.700  23.702  0.00  0.00    +0.000 OA
ATOM     11  H   UNL     1       1.110   9.142  23.661  0.00  0.00    +0.000 HD
ENDBRANCH   9  10
ENDBRANCH   8   9
ENDBRANCH   1   2
BRANCH   1  12
ATOM     12  S   UNL     1       0.576  12.775  20.481  0.00  0.00    +0.000 S 
ATOM     13  O   UNL     1       1.900  12.360  20.901  0.00  0.00    +0.000 OA
ATOM     14  O   UNL     1       0.401  13.742  19.417  0.00  0.00    +0.000 OA
BRANCH  12  15
ATOM     15  C   UNL     1      -0.199  13.430  21.950  0.00  0.00    +0.000 A 
ATOM     16  C   UNL     1      -1.195  12.682  22.585  0.00  0.00    +0.000 A 
ATOM     17  C   UNL     1      -1.955  13.274  23.596  0.00  0.00    +0.000 A 
ATOM     18  C   UNL     1      -1.728  14.607  23.976  0.00  0.00    +0.000 A 
ATOM     19  C   UNL     1      -0.661  15.312  23.392  0.00  0.00    +0.000 A 
ATOM     20  C   UNL     1       0.119  14.718  22.395  0.00  0.00    +0.000 A 
BRANCH  18  21
ATOM     21  C   UNL     1      -2.647  15.309  24.950  0.00  0.00    +0.000 C 
ATOM     22  F   UNL     1      -3.709  15.919  24.356  0.00  0.00    +0.000 F 
ATOM     23  F   UNL     1      -3.169  14.469  25.885  0.00  0.00    +0.000 F 
ATOM     24  F   UNL     1      -2.001  16.287  25.645  0.00  0.00    +0.000 F 
ENDBRANCH  18  21
ENDBRANCH  12  15
ENDBRANCH   1  12
BRANCH   1  25
ATOM     25  C   UNL     1      -1.397  11.491  18.937  0.00  0.00    +0.000 C 
ATOM     26  C   UNL     1      -2.685  12.163  19.420  0.00  0.00    +0.000 C 
BRANCH  25  27
ATOM     27  C   UNL     1      -1.753  10.105  18.334  0.00  0.00    +0.000 C 
BRANCH  27  29
ATOM     28  C   UNL     1      -2.950   9.991  16.099  0.00  0.00    +0.000 C 
ATOM     29  C   UNL     1      -3.110  10.072  17.613  0.00  0.00    +0.000 C 
ENDBRANCH  27  29
ENDBRANCH  25  27
ENDBRANCH   1  25
TORSDOF 9
ENDMDL
