MODEL 1
REMARK VINA RESULT:      -6.6      0.000      0.000
REMARK  Name = 
REMARK  7 active torsions:
REMARK  status: ('A' for Active; 'I' for Inactive)
REMARK    1  A    between atoms: C_1  and  C_2
REMARK    2  A    between atoms: C_2  and  C_3
REMARK    3  A    between atoms: C_2  and  N_9
REMARK    4  A    between atoms: C_3  and  N_4
REMARK    5  A    between atoms: C_10  and  C_12
REMARK    6  A    between atoms: C_12  and  C_13
REMARK    7  A    between atoms: C_13  and  C_14
REMARK                            x       y       z     vdW  Elec       q    Type
REMARK                         _______ _______ _______ _____ _____    ______ ____
ROOT
ATOM      1  N   UNL     1       2.960   3.870  18.223  0.00  0.00    +0.000 N 
ATOM      2  C   UNL     1       1.607   3.737  18.028  0.00  0.00    +0.000 C 
ATOM      3  O   UNL     1       1.024   4.202  17.055  0.00  0.00    +0.000 OA
ATOM      4  H   UNL     1       3.407   3.334  18.959  0.00  0.00    +0.000 HD
ENDROOT
BRANCH   1   6
ATOM      5  C   UNL     1       4.025   5.966  17.571  0.00  0.00    +0.000 C 
ATOM      6  C   UNL     1       3.809   4.499  17.205  0.00  0.00    +0.000 C 
BRANCH   6   7
ATOM      7  C   UNL     1       5.128   3.728  17.023  0.00  0.00    +0.000 C 
BRANCH   7   8
ATOM      8  N   UNL     1       5.977   4.294  15.999  0.00  0.00    +0.000 N 
ATOM      9  C   UNL     1       7.117   5.018  16.166  0.00  0.00    +0.000 A 
ATOM     10  N   UNL     1       7.617   5.322  14.990  0.00  0.00    +0.000 NA
ATOM     11  C   UNL     1       6.719   4.767  14.122  0.00  0.00    +0.000 A 
ATOM     12  N   UNL     1       5.693   4.136  14.694  0.00  0.00    +0.000 NA
ENDBRANCH   7   8
ENDBRANCH   6   7
ENDBRANCH   1   6
BRANCH   2  13
ATOM     13  C   UNL     1       0.888   2.977  19.124  0.00  0.00    +0.000 C 
BRANCH  13  14
ATOM     14  C   UNL     1       0.917   3.759  20.436  0.00  0.00    +0.000 C 
BRANCH  14  15
ATOM     15  C   UNL     1       1.725   3.057  21.515  0.00  0.00    +0.000 C 
ATOM     16  F   UNL     1       0.955   2.330  22.353  0.00  0.00    +0.000 F 
ATOM     17  F   UNL     1       2.608   2.199  20.950  0.00  0.00    +0.000 F 
ATOM     18  F   UNL     1       2.437   3.933  22.254  0.00  0.00    +0.000 F 
ENDBRANCH  14  15
ENDBRANCH  13  14
ENDBRANCH   2  13
TORSDOF 6
ENDMDL
MODEL 2
REMARK VINA RESULT:      -6.5      4.946      6.949
REMARK  Name = 
REMARK  7 active torsions:
REMARK  status: ('A' for Active; 'I' for Inactive)
REMARK    1  A    between atoms: C_1  and  C_2
REMARK    2  A    between atoms: C_2  and  C_3
REMARK    3  A    between atoms: C_2  and  N_9
REMARK    4  A    between atoms: C_3  and  N_4
REMARK    5  A    between atoms: C_10  and  C_12
REMARK    6  A    between atoms: C_12  and  C_13
REMARK    7  A    between atoms: C_13  and  C_14
REMARK                            x       y       z     vdW  Elec       q    Type
REMARK                         _______ _______ _______ _____ _____    ______ ____
ROOT
ATOM      1  N   UNL     1       5.561   4.921  16.323  0.00  0.00    +0.000 N 
ATOM      2  C   UNL     1       6.730   5.261  15.687  0.00  0.00    +0.000 C 
ATOM      3  O   UNL     1       7.518   6.086  16.135  0.00  0.00    +0.000 OA
ATOM      4  H   UNL     1       5.030   4.125  15.987  0.00  0.00    +0.000 HD
ENDROOT
BRANCH   1   6
ATOM      5  C   UNL     1       3.882   6.158  17.591  0.00  0.00    +0.000 C 
ATOM      6  C   UNL     1       5.241   5.463  17.649  0.00  0.00    +0.000 C 
BRANCH   6   7
ATOM      7  C   UNL     1       5.307   4.369  18.730  0.00  0.00    +0.000 C 
BRANCH   7   8
ATOM      8  N   UNL     1       4.192   3.451  18.674  0.00  0.00    +0.000 N 
ATOM      9  C   UNL     1       3.305   3.153  19.662  0.00  0.00    +0.000 A 
ATOM     10  N   UNL     1       2.417   2.299  19.209  0.00  0.00    +0.000 NA
ATOM     11  C   UNL     1       2.824   2.087  17.921  0.00  0.00    +0.000 A 
ATOM     12  N   UNL     1       3.913   2.763  17.552  0.00  0.00    +0.000 NA
ENDBRANCH   7   8
ENDBRANCH   6   7
ENDBRANCH   1   6
BRANCH   2  13
ATOM     13  C   UNL     1       6.960   4.541  14.374  0.00  0.00    +0.000 C 
BRANCH  13  14
ATOM     14  C   UNL     1       5.670   3.891  13.877  0.00  0.00    +0.000 C 
BRANCH  14  15
ATOM     15  C   UNL     1       5.736   3.515  12.406  0.00  0.00    +0.000 C 
ATOM     16  F   UNL     1       6.741   4.138  11.753  0.00  0.00    +0.000 F 
ATOM     17  F   UNL     1       5.949   2.184  12.276  0.00  0.00    +0.000 F 
ATOM     18  F   UNL     1       4.582   3.799  11.767  0.00  0.00    +0.000 F 
ENDBRANCH  14  15
ENDBRANCH  13  14
ENDBRANCH   2  13
TORSDOF 6
ENDMDL
MODEL 3
REMARK VINA RESULT:      -6.5      1.452      1.905
REMARK  Name = 
REMARK  7 active torsions:
REMARK  status: ('A' for Active; 'I' for Inactive)
REMARK    1  A    between atoms: C_1  and  C_2
REMARK    2  A    between atoms: C_2  and  C_3
REMARK    3  A    between atoms: C_2  and  N_9
REMARK    4  A    between atoms: C_3  and  N_4
REMARK    5  A    between atoms: C_10  and  C_12
REMARK    6  A    between atoms: C_12  and  C_13
REMARK    7  A    between atoms: C_13  and  C_14
REMARK                            x       y       z     vdW  Elec       q    Type
REMARK                         _______ _______ _______ _____ _____    ______ ____
ROOT
ATOM      1  N   UNL     1       3.520   5.009  18.367  0.00  0.00    +0.000 N 
ATOM      2  C   UNL     1       2.671   3.963  18.103  0.00  0.00    +0.000 C 
ATOM      3  O   UNL     1       1.756   4.034  17.290  0.00  0.00    +0.000 OA
ATOM      4  H   UNL     1       4.348   4.843  18.929  0.00  0.00    +0.000 HD
ENDROOT
BRANCH   1   6
ATOM      5  C   UNL     1       2.553   7.250  18.353  0.00  0.00    +0.000 C 
ATOM      6  C   UNL     1       3.437   6.257  17.601  0.00  0.00    +0.000 C 
BRANCH   6   7
ATOM      7  C   UNL     1       4.837   6.817  17.293  0.00  0.00    +0.000 C 
BRANCH   7   8
ATOM      8  N   UNL     1       5.756   5.810  16.812  0.00  0.00    +0.000 N 
ATOM      9  C   UNL     1       7.039   5.591  17.211  0.00  0.00    +0.000 A 
ATOM     10  N   UNL     1       7.529   4.561  16.560  0.00  0.00    +0.000 NA
ATOM     11  C   UNL     1       6.494   4.191  15.747  0.00  0.00    +0.000 A 
ATOM     12  N   UNL     1       5.391   4.934  15.859  0.00  0.00    +0.000 NA
ENDBRANCH   7   8
ENDBRANCH   6   7
ENDBRANCH   1   6
BRANCH   2  13
ATOM     13  C   UNL     1       2.949   2.711  18.910  0.00  0.00    +0.000 C 
BRANCH  13  14
ATOM     14  C   UNL     1       2.777   2.980  20.404  0.00  0.00    +0.000 C 
BRANCH  14  15
ATOM     15  C   UNL     1       1.319   3.133  20.804  0.00  0.00    +0.000 C 
ATOM     16  F   UNL     1       1.051   2.602  22.017  0.00  0.00    +0.000 F 
ATOM     17  F   UNL     1       0.991   4.446  20.871  0.00  0.00    +0.000 F 
ATOM     18  F   UNL     1       0.492   2.561  19.904  0.00  0.00    +0.000 F 
ENDBRANCH  14  15
ENDBRANCH  13  14
ENDBRANCH   2  13
TORSDOF 6
ENDMDL
MODEL 4
REMARK VINA RESULT:      -6.5      0.994      1.170
REMARK  Name = 
REMARK  7 active torsions:
REMARK  status: ('A' for Active; 'I' for Inactive)
REMARK    1  A    between atoms: C_1  and  C_2
REMARK    2  A    between atoms: C_2  and  C_3
REMARK    3  A    between atoms: C_2  and  N_9
REMARK    4  A    between atoms: C_3  and  N_4
REMARK    5  A    between atoms: C_10  and  C_12
REMARK    6  A    between atoms: C_12  and  C_13
REMARK    7  A    between atoms: C_13  and  C_14
REMARK                            x       y       z     vdW  Elec       q    Type
REMARK                         _______ _______ _______ _____ _____    ______ ____
ROOT
ATOM      1  N   UNL     1       2.854   4.611  18.622  0.00  0.00    +0.000 N 
ATOM      2  C   UNL     1       1.783   3.916  18.116  0.00  0.00    +0.000 C 
ATOM      3  O   UNL     1       1.218   4.227  17.073  0.00  0.00    +0.000 OA
ATOM      4  H   UNL     1       3.375   4.218  19.398  0.00  0.00    +0.000 HD
ENDROOT
BRANCH   1   6
ATOM      5  C   UNL     1       2.682   7.005  18.177  0.00  0.00    +0.000 C 
ATOM      6  C   UNL     1       3.452   5.721  17.872  0.00  0.00    +0.000 C 
BRANCH   6   7
ATOM      7  C   UNL     1       4.958   5.845  18.164  0.00  0.00    +0.000 C 
BRANCH   7   8
ATOM      8  N   UNL     1       5.781   5.181  17.177  0.00  0.00    +0.000 N 
ATOM      9  C   UNL     1       7.140   5.142  17.114  0.00  0.00    +0.000 A 
ATOM     10  N   UNL     1       7.509   4.407  16.089  0.00  0.00    +0.000 NA
ATOM     11  C   UNL     1       6.316   4.030  15.538  0.00  0.00    +0.000 A 
ATOM     12  N   UNL     1       5.231   4.489  16.164  0.00  0.00    +0.000 NA
ENDBRANCH   7   8
ENDBRANCH   6   7
ENDBRANCH   1   6
BRANCH   2  13
ATOM     13  C   UNL     1       1.346   2.737  18.961  0.00  0.00    +0.000 C 
BRANCH  13  14
ATOM     14  C   UNL     1       0.782   3.208  20.300  0.00  0.00    +0.000 C 
BRANCH  14  15
ATOM     15  C   UNL     1       1.741   2.966  21.454  0.00  0.00    +0.000 C 
ATOM     16  F   UNL     1       1.168   2.296  22.477  0.00  0.00    +0.000 F 
ATOM     17  F   UNL     1       2.791   2.219  21.036  0.00  0.00    +0.000 F 
ATOM     18  F   UNL     1       2.241   4.122  21.937  0.00  0.00    +0.000 F 
ENDBRANCH  14  15
ENDBRANCH  13  14
ENDBRANCH   2  13
TORSDOF 6
ENDMDL
MODEL 5
REMARK VINA RESULT:      -6.4      1.750      2.322
REMARK  Name = 
REMARK  7 active torsions:
REMARK  status: ('A' for Active; 'I' for Inactive)
REMARK    1  A    between atoms: C_1  and  C_2
REMARK    2  A    between atoms: C_2  and  C_3
REMARK    3  A    between atoms: C_2  and  N_9
REMARK    4  A    between atoms: C_3  and  N_4
REMARK    5  A    between atoms: C_10  and  C_12
REMARK    6  A    between atoms: C_12  and  C_13
REMARK    7  A    between atoms: C_13  and  C_14
REMARK                            x       y       z     vdW  Elec       q    Type
REMARK                         _______ _______ _______ _____ _____    ______ ____
ROOT
ATOM      1  N   UNL     1       3.717   5.374  18.745  0.00  0.00    +0.000 N 
ATOM      2  C   UNL     1       3.434   4.062  18.454  0.00  0.00    +0.000 C 
ATOM      3  O   UNL     1       3.061   3.689  17.347  0.00  0.00    +0.000 OA
ATOM      4  H   UNL     1       4.167   5.597  19.626  0.00  0.00    +0.000 HD
ENDROOT
BRANCH   1   6
ATOM      5  C   UNL     1       2.645   7.457  18.061  0.00  0.00    +0.000 C 
ATOM      6  C   UNL     1       3.686   6.400  17.698  0.00  0.00    +0.000 C 
BRANCH   6   7
ATOM      7  C   UNL     1       5.085   6.997  17.460  0.00  0.00    +0.000 C 
BRANCH   7   8
ATOM      8  N   UNL     1       6.110   5.990  17.301  0.00  0.00    +0.000 N 
ATOM      9  C   UNL     1       6.545   5.416  16.147  0.00  0.00    +0.000 A 
ATOM     10  N   UNL     1       7.514   4.571  16.417  0.00  0.00    +0.000 NA
ATOM     11  C   UNL     1       7.621   4.653  17.777  0.00  0.00    +0.000 A 
ATOM     12  N   UNL     1       6.775   5.501  18.363  0.00  0.00    +0.000 NA
ENDBRANCH   7   8
ENDBRANCH   6   7
ENDBRANCH   1   6
BRANCH   2  13
ATOM     13  C   UNL     1       3.606   3.110  19.620  0.00  0.00    +0.000 C 
BRANCH  13  14
ATOM     14  C   UNL     1       2.267   2.493  20.021  0.00  0.00    +0.000 C 
BRANCH  14  15
ATOM     15  C   UNL     1       1.526   3.329  21.051  0.00  0.00    +0.000 C 
ATOM     16  F   UNL     1       0.955   2.580  22.018  0.00  0.00    +0.000 F 
ATOM     17  F   UNL     1       2.385   4.176  21.667  0.00  0.00    +0.000 F 
ATOM     18  F   UNL     1       0.562   4.083  20.481  0.00  0.00    +0.000 F 
ENDBRANCH  14  15
ENDBRANCH  13  14
ENDBRANCH   2  13
TORSDOF 6
ENDMDL
MODEL 6
REMARK VINA RESULT:      -6.4      5.034      7.083
REMARK  Name = 
REMARK  7 active torsions:
REMARK  status: ('A' for Active; 'I' for Inactive)
REMARK    1  A    between atoms: C_1  and  C_2
REMARK    2  A    between atoms: C_2  and  C_3
REMARK    3  A    between atoms: C_2  and  N_9
REMARK    4  A    between atoms: C_3  and  N_4
REMARK    5  A    between atoms: C_10  and  C_12
REMARK    6  A    between atoms: C_12  and  C_13
REMARK    7  A    between atoms: C_13  and  C_14
REMARK                            x       y       z     vdW  Elec       q    Type
REMARK                         _______ _______ _______ _____ _____    ______ ____
ROOT
ATOM      1  N   UNL     1       5.632   5.232  16.019  0.00  0.00    +0.000 N 
ATOM      2  C   UNL     1       6.811   4.676  15.585  0.00  0.00    +0.000 C 
ATOM      3  O   UNL     1       7.733   4.394  16.341  0.00  0.00    +0.000 OA
ATOM      4  H   UNL     1       4.851   5.298  15.374  0.00  0.00    +0.000 HD
ENDROOT
BRANCH   1   6
ATOM      5  C   UNL     1       6.293   6.519  17.983  0.00  0.00    +0.000 C 
ATOM      6  C   UNL     1       5.372   5.423  17.450  0.00  0.00    +0.000 C 
BRANCH   6   7
ATOM      7  C   UNL     1       3.884   5.711  17.714  0.00  0.00    +0.000 C 
BRANCH   7   8
ATOM      8  N   UNL     1       3.076   4.514  17.762  0.00  0.00    +0.000 N 
ATOM      9  C   UNL     1       1.743   4.416  18.017  0.00  0.00    +0.000 A 
ATOM     10  N   UNL     1       1.374   3.158  17.936  0.00  0.00    +0.000 NA
ATOM     11  C   UNL     1       2.543   2.513  17.644  0.00  0.00    +0.000 A 
ATOM     12  N   UNL     1       3.614   3.302  17.539  0.00  0.00    +0.000 NA
ENDBRANCH   7   8
ENDBRANCH   6   7
ENDBRANCH   1   6
BRANCH   2  13
ATOM     13  C   UNL     1       6.884   4.453  14.088  0.00  0.00    +0.000 C 
BRANCH  13  14
ATOM     14  C   UNL     1       5.615   3.773  13.577  0.00  0.00    +0.000 C 
BRANCH  14  15
ATOM     15  C   UNL     1       5.721   3.363  12.117  0.00  0.00    +0.000 C 
ATOM     16  F   UNL     1       5.830   2.026  11.958  0.00  0.00    +0.000 F 
ATOM     17  F   UNL     1       4.611   3.749  11.444  0.00  0.00    +0.000 F 
ATOM     18  F   UNL     1       6.777   3.945  11.512  0.00  0.00    +0.000 F 
ENDBRANCH  14  15
ENDBRANCH  13  14
ENDBRANCH   2  13
TORSDOF 6
ENDMDL
MODEL 7
REMARK VINA RESULT:      -6.4      0.839      1.429
REMARK  Name = 
REMARK  7 active torsions:
REMARK  status: ('A' for Active; 'I' for Inactive)
REMARK    1  A    between atoms: C_1  and  C_2
REMARK    2  A    between atoms: C_2  and  C_3
REMARK    3  A    between atoms: C_2  and  N_9
REMARK    4  A    between atoms: C_3  and  N_4
REMARK    5  A    between atoms: C_10  and  C_12
REMARK    6  A    between atoms: C_12  and  C_13
REMARK    7  A    between atoms: C_13  and  C_14
REMARK                            x       y       z     vdW  Elec       q    Type
REMARK                         _______ _______ _______ _____ _____    ______ ____
ROOT
ATOM      1  N   UNL     1       3.280   4.223  18.314  0.00  0.00    +0.000 N 
ATOM      2  C   UNL     1       2.023   3.748  18.032  0.00  0.00    +0.000 C 
ATOM      3  O   UNL     1       1.290   4.257  17.192  0.00  0.00    +0.000 OA
ATOM      4  H   UNL     1       3.895   3.672  18.902  0.00  0.00    +0.000 HD
ENDROOT
BRANCH   1   6
ATOM      5  C   UNL     1       3.303   6.649  18.051  0.00  0.00    +0.000 C 
ATOM      6  C   UNL     1       3.860   5.323  17.536  0.00  0.00    +0.000 C 
BRANCH   6   7
ATOM      7  C   UNL     1       5.398   5.273  17.558  0.00  0.00    +0.000 C 
BRANCH   7   8
ATOM      8  N   UNL     1       5.969   4.894  16.285  0.00  0.00    +0.000 N 
ATOM      9  C   UNL     1       5.567   3.895  15.454  0.00  0.00    +0.000 A 
ATOM     10  N   UNL     1       6.319   3.893  14.377  0.00  0.00    +0.000 NA
ATOM     11  C   UNL     1       7.195   4.916  14.613  0.00  0.00    +0.000 A 
ATOM     12  N   UNL     1       7.025   5.551  15.774  0.00  0.00    +0.000 NA
ENDBRANCH   7   8
ENDBRANCH   6   7
ENDBRANCH   1   6
BRANCH   2  13
ATOM     13  C   UNL     1       1.608   2.546  18.856  0.00  0.00    +0.000 C 
BRANCH  13  14
ATOM     14  C   UNL     1       0.859   2.983  20.114  0.00  0.00    +0.000 C 
BRANCH  14  15
ATOM     15  C   UNL     1       1.756   3.023  21.341  0.00  0.00    +0.000 C 
ATOM     16  F   UNL     1       2.073   4.281  21.715  0.00  0.00    +0.000 F 
ATOM     17  F   UNL     1       1.128   2.448  22.395  0.00  0.00    +0.000 F 
ATOM     18  F   UNL     1       2.904   2.343  21.142  0.00  0.00    +0.000 F 
ENDBRANCH  14  15
ENDBRANCH  13  14
ENDBRANCH   2  13
TORSDOF 6
ENDMDL
MODEL 8
REMARK VINA RESULT:      -6.3      4.920      7.113
REMARK  Name = 
REMARK  7 active torsions:
REMARK  status: ('A' for Active; 'I' for Inactive)
REMARK    1  A    between atoms: C_1  and  C_2
REMARK    2  A    between atoms: C_2  and  C_3
REMARK    3  A    between atoms: C_2  and  N_9
REMARK    4  A    between atoms: C_3  and  N_4
REMARK    5  A    between atoms: C_10  and  C_12
REMARK    6  A    between atoms: C_12  and  C_13
REMARK    7  A    between atoms: C_13  and  C_14
REMARK                            x       y       z     vdW  Elec       q    Type
REMARK                         _______ _______ _______ _____ _____    ______ ____
ROOT
ATOM      1  N   UNL     1       5.603   4.989  16.174  0.00  0.00    +0.000 N 
ATOM      2  C   UNL     1       6.854   4.648  15.720  0.00  0.00    +0.000 C 
ATOM      3  O   UNL     1       7.831   4.564  16.455  0.00  0.00    +0.000 OA
ATOM      4  H   UNL     1       4.809   4.890  15.552  0.00  0.00    +0.000 HD
ENDROOT
BRANCH   1   6
ATOM      5  C   UNL     1       4.402   6.356  17.801  0.00  0.00    +0.000 C 
ATOM      6  C   UNL     1       5.347   5.171  17.607  0.00  0.00    +0.000 C 
BRANCH   6   7
ATOM      7  C   UNL     1       4.821   3.876  18.250  0.00  0.00    +0.000 C 
BRANCH   7   8
ATOM      8  N   UNL     1       3.378   3.815  18.300  0.00  0.00    +0.000 N 
ATOM      9  C   UNL     1       2.515   3.585  17.273  0.00  0.00    +0.000 A 
ATOM     10  N   UNL     1       1.284   3.573  17.731  0.00  0.00    +0.000 NA
ATOM     11  C   UNL     1       1.450   3.824  19.064  0.00  0.00    +0.000 A 
ATOM     12  N   UNL     1       2.714   3.990  19.457  0.00  0.00    +0.000 NA
ENDBRANCH   7   8
ENDBRANCH   6   7
ENDBRANCH   1   6
BRANCH   2  13
ATOM     13  C   UNL     1       6.931   4.398  14.228  0.00  0.00    +0.000 C 
BRANCH  13  14
ATOM     14  C   UNL     1       5.634   3.777  13.713  0.00  0.00    +0.000 C 
BRANCH  14  15
ATOM     15  C   UNL     1       5.708   3.410  12.240  0.00  0.00    +0.000 C 
ATOM     16  F   UNL     1       4.602   3.772  11.555  0.00  0.00    +0.000 F 
ATOM     17  F   UNL     1       6.755   4.042  11.656  0.00  0.00    +0.000 F 
ATOM     18  F   UNL     1       5.894   2.085  12.065  0.00  0.00    +0.000 F 
ENDBRANCH  14  15
ENDBRANCH  13  14
ENDBRANCH   2  13
TORSDOF 6
ENDMDL
MODEL 9
REMARK VINA RESULT:      -6.3      2.203      2.919
REMARK  Name = 
REMARK  7 active torsions:
REMARK  status: ('A' for Active; 'I' for Inactive)
REMARK    1  A    between atoms: C_1  and  C_2
REMARK    2  A    between atoms: C_2  and  C_3
REMARK    3  A    between atoms: C_2  and  N_9
REMARK    4  A    between atoms: C_3  and  N_4
REMARK    5  A    between atoms: C_10  and  C_12
REMARK    6  A    between atoms: C_12  and  C_13
REMARK    7  A    between atoms: C_13  and  C_14
REMARK                            x       y       z     vdW  Elec       q    Type
REMARK                         _______ _______ _______ _____ _____    ______ ____
ROOT
ATOM      1  N   UNL     1       4.725   4.791  16.972  0.00  0.00    +0.000 N 
ATOM      2  C   UNL     1       3.976   4.089  17.885  0.00  0.00    +0.000 C 
ATOM      3  O   UNL     1       3.935   2.864  17.913  0.00  0.00    +0.000 OA
ATOM      4  H   UNL     1       4.842   5.791  17.096  0.00  0.00    +0.000 HD
ENDROOT
BRANCH   1   6
ATOM      5  C   UNL     1       5.371   4.636  14.624  0.00  0.00    +0.000 C 
ATOM      6  C   UNL     1       5.611   4.096  16.033  0.00  0.00    +0.000 C 
BRANCH   6   7
ATOM      7  C   UNL     1       7.083   4.203  16.471  0.00  0.00    +0.000 C 
BRANCH   7   8
ATOM      8  N   UNL     1       7.369   5.419  17.199  0.00  0.00    +0.000 N 
ATOM      9  C   UNL     1       7.724   5.545  18.506  0.00  0.00    +0.000 A 
ATOM     10  N   UNL     1       7.933   6.813  18.781  0.00  0.00    +0.000 NA
ATOM     11  C   UNL     1       7.668   7.433  17.592  0.00  0.00    +0.000 A 
ATOM     12  N   UNL     1       7.309   6.620  16.597  0.00  0.00    +0.000 NA
ENDBRANCH   7   8
ENDBRANCH   6   7
ENDBRANCH   1   6
BRANCH   2  13
ATOM     13  C   UNL     1       3.190   4.954  18.848  0.00  0.00    +0.000 C 
BRANCH  13  14
ATOM     14  C   UNL     1       2.896   4.197  20.142  0.00  0.00    +0.000 C 
BRANCH  14  15
ATOM     15  C   UNL     1       1.408   3.984  20.368  0.00  0.00    +0.000 C 
ATOM     16  F   UNL     1       1.150   3.111  21.365  0.00  0.00    +0.000 F 
ATOM     17  F   UNL     1       0.818   5.155  20.709  0.00  0.00    +0.000 F 
ATOM     18  F   UNL     1       0.794   3.539  19.252  0.00  0.00    +0.000 F 
ENDBRANCH  14  15
ENDBRANCH  13  14
ENDBRANCH   2  13
TORSDOF 6
ENDMDL
