MODEL 1
REMARK VINA RESULT:      -8.5      0.000      0.000
REMARK  Name = 
REMARK  9 active torsions:
REMARK  status: ('A' for Active; 'I' for Inactive)
REMARK    1  A    between atoms: C_1  and  C_2
REMARK    2  A    between atoms: C_2  and  C_3
REMARK    3  A    between atoms: C_2  and  C_4
REMARK    4  A    between atoms: C_2  and  N_5
REMARK    5  A    between atoms: C_6  and  C_8
REMARK    6  A    between atoms: C_8  and  C_9
REMARK    7  A    between atoms: N_14  and  N_15
REMARK    8  A    between atoms: C_16  and  C_17
REMARK    9  A    between atoms: C_20  and  N_21
REMARK                            x       y       z     vdW  Elec       q    Type
REMARK                         _______ _______ _______ _____ _____    ______ ____
ROOT
ATOM      1  C   UNL     1       5.044   5.179  18.131  0.00  0.00    +0.000 C 
ATOM      2  C   UNL     1       4.817   6.546  17.463  0.00  0.00    +0.000 C 
ATOM      3  C   UNL     1       5.652   5.377  19.531  0.00  0.00    +0.000 C 
ATOM      4  C   UNL     1       7.143   5.532  19.273  0.00  0.00    +0.000 C 
ATOM      5  C   UNL     1       7.364   4.726  18.019  0.00  0.00    +0.000 C 
ATOM      6  O   UNL     1       8.468   4.430  17.583  0.00  0.00    +0.000 OA
ATOM      7  N   UNL     1       6.105   4.418  17.461  0.00  0.00    +0.000 N 
ENDROOT
BRANCH   1   9
ATOM      8  N   UNL     1       3.418   3.963  19.560  0.00  0.00    +0.000 N 
ATOM      9  C   UNL     1       3.703   4.420  18.282  0.00  0.00    +0.000 C 
ATOM     10  O   UNL     1       2.918   4.299  17.345  0.00  0.00    +0.000 OA
ATOM     11  H   UNL     1       4.167   3.995  20.243  0.00  0.00    +0.000 HD
BRANCH   8  13
ATOM     12  C   UNL     1       2.008   1.998  18.980  0.00  0.00    +0.000 C 
ATOM     13  C   UNL     1       2.206   3.203  19.917  0.00  0.00    +0.000 C 
ATOM     14  C   UNL     1       0.963   4.107  19.885  0.00  0.00    +0.000 C 
ATOM     15  C   UNL     1       2.373   2.667  21.351  0.00  0.00    +0.000 C 
ENDBRANCH   8  13
ENDBRANCH   1   9
BRANCH   7  16
ATOM     16  N   UNL     1       6.103   4.008  16.141  0.00  0.00    +0.000 NA
ATOM     17  C   UNL     1       6.821   4.668  15.295  0.00  0.00    +0.000 C 
BRANCH  17  18
ATOM     18  C   UNL     1       6.769   4.422  13.884  0.00  0.00    +0.000 A 
ATOM     19  C   UNL     1       7.548   4.839  12.819  0.00  0.00    +0.000 A 
ATOM     20  C   UNL     1       7.077   4.140  11.675  0.00  0.00    +0.000 A 
ATOM     21  C   UNL     1       6.042   3.360  12.123  0.00  0.00    +0.000 A 
ATOM     22  O   UNL     1       5.823   3.534  13.451  0.00  0.00    +0.000 OA
BRANCH  21  23
ATOM     23  N   UNL     1       5.215   2.390  11.469  0.00  0.00    +0.000 N 
ATOM     24  O   UNL     1       4.078   2.764  11.153  0.00  0.00    +0.000 OA
ATOM     25  O   UNL     1       5.698   1.271  11.258  0.00  0.00    +0.000 OA
ENDBRANCH  21  23
ENDBRANCH  17  18
ENDBRANCH   7  16
TORSDOF 5
ENDMDL
MODEL 2
REMARK VINA RESULT:      -8.3      3.514      6.857
REMARK  Name = 
REMARK  9 active torsions:
REMARK  status: ('A' for Active; 'I' for Inactive)
REMARK    1  A    between atoms: C_1  and  C_2
REMARK    2  A    between atoms: C_2  and  C_3
REMARK    3  A    between atoms: C_2  and  C_4
REMARK    4  A    between atoms: C_2  and  N_5
REMARK    5  A    between atoms: C_6  and  C_8
REMARK    6  A    between atoms: C_8  and  C_9
REMARK    7  A    between atoms: N_14  and  N_15
REMARK    8  A    between atoms: C_16  and  C_17
REMARK    9  A    between atoms: C_20  and  N_21
REMARK                            x       y       z     vdW  Elec       q    Type
REMARK                         _______ _______ _______ _____ _____    ______ ____
ROOT
ATOM      1  C   UNL     1       4.961   4.413  17.487  0.00  0.00    +0.000 C 
ATOM      2  C   UNL     1       6.168   4.569  18.428  0.00  0.00    +0.000 C 
ATOM      3  C   UNL     1       5.403   3.728  16.181  0.00  0.00    +0.000 C 
ATOM      4  C   UNL     1       5.956   4.862  15.333  0.00  0.00    +0.000 C 
ATOM      5  C   UNL     1       5.175   6.062  15.803  0.00  0.00    +0.000 C 
ATOM      6  O   UNL     1       5.177   7.145  15.234  0.00  0.00    +0.000 OA
ATOM      7  N   UNL     1       4.493   5.711  16.987  0.00  0.00    +0.000 N 
ENDROOT
BRANCH   1   9
ATOM      8  N   UNL     1       3.164   4.151  19.180  0.00  0.00    +0.000 N 
ATOM      9  C   UNL     1       3.865   3.543  18.150  0.00  0.00    +0.000 C 
ATOM     10  O   UNL     1       3.594   2.418  17.738  0.00  0.00    +0.000 OA
ATOM     11  H   UNL     1       3.530   5.027  19.538  0.00  0.00    +0.000 HD
BRANCH   8  13
ATOM     12  C   UNL     1       1.301   2.506  19.084  0.00  0.00    +0.000 C 
ATOM     13  C   UNL     1       2.096   3.494  19.957  0.00  0.00    +0.000 C 
ATOM     14  C   UNL     1       1.149   4.537  20.574  0.00  0.00    +0.000 C 
ATOM     15  C   UNL     1       2.746   2.699  21.103  0.00  0.00    +0.000 C 
ENDBRANCH   8  13
ENDBRANCH   1   9
BRANCH   7  16
ATOM     16  N   UNL     1       4.023   6.758  17.758  0.00  0.00    +0.000 NA
ATOM     17  C   UNL     1       2.747   6.944  17.825  0.00  0.00    +0.000 C 
BRANCH  17  18
ATOM     18  C   UNL     1       2.167   8.086  18.467  0.00  0.00    +0.000 A 
ATOM     19  C   UNL     1       1.762   9.327  18.011  0.00  0.00    +0.000 A 
ATOM     20  C   UNL     1       1.130   9.975  19.106  0.00  0.00    +0.000 A 
ATOM     21  C   UNL     1       1.206   9.087  20.150  0.00  0.00    +0.000 A 
ATOM     22  O   UNL     1       1.852   7.949  19.791  0.00  0.00    +0.000 OA
BRANCH  21  23
ATOM     23  N   UNL     1       0.697   9.130  21.488  0.00  0.00    +0.000 N 
ATOM     24  O   UNL     1      -0.407   8.600  21.670  0.00  0.00    +0.000 OA
ATOM     25  O   UNL     1       1.396   9.671  22.353  0.00  0.00    +0.000 OA
ENDBRANCH  21  23
ENDBRANCH  17  18
ENDBRANCH   7  16
TORSDOF 5
ENDMDL
MODEL 3
REMARK VINA RESULT:      -8.3      3.656      7.003
REMARK  Name = 
REMARK  9 active torsions:
REMARK  status: ('A' for Active; 'I' for Inactive)
REMARK    1  A    between atoms: C_1  and  C_2
REMARK    2  A    between atoms: C_2  and  C_3
REMARK    3  A    between atoms: C_2  and  C_4
REMARK    4  A    between atoms: C_2  and  N_5
REMARK    5  A    between atoms: C_6  and  C_8
REMARK    6  A    between atoms: C_8  and  C_9
REMARK    7  A    between atoms: N_14  and  N_15
REMARK    8  A    between atoms: C_16  and  C_17
REMARK    9  A    between atoms: C_20  and  N_21
REMARK                            x       y       z     vdW  Elec       q    Type
REMARK                         _______ _______ _______ _____ _____    ______ ____
ROOT
ATOM      1  C   UNL     1       4.502   4.530  17.599  0.00  0.00    +0.000 C 
ATOM      2  C   UNL     1       5.583   4.602  18.691  0.00  0.00    +0.000 C 
ATOM      3  C   UNL     1       5.016   3.699  16.410  0.00  0.00    +0.000 C 
ATOM      4  C   UNL     1       5.827   4.686  15.586  0.00  0.00    +0.000 C 
ATOM      5  C   UNL     1       5.161   6.007  15.871  0.00  0.00    +0.000 C 
ATOM      6  O   UNL     1       5.386   7.035  15.247  0.00  0.00    +0.000 OA
ATOM      7  N   UNL     1       4.286   5.836  16.965  0.00  0.00    +0.000 N 
ENDROOT
BRANCH   1   9
ATOM      8  N   UNL     1       3.155   3.738  19.528  0.00  0.00    +0.000 N 
ATOM      9  C   UNL     1       3.220   3.859  18.149  0.00  0.00    +0.000 C 
ATOM     10  O   UNL     1       2.297   3.524  17.411  0.00  0.00    +0.000 OA
ATOM     11  H   UNL     1       4.005   3.924  20.052  0.00  0.00    +0.000 HD
BRANCH   8  13
ATOM     12  C   UNL     1       2.458   2.681  21.669  0.00  0.00    +0.000 C 
ATOM     13  C   UNL     1       2.034   3.113  20.254  0.00  0.00    +0.000 C 
ATOM     14  C   UNL     1       1.482   1.908  19.476  0.00  0.00    +0.000 C 
ATOM     15  C   UNL     1       0.906   4.152  20.393  0.00  0.00    +0.000 C 
ENDBRANCH   8  13
ENDBRANCH   1   9
BRANCH   7  16
ATOM     16  N   UNL     1       3.865   6.989  17.601  0.00  0.00    +0.000 NA
ATOM     17  C   UNL     1       2.639   7.055  17.999  0.00  0.00    +0.000 C 
BRANCH  17  18
ATOM     18  C   UNL     1       2.064   8.256  18.528  0.00  0.00    +0.000 A 
ATOM     19  C   UNL     1       1.734   9.477  17.967  0.00  0.00    +0.000 A 
ATOM     20  C   UNL     1       1.060  10.218  18.975  0.00  0.00    +0.000 A 
ATOM     21  C   UNL     1       1.039   9.400  20.076  0.00  0.00    +0.000 A 
ATOM     22  O   UNL     1       1.662   8.219  19.835  0.00  0.00    +0.000 OA
BRANCH  21  23
ATOM     23  N   UNL     1       0.449   9.549  21.373  0.00  0.00    +0.000 N 
ATOM     24  O   UNL     1      -0.350   8.668  21.716  0.00  0.00    +0.000 OA
ATOM     25  O   UNL     1       0.791  10.525  22.052  0.00  0.00    +0.000 OA
ENDBRANCH  21  23
ENDBRANCH  17  18
ENDBRANCH   7  16
TORSDOF 5
ENDMDL
MODEL 4
REMARK VINA RESULT:      -8.2      3.538      6.880
REMARK  Name = 
REMARK  9 active torsions:
REMARK  status: ('A' for Active; 'I' for Inactive)
REMARK    1  A    between atoms: C_1  and  C_2
REMARK    2  A    between atoms: C_2  and  C_3
REMARK    3  A    between atoms: C_2  and  C_4
REMARK    4  A    between atoms: C_2  and  N_5
REMARK    5  A    between atoms: C_6  and  C_8
REMARK    6  A    between atoms: C_8  and  C_9
REMARK    7  A    between atoms: N_14  and  N_15
REMARK    8  A    between atoms: C_16  and  C_17
REMARK    9  A    between atoms: C_20  and  N_21
REMARK                            x       y       z     vdW  Elec       q    Type
REMARK                         _______ _______ _______ _____ _____    ______ ____
ROOT
ATOM      1  C   UNL     1       5.701   4.892  17.608  0.00  0.00    +0.000 C 
ATOM      2  C   UNL     1       6.949   5.465  18.302  0.00  0.00    +0.000 C 
ATOM      3  C   UNL     1       6.120   4.077  16.371  0.00  0.00    +0.000 C 
ATOM      4  C   UNL     1       6.289   5.119  15.276  0.00  0.00    +0.000 C 
ATOM      5  C   UNL     1       5.318   6.202  15.674  0.00  0.00    +0.000 C 
ATOM      6  O   UNL     1       5.001   7.135  14.950  0.00  0.00    +0.000 OA
ATOM      7  N   UNL     1       4.889   5.950  16.995  0.00  0.00    +0.000 N 
ENDROOT
BRANCH   1   9
ATOM      8  N   UNL     1       3.606   3.711  18.225  0.00  0.00    +0.000 N 
ATOM      9  C   UNL     1       4.926   3.958  18.570  0.00  0.00    +0.000 C 
ATOM     10  O   UNL     1       5.472   3.422  19.530  0.00  0.00    +0.000 OA
ATOM     11  H   UNL     1       3.201   4.286  17.493  0.00  0.00    +0.000 HD
BRANCH   8  13
ATOM     12  C   UNL     1       1.241   2.995  18.504  0.00  0.00    +0.000 C 
ATOM     13  C   UNL     1       2.688   2.867  19.013  0.00  0.00    +0.000 C 
ATOM     14  C   UNL     1       2.758   3.228  20.505  0.00  0.00    +0.000 C 
ATOM     15  C   UNL     1       3.120   1.398  18.853  0.00  0.00    +0.000 C 
ENDBRANCH   8  13
ENDBRANCH   1   9
BRANCH   7  16
ATOM     16  N   UNL     1       4.293   7.005  17.659  0.00  0.00    +0.000 NA
ATOM     17  C   UNL     1       3.032   6.928  17.921  0.00  0.00    +0.000 C 
BRANCH  17  18
ATOM     18  C   UNL     1       2.289   8.027  18.465  0.00  0.00    +0.000 A 
ATOM     19  C   UNL     1       1.716   9.155  17.905  0.00  0.00    +0.000 A 
ATOM     20  C   UNL     1       0.987   9.797  18.941  0.00  0.00    +0.000 A 
ATOM     21  C   UNL     1       1.178   9.020  20.057  0.00  0.00    +0.000 A 
ATOM     22  O   UNL     1       1.982   7.959  19.796  0.00  0.00    +0.000 OA
BRANCH  21  23
ATOM     23  N   UNL     1       0.653   9.103  21.387  0.00  0.00    +0.000 N 
ATOM     24  O   UNL     1      -0.405   8.495  21.598  0.00  0.00    +0.000 OA
ATOM     25  O   UNL     1       1.297   9.754  22.220  0.00  0.00    +0.000 OA
ENDBRANCH  21  23
ENDBRANCH  17  18
ENDBRANCH   7  16
TORSDOF 5
ENDMDL
MODEL 5
REMARK VINA RESULT:      -8.2      3.799      7.839
REMARK  Name = 
REMARK  9 active torsions:
REMARK  status: ('A' for Active; 'I' for Inactive)
REMARK    1  A    between atoms: C_1  and  C_2
REMARK    2  A    between atoms: C_2  and  C_3
REMARK    3  A    between atoms: C_2  and  C_4
REMARK    4  A    between atoms: C_2  and  N_5
REMARK    5  A    between atoms: C_6  and  C_8
REMARK    6  A    between atoms: C_8  and  C_9
REMARK    7  A    between atoms: N_14  and  N_15
REMARK    8  A    between atoms: C_16  and  C_17
REMARK    9  A    between atoms: C_20  and  N_21
REMARK                            x       y       z     vdW  Elec       q    Type
REMARK                         _______ _______ _______ _____ _____    ______ ____
ROOT
ATOM      1  C   UNL     1       3.563   3.509  18.466  0.00  0.00    +0.000 C 
ATOM      2  C   UNL     1       3.040   3.080  17.084  0.00  0.00    +0.000 C 
ATOM      3  C   UNL     1       3.615   2.291  19.405  0.00  0.00    +0.000 C 
ATOM      4  C   UNL     1       2.199   2.173  19.944  0.00  0.00    +0.000 C 
ATOM      5  C   UNL     1       1.698   3.594  19.920  0.00  0.00    +0.000 C 
ATOM      6  O   UNL     1       0.664   3.964  20.460  0.00  0.00    +0.000 OA
ATOM      7  N   UNL     1       2.602   4.371  19.165  0.00  0.00    +0.000 N 
ENDROOT
BRANCH   1   9
ATOM      8  N   UNL     1       5.335   4.576  17.092  0.00  0.00    +0.000 N 
ATOM      9  C   UNL     1       4.991   4.097  18.347  0.00  0.00    +0.000 C 
ATOM     10  O   UNL     1       5.734   4.194  19.319  0.00  0.00    +0.000 OA
ATOM     11  H   UNL     1       4.716   4.347  16.321  0.00  0.00    +0.000 HD
BRANCH   8  13
ATOM     12  C   UNL     1       6.957   5.010  15.257  0.00  0.00    +0.000 C 
ATOM     13  C   UNL     1       6.648   5.157  16.758  0.00  0.00    +0.000 C 
ATOM     14  C   UNL     1       7.763   4.507  17.594  0.00  0.00    +0.000 C 
ATOM     15  C   UNL     1       6.614   6.660  17.090  0.00  0.00    +0.000 C 
ENDBRANCH   8  13
ENDBRANCH   1   9
BRANCH   7  16
ATOM     16  N   UNL     1       2.141   5.597  18.726  0.00  0.00    +0.000 NA
ATOM     17  C   UNL     1       2.647   6.664  19.249  0.00  0.00    +0.000 C 
BRANCH  17  18
ATOM     18  C   UNL     1       2.133   7.974  18.978  0.00  0.00    +0.000 A 
ATOM     19  C   UNL     1       1.995   8.718  17.819  0.00  0.00    +0.000 A 
ATOM     20  C   UNL     1       1.281   9.893  18.175  0.00  0.00    +0.000 A 
ATOM     21  C   UNL     1       1.047   9.785  19.523  0.00  0.00    +0.000 A 
ATOM     22  O   UNL     1       1.576   8.644  20.032  0.00  0.00    +0.000 OA
BRANCH  21  23
ATOM     23  N   UNL     1       0.324  10.611  20.443  0.00  0.00    +0.000 N 
ATOM     24  O   UNL     1      -0.856  10.850  20.153  0.00  0.00    +0.000 OA
ATOM     25  O   UNL     1       0.919  11.004  21.454  0.00  0.00    +0.000 OA
ENDBRANCH  21  23
ENDBRANCH  17  18
ENDBRANCH   7  16
TORSDOF 5
ENDMDL
MODEL 6
REMARK VINA RESULT:      -8.1      0.842      1.457
REMARK  Name = 
REMARK  9 active torsions:
REMARK  status: ('A' for Active; 'I' for Inactive)
REMARK    1  A    between atoms: C_1  and  C_2
REMARK    2  A    between atoms: C_2  and  C_3
REMARK    3  A    between atoms: C_2  and  C_4
REMARK    4  A    between atoms: C_2  and  N_5
REMARK    5  A    between atoms: C_6  and  C_8
REMARK    6  A    between atoms: C_8  and  C_9
REMARK    7  A    between atoms: N_14  and  N_15
REMARK    8  A    between atoms: C_16  and  C_17
REMARK    9  A    between atoms: C_20  and  N_21
REMARK                            x       y       z     vdW  Elec       q    Type
REMARK                         _______ _______ _______ _____ _____    ______ ____
ROOT
ATOM      1  C   UNL     1       5.467   5.734  18.024  0.00  0.00    +0.000 C 
ATOM      2  C   UNL     1       5.663   7.083  17.311  0.00  0.00    +0.000 C 
ATOM      3  C   UNL     1       6.049   5.806  19.447  0.00  0.00    +0.000 C 
ATOM      4  C   UNL     1       7.532   5.527  19.259  0.00  0.00    +0.000 C 
ATOM      5  C   UNL     1       7.568   4.644  18.038  0.00  0.00    +0.000 C 
ATOM      6  O   UNL     1       8.560   4.033  17.665  0.00  0.00    +0.000 OA
ATOM      7  N   UNL     1       6.297   4.681  17.426  0.00  0.00    +0.000 N 
ENDROOT
BRANCH   1   9
ATOM      8  N   UNL     1       3.673   4.096  18.534  0.00  0.00    +0.000 N 
ATOM      9  C   UNL     1       3.961   5.389  18.128  0.00  0.00    +0.000 C 
ATOM     10  O   UNL     1       3.089   6.231  17.930  0.00  0.00    +0.000 OA
ATOM     11  H   UNL     1       4.441   3.433  18.557  0.00  0.00    +0.000 HD
BRANCH   8  13
ATOM     12  C   UNL     1       1.652   4.045  19.984  0.00  0.00    +0.000 C 
ATOM     13  C   UNL     1       2.308   3.557  18.679  0.00  0.00    +0.000 C 
ATOM     14  C   UNL     1       2.319   2.020  18.635  0.00  0.00    +0.000 C 
ATOM     15  C   UNL     1       1.457   4.065  17.501  0.00  0.00    +0.000 C 
ENDBRANCH   8  13
ENDBRANCH   1   9
BRANCH   7  16
ATOM     16  N   UNL     1       6.232   4.238  16.118  0.00  0.00    +0.000 NA
ATOM     17  C   UNL     1       6.995   4.804  15.244  0.00  0.00    +0.000 C 
BRANCH  17  18
ATOM     18  C   UNL     1       6.895   4.527  13.841  0.00  0.00    +0.000 A 
ATOM     19  C   UNL     1       7.638   4.917  12.741  0.00  0.00    +0.000 A 
ATOM     20  C   UNL     1       7.128   4.195  11.630  0.00  0.00    +0.000 A 
ATOM     21  C   UNL     1       6.106   3.427  12.130  0.00  0.00    +0.000 A 
ATOM     22  O   UNL     1       5.932   3.632  13.460  0.00  0.00    +0.000 OA
BRANCH  21  23
ATOM     23  N   UNL     1       5.256   2.445  11.526  0.00  0.00    +0.000 N 
ATOM     24  O   UNL     1       5.742   1.317  11.377  0.00  0.00    +0.000 OA
ATOM     25  O   UNL     1       4.108   2.790  11.218  0.00  0.00    +0.000 OA
ENDBRANCH  21  23
ENDBRANCH  17  18
ENDBRANCH   7  16
TORSDOF 5
ENDMDL
MODEL 7
REMARK VINA RESULT:      -8.1      3.519      6.897
REMARK  Name = 
REMARK  9 active torsions:
REMARK  status: ('A' for Active; 'I' for Inactive)
REMARK    1  A    between atoms: C_1  and  C_2
REMARK    2  A    between atoms: C_2  and  C_3
REMARK    3  A    between atoms: C_2  and  C_4
REMARK    4  A    between atoms: C_2  and  N_5
REMARK    5  A    between atoms: C_6  and  C_8
REMARK    6  A    between atoms: C_8  and  C_9
REMARK    7  A    between atoms: N_14  and  N_15
REMARK    8  A    between atoms: C_16  and  C_17
REMARK    9  A    between atoms: C_20  and  N_21
REMARK                            x       y       z     vdW  Elec       q    Type
REMARK                         _______ _______ _______ _____ _____    ______ ____
ROOT
ATOM      1  C   UNL     1       5.043   4.431  17.531  0.00  0.00    +0.000 C 
ATOM      2  C   UNL     1       6.255   4.646  18.455  0.00  0.00    +0.000 C 
ATOM      3  C   UNL     1       5.491   3.723  16.240  0.00  0.00    +0.000 C 
ATOM      4  C   UNL     1       6.004   4.848  15.355  0.00  0.00    +0.000 C 
ATOM      5  C   UNL     1       5.194   6.038  15.800  0.00  0.00    +0.000 C 
ATOM      6  O   UNL     1       5.160   7.104  15.202  0.00  0.00    +0.000 OA
ATOM      7  N   UNL     1       4.534   5.701  17.001  0.00  0.00    +0.000 N 
ENDROOT
BRANCH   1   9
ATOM      8  N   UNL     1       3.174   4.203  19.149  0.00  0.00    +0.000 N 
ATOM      9  C   UNL     1       3.979   3.549  18.230  0.00  0.00    +0.000 C 
ATOM     10  O   UNL     1       3.819   2.369  17.931  0.00  0.00    +0.000 OA
ATOM     11  H   UNL     1       3.450   5.139  19.426  0.00  0.00    +0.000 HD
BRANCH   8  13
ATOM     12  C   UNL     1       1.169   4.584  20.570  0.00  0.00    +0.000 C 
ATOM     13  C   UNL     1       2.114   3.547  19.938  0.00  0.00    +0.000 C 
ATOM     14  C   UNL     1       2.720   2.649  21.028  0.00  0.00    +0.000 C 
ATOM     15  C   UNL     1       1.283   2.661  18.993  0.00  0.00    +0.000 C 
ENDBRANCH   8  13
ENDBRANCH   1   9
BRANCH   7  16
ATOM     16  N   UNL     1       4.043   6.755  17.748  0.00  0.00    +0.000 NA
ATOM     17  C   UNL     1       2.775   6.996  17.705  0.00  0.00    +0.000 C 
BRANCH  17  18
ATOM     18  C   UNL     1       2.189   8.153  18.316  0.00  0.00    +0.000 A 
ATOM     19  C   UNL     1       1.790   9.384  17.829  0.00  0.00    +0.000 A 
ATOM     20  C   UNL     1       1.147  10.056  18.903  0.00  0.00    +0.000 A 
ATOM     21  C   UNL     1       1.211   9.191  19.966  0.00  0.00    +0.000 A 
ATOM     22  O   UNL     1       1.859   8.045  19.640  0.00  0.00    +0.000 OA
BRANCH  21  23
ATOM     23  N   UNL     1       0.687   9.263  21.297  0.00  0.00    +0.000 N 
ATOM     24  O   UNL     1       1.438   8.877  22.203  0.00  0.00    +0.000 OA
ATOM     25  O   UNL     1      -0.455   9.715  21.442  0.00  0.00    +0.000 OA
ENDBRANCH  21  23
ENDBRANCH  17  18
ENDBRANCH   7  16
TORSDOF 5
ENDMDL
MODEL 8
REMARK VINA RESULT:      -8.1      3.763      7.725
REMARK  Name = 
REMARK  9 active torsions:
REMARK  status: ('A' for Active; 'I' for Inactive)
REMARK    1  A    between atoms: C_1  and  C_2
REMARK    2  A    between atoms: C_2  and  C_3
REMARK    3  A    between atoms: C_2  and  C_4
REMARK    4  A    between atoms: C_2  and  N_5
REMARK    5  A    between atoms: C_6  and  C_8
REMARK    6  A    between atoms: C_8  and  C_9
REMARK    7  A    between atoms: N_14  and  N_15
REMARK    8  A    between atoms: C_16  and  C_17
REMARK    9  A    between atoms: C_20  and  N_21
REMARK                            x       y       z     vdW  Elec       q    Type
REMARK                         _______ _______ _______ _____ _____    ______ ____
ROOT
ATOM      1  C   UNL     1       3.598   3.463  18.513  0.00  0.00    +0.000 C 
ATOM      2  C   UNL     1       2.601   2.821  17.533  0.00  0.00    +0.000 C 
ATOM      3  C   UNL     1       4.103   2.405  19.511  0.00  0.00    +0.000 C 
ATOM      4  C   UNL     1       3.028   2.362  20.585  0.00  0.00    +0.000 C 
ATOM      5  C   UNL     1       2.461   3.759  20.568  0.00  0.00    +0.000 C 
ATOM      6  O   UNL     1       1.704   4.200  21.421  0.00  0.00    +0.000 OA
ATOM      7  N   UNL     1       2.936   4.416  19.412  0.00  0.00    +0.000 N 
ENDROOT
BRANCH   1   9
ATOM      8  N   UNL     1       5.678   4.819  18.502  0.00  0.00    +0.000 N 
ATOM      9  C   UNL     1       4.817   4.036  17.749  0.00  0.00    +0.000 C 
ATOM     10  O   UNL     1       5.036   3.753  16.574  0.00  0.00    +0.000 OA
ATOM     11  H   UNL     1       5.362   5.104  19.424  0.00  0.00    +0.000 HD
BRANCH   8  13
ATOM     12  C   UNL     1       6.523   6.741  17.169  0.00  0.00    +0.000 C 
ATOM     13  C   UNL     1       6.885   5.475  17.966  0.00  0.00    +0.000 C 
ATOM     14  C   UNL     1       7.689   4.506  17.085  0.00  0.00    +0.000 C 
ATOM     15  C   UNL     1       7.775   5.898  19.150  0.00  0.00    +0.000 C 
ENDBRANCH   8  13
ENDBRANCH   1   9
BRANCH   7  16
ATOM     16  N   UNL     1       2.255   5.556  19.031  0.00  0.00    +0.000 NA
ATOM     17  C   UNL     1       2.844   6.696  19.172  0.00  0.00    +0.000 C 
BRANCH  17  18
ATOM     18  C   UNL     1       2.172   7.943  18.952  0.00  0.00    +0.000 A 
ATOM     19  C   UNL     1       1.835   8.651  17.813  0.00  0.00    +0.000 A 
ATOM     20  C   UNL     1       1.046   9.753  18.239  0.00  0.00    +0.000 A 
ATOM     21  C   UNL     1       0.970   9.642  19.605  0.00  0.00    +0.000 A 
ATOM     22  O   UNL     1       1.664   8.568  20.058  0.00  0.00    +0.000 OA
BRANCH  21  23
ATOM     23  N   UNL     1       0.268  10.403  20.594  0.00  0.00    +0.000 N 
ATOM     24  O   UNL     1      -0.896  10.723  20.315  0.00  0.00    +0.000 OA
ATOM     25  O   UNL     1       0.863  10.667  21.646  0.00  0.00    +0.000 OA
ENDBRANCH  21  23
ENDBRANCH  17  18
ENDBRANCH   7  16
TORSDOF 5
ENDMDL
MODEL 9
REMARK VINA RESULT:      -8.0      3.757      7.788
REMARK  Name = 
REMARK  9 active torsions:
REMARK  status: ('A' for Active; 'I' for Inactive)
REMARK    1  A    between atoms: C_1  and  C_2
REMARK    2  A    between atoms: C_2  and  C_3
REMARK    3  A    between atoms: C_2  and  C_4
REMARK    4  A    between atoms: C_2  and  N_5
REMARK    5  A    between atoms: C_6  and  C_8
REMARK    6  A    between atoms: C_8  and  C_9
REMARK    7  A    between atoms: N_14  and  N_15
REMARK    8  A    between atoms: C_16  and  C_17
REMARK    9  A    between atoms: C_20  and  N_21
REMARK                            x       y       z     vdW  Elec       q    Type
REMARK                         _______ _______ _______ _____ _____    ______ ____
ROOT
ATOM      1  C   UNL     1       3.513   3.510  18.458  0.00  0.00    +0.000 C 
ATOM      2  C   UNL     1       3.023   3.098  17.060  0.00  0.00    +0.000 C 
ATOM      3  C   UNL     1       3.536   2.282  19.386  0.00  0.00    +0.000 C 
ATOM      4  C   UNL     1       2.106   2.165  19.887  0.00  0.00    +0.000 C 
ATOM      5  C   UNL     1       1.612   3.589  19.866  0.00  0.00    +0.000 C 
ATOM      6  O   UNL     1       0.567   3.958  20.383  0.00  0.00    +0.000 OA
ATOM      7  N   UNL     1       2.539   4.369  19.142  0.00  0.00    +0.000 N 
ENDROOT
BRANCH   1   9
ATOM      8  N   UNL     1       5.316   4.602  17.146  0.00  0.00    +0.000 N 
ATOM      9  C   UNL     1       4.946   4.092  18.381  0.00  0.00    +0.000 C 
ATOM     10  O   UNL     1       5.672   4.159  19.370  0.00  0.00    +0.000 OA
ATOM     11  H   UNL     1       4.710   4.398  16.358  0.00  0.00    +0.000 HD
BRANCH   8  13
ATOM     12  C   UNL     1       7.753   4.448  17.617  0.00  0.00    +0.000 C 
ATOM     13  C   UNL     1       6.639   5.184  16.852  0.00  0.00    +0.000 C 
ATOM     14  C   UNL     1       6.665   6.683  17.192  0.00  0.00    +0.000 C 
ATOM     15  C   UNL     1       6.914   5.028  15.345  0.00  0.00    +0.000 C 
ENDBRANCH   8  13
ENDBRANCH   1   9
BRANCH   7  16
ATOM     16  N   UNL     1       2.094   5.602  18.705  0.00  0.00    +0.000 NA
ATOM     17  C   UNL     1       2.695   6.658  19.142  0.00  0.00    +0.000 C 
BRANCH  17  18
ATOM     18  C   UNL     1       2.218   7.983  18.873  0.00  0.00    +0.000 A 
ATOM     19  C   UNL     1       2.190   8.769  17.734  0.00  0.00    +0.000 A 
ATOM     20  C   UNL     1       1.455   9.939  18.067  0.00  0.00    +0.000 A 
ATOM     21  C   UNL     1       1.100   9.785  19.384  0.00  0.00    +0.000 A 
ATOM     22  O   UNL     1       1.572   8.621  19.896  0.00  0.00    +0.000 OA
BRANCH  21  23
ATOM     23  N   UNL     1       0.303  10.586  20.264  0.00  0.00    +0.000 N 
ATOM     24  O   UNL     1       0.841  11.606  20.714  0.00  0.00    +0.000 OA
ATOM     25  O   UNL     1      -0.853  10.211  20.494  0.00  0.00    +0.000 OA
ENDBRANCH  21  23
ENDBRANCH  17  18
ENDBRANCH   7  16
TORSDOF 5
ENDMDL
