MODEL 1
REMARK VINA RESULT:      -8.1      0.000      0.000
REMARK  Name = 
REMARK  8 active torsions:
REMARK  status: ('A' for Active; 'I' for Inactive)
REMARK    1  A    between atoms: O_1  and  C_2
REMARK    2  A    between atoms: C_2  and  C_3
REMARK    3  A    between atoms: C_11  and  C_12
REMARK    4  A    between atoms: C_12  and  C_13
REMARK    5  A    between atoms: C_16  and  C_17
REMARK    6  A    between atoms: C_25  and  O_26
REMARK    7  A    between atoms: C_27  and  O_28
REMARK    8  A    between atoms: C_29  and  O_30
REMARK                            x       y       z     vdW  Elec       q    Type
REMARK                         _______ _______ _______ _____ _____    ______ ____
ROOT
ATOM      1  C   UNL     1       5.343   4.926  17.859  0.00  0.00    +0.000 C 
ATOM      2  O   UNL     1       4.516   6.035  18.252  0.00  0.00    +0.000 OA
ATOM      3  C   UNL     1       3.216   5.652  18.701  0.00  0.00    +0.000 C 
ATOM      4  O   UNL     1       3.324   4.817  19.889  0.00  0.00    +0.000 OA
ATOM      5  C   UNL     1       2.551   5.383  20.969  0.00  0.00    +0.000 C 
ATOM      6  C   UNL     1       2.069   6.691  20.474  0.00  0.00    +0.000 A 
ATOM      7  C   UNL     1       1.296   7.633  21.130  0.00  0.00    +0.000 A 
ATOM      8  C   UNL     1       0.961   8.806  20.448  0.00  0.00    +0.000 A 
ATOM      9  C   UNL     1       1.410   9.038  19.133  0.00  0.00    +0.000 A 
ATOM     10  C   UNL     1       2.177   8.051  18.484  0.00  0.00    +0.000 A 
ATOM     11  C   UNL     1       2.486   6.877  19.165  0.00  0.00    +0.000 A 
ATOM     12  C   UNL     1       2.442   4.867  17.606  0.00  0.00    +0.000 C 
ATOM     13  C   UNL     1       3.282   3.639  17.211  0.00  0.00    +0.000 C 
ATOM     14  C   UNL     1       4.682   4.080  16.760  0.00  0.00    +0.000 C 
ENDROOT
BRANCH  12  15
ATOM     15  O   UNL     1       1.140   4.440  18.046  0.00  0.00    +0.000 OA
ATOM     16  H   UNL     1       1.204   3.493  18.264  0.00  0.00    +0.000 HD
ENDBRANCH  12  15
BRANCH  13  17
ATOM     17  O   UNL     1       2.635   2.864  16.191  0.00  0.00    +0.000 OA
ATOM     18  H   UNL     1       1.866   2.417  16.586  0.00  0.00    +0.000 HD
ENDBRANCH  13  17
BRANCH  14  19
ATOM     19  O   UNL     1       5.487   2.938  16.439  0.00  0.00    +0.000 OA
ATOM     20  H   UNL     1       5.650   2.434  17.256  0.00  0.00    +0.000 HD
ENDBRANCH  14  19
BRANCH   1  21
ATOM     21  C   UNL     1       6.705   5.464  17.397  0.00  0.00    +0.000 C 
BRANCH  21  22
ATOM     22  O   UNL     1       7.691   4.432  17.384  0.00  0.00    +0.000 OA
ATOM     23  H   UNL     1       7.240   3.619  17.097  0.00  0.00    +0.000 HD
ENDBRANCH  21  22
ENDBRANCH   1  21
BRANCH   9  24
ATOM     24  C   UNL     1       1.022  10.318  18.413  0.00  0.00    +0.000 C 
BRANCH  24  25
ATOM     25  C   UNL     1      -0.474  10.543  18.377  0.00  0.00    +0.000 A 
ATOM     26  C   UNL     1      -1.290   9.788  17.524  0.00  0.00    +0.000 A 
ATOM     27  C   UNL     1      -2.643  10.103  17.378  0.00  0.00    +0.000 A 
ATOM     28  C   UNL     1      -3.204  11.179  18.080  0.00  0.00    +0.000 A 
ATOM     29  C   UNL     1      -2.402  11.884  18.990  0.00  0.00    +0.000 A 
ATOM     30  C   UNL     1      -1.050  11.569  19.137  0.00  0.00    +0.000 A 
BRANCH  28  31
ATOM     31  C   UNL     1      -4.624  11.623  17.829  0.00  0.00    +0.000 C 
ATOM     32  F   UNL     1      -5.539  10.620  17.954  0.00  0.00    +0.000 F 
ATOM     33  F   UNL     1      -5.028  12.607  18.678  0.00  0.00    +0.000 F 
ATOM     34  F   UNL     1      -4.794  12.122  16.571  0.00  0.00    +0.000 F 
ENDBRANCH  28  31
ENDBRANCH  24  25
ENDBRANCH   9  24
TORSDOF 8
ENDMDL
MODEL 2
REMARK VINA RESULT:      -8.1      6.030      9.038
REMARK  Name = 
REMARK  8 active torsions:
REMARK  status: ('A' for Active; 'I' for Inactive)
REMARK    1  A    between atoms: O_1  and  C_2
REMARK    2  A    between atoms: C_2  and  C_3
REMARK    3  A    between atoms: C_11  and  C_12
REMARK    4  A    between atoms: C_12  and  C_13
REMARK    5  A    between atoms: C_16  and  C_17
REMARK    6  A    between atoms: C_25  and  O_26
REMARK    7  A    between atoms: C_27  and  O_28
REMARK    8  A    between atoms: C_29  and  O_30
REMARK                            x       y       z     vdW  Elec       q    Type
REMARK                         _______ _______ _______ _____ _____    ______ ____
ROOT
ATOM      1  C   UNL     1       2.490  15.177  18.558  0.00  0.00    +0.000 C 
ATOM      2  O   UNL     1       2.287  13.792  18.228  0.00  0.00    +0.000 OA
ATOM      3  C   UNL     1       1.396  13.115  19.115  0.00  0.00    +0.000 C 
ATOM      4  O   UNL     1       0.073  13.721  19.053  0.00  0.00    +0.000 OA
ATOM      5  C   UNL     1      -0.918  12.722  18.730  0.00  0.00    +0.000 C 
ATOM      6  C   UNL     1      -0.161  11.485  18.438  0.00  0.00    +0.000 A 
ATOM      7  C   UNL     1      -0.643  10.243  18.064  0.00  0.00    +0.000 A 
ATOM      8  C   UNL     1       0.276   9.215  17.843  0.00  0.00    +0.000 A 
ATOM      9  C   UNL     1       1.662   9.434  17.977  0.00  0.00    +0.000 A 
ATOM     10  C   UNL     1       2.120  10.703  18.381  0.00  0.00    +0.000 A 
ATOM     11  C   UNL     1       1.194  11.714  18.620  0.00  0.00    +0.000 A 
ATOM     12  C   UNL     1       1.902  13.169  20.584  0.00  0.00    +0.000 C 
ATOM     13  C   UNL     1       2.071  14.647  20.980  0.00  0.00    +0.000 C 
ATOM     14  C   UNL     1       3.010  15.354  19.993  0.00  0.00    +0.000 C 
ENDROOT
BRANCH  12  15
ATOM     15  O   UNL     1       1.004  12.522  21.504  0.00  0.00    +0.000 OA
ATOM     16  H   UNL     1       1.511  11.833  21.969  0.00  0.00    +0.000 HD
ENDBRANCH  12  15
BRANCH  13  17
ATOM     17  O   UNL     1       2.547  14.779  22.327  0.00  0.00    +0.000 OA
ATOM     18  H   UNL     1       2.272  15.649  22.667  0.00  0.00    +0.000 HD
ENDBRANCH  13  17
BRANCH  14  19
ATOM     19  O   UNL     1       3.132  16.743  20.326  0.00  0.00    +0.000 OA
ATOM     20  H   UNL     1       2.333  17.207  20.018  0.00  0.00    +0.000 HD
ENDBRANCH  14  19
BRANCH   1  21
ATOM     21  C   UNL     1       3.463  15.789  17.539  0.00  0.00    +0.000 C 
BRANCH  21  22
ATOM     22  O   UNL     1       3.469  17.214  17.623  0.00  0.00    +0.000 OA
ATOM     23  H   UNL     1       2.833  17.456  18.319  0.00  0.00    +0.000 HD
ENDBRANCH  21  22
ENDBRANCH   1  21
BRANCH   9  24
ATOM     24  C   UNL     1       2.638   8.295  17.740  0.00  0.00    +0.000 C 
BRANCH  24  25
ATOM     25  C   UNL     1       2.300   7.055  18.539  0.00  0.00    +0.000 A 
ATOM     26  C   UNL     1       2.106   7.128  19.925  0.00  0.00    +0.000 A 
ATOM     27  C   UNL     1       1.951   5.963  20.680  0.00  0.00    +0.000 A 
ATOM     28  C   UNL     1       1.989   4.705  20.064  0.00  0.00    +0.000 A 
ATOM     29  C   UNL     1       2.108   4.639  18.668  0.00  0.00    +0.000 A 
ATOM     30  C   UNL     1       2.262   5.803  17.913  0.00  0.00    +0.000 A 
BRANCH  28  31
ATOM     31  C   UNL     1       1.966   3.435  20.878  0.00  0.00    +0.000 C 
ATOM     32  F   UNL     1       2.798   2.465  20.400  0.00  0.00    +0.000 F 
ATOM     33  F   UNL     1       2.328   3.631  22.176  0.00  0.00    +0.000 F 
ATOM     34  F   UNL     1       0.726   2.869  20.917  0.00  0.00    +0.000 F 
ENDBRANCH  28  31
ENDBRANCH  24  25
ENDBRANCH   9  24
TORSDOF 8
ENDMDL
MODEL 3
REMARK VINA RESULT:      -8.0      0.413      1.198
REMARK  Name = 
REMARK  8 active torsions:
REMARK  status: ('A' for Active; 'I' for Inactive)
REMARK    1  A    between atoms: O_1  and  C_2
REMARK    2  A    between atoms: C_2  and  C_3
REMARK    3  A    between atoms: C_11  and  C_12
REMARK    4  A    between atoms: C_12  and  C_13
REMARK    5  A    between atoms: C_16  and  C_17
REMARK    6  A    between atoms: C_25  and  O_26
REMARK    7  A    between atoms: C_27  and  O_28
REMARK    8  A    between atoms: C_29  and  O_30
REMARK                            x       y       z     vdW  Elec       q    Type
REMARK                         _______ _______ _______ _____ _____    ______ ____
ROOT
ATOM      1  C   UNL     1       5.210   4.841  18.160  0.00  0.00    +0.000 C 
ATOM      2  O   UNL     1       4.414   5.982  18.521  0.00  0.00    +0.000 OA
ATOM      3  C   UNL     1       3.066   5.658  18.862  0.00  0.00    +0.000 C 
ATOM      4  O   UNL     1       3.041   4.790  20.030  0.00  0.00    +0.000 OA
ATOM      5  C   UNL     1       2.219   5.371  21.065  0.00  0.00    +0.000 C 
ATOM      6  C   UNL     1       1.843   6.714  20.572  0.00  0.00    +0.000 A 
ATOM      7  C   UNL     1       1.072   7.680  21.196  0.00  0.00    +0.000 A 
ATOM      8  C   UNL     1       0.848   8.884  20.524  0.00  0.00    +0.000 A 
ATOM      9  C   UNL     1       1.407   9.124  19.252  0.00  0.00    +0.000 A 
ATOM     10  C   UNL     1       2.169   8.113  18.635  0.00  0.00    +0.000 A 
ATOM     11  C   UNL     1       2.366   6.909  19.304  0.00  0.00    +0.000 A 
ATOM     12  C   UNL     1       2.337   4.941  17.691  0.00  0.00    +0.000 C 
ATOM     13  C   UNL     1       3.141   3.681  17.325  0.00  0.00    +0.000 C 
ATOM     14  C   UNL     1       4.591   4.057  16.991  0.00  0.00    +0.000 C 
ENDROOT
BRANCH  12  15
ATOM     15  O   UNL     1       0.986   4.573  18.021  0.00  0.00    +0.000 OA
ATOM     16  H   UNL     1       0.834   4.828  18.948  0.00  0.00    +0.000 HD
ENDBRANCH  12  15
BRANCH  13  17
ATOM     17  O   UNL     1       2.534   2.966  16.239  0.00  0.00    +0.000 OA
ATOM     18  H   UNL     1       3.026   2.137  16.102  0.00  0.00    +0.000 HD
ENDBRANCH  13  17
BRANCH  14  19
ATOM     19  O   UNL     1       5.359   2.883  16.699  0.00  0.00    +0.000 OA
ATOM     20  H   UNL     1       5.529   2.408  17.533  0.00  0.00    +0.000 HD
ENDBRANCH  14  19
BRANCH   1  21
ATOM     21  C   UNL     1       6.629   5.317  17.814  0.00  0.00    +0.000 C 
BRANCH  21  22
ATOM     22  O   UNL     1       7.593   4.297  18.071  0.00  0.00    +0.000 OA
ATOM     23  H   UNL     1       7.131   3.446  17.977  0.00  0.00    +0.000 HD
ENDBRANCH  21  22
ENDBRANCH   1  21
BRANCH   9  24
ATOM     24  C   UNL     1       1.140  10.439  18.541  0.00  0.00    +0.000 C 
BRANCH  24  25
ATOM     25  C   UNL     1      -0.332  10.682  18.287  0.00  0.00    +0.000 A 
ATOM     26  C   UNL     1      -1.001  11.739  18.919  0.00  0.00    +0.000 A 
ATOM     27  C   UNL     1      -2.388  11.867  18.807  0.00  0.00    +0.000 A 
ATOM     28  C   UNL     1      -3.130  10.939  18.064  0.00  0.00    +0.000 A 
ATOM     29  C   UNL     1      -2.449   9.927  17.371  0.00  0.00    +0.000 A 
ATOM     30  C   UNL     1      -1.063   9.800  17.482  0.00  0.00    +0.000 A 
BRANCH  28  31
ATOM     31  C   UNL     1      -4.638  10.976  18.047  0.00  0.00    +0.000 C 
ATOM     32  F   UNL     1      -5.169  11.950  18.840  0.00  0.00    +0.000 F 
ATOM     33  F   UNL     1      -5.149  11.188  16.803  0.00  0.00    +0.000 F 
ATOM     34  F   UNL     1      -5.189   9.807  18.482  0.00  0.00    +0.000 F 
ENDBRANCH  28  31
ENDBRANCH  24  25
ENDBRANCH   9  24
TORSDOF 8
ENDMDL
MODEL 4
REMARK VINA RESULT:      -7.8      5.807      8.856
REMARK  Name = 
REMARK  8 active torsions:
REMARK  status: ('A' for Active; 'I' for Inactive)
REMARK    1  A    between atoms: O_1  and  C_2
REMARK    2  A    between atoms: C_2  and  C_3
REMARK    3  A    between atoms: C_11  and  C_12
REMARK    4  A    between atoms: C_12  and  C_13
REMARK    5  A    between atoms: C_16  and  C_17
REMARK    6  A    between atoms: C_25  and  O_26
REMARK    7  A    between atoms: C_27  and  O_28
REMARK    8  A    between atoms: C_29  and  O_30
REMARK                            x       y       z     vdW  Elec       q    Type
REMARK                         _______ _______ _______ _____ _____    ______ ____
ROOT
ATOM      1  C   UNL     1       2.138  15.216  18.637  0.00  0.00    +0.000 C 
ATOM      2  O   UNL     1       2.022  13.831  18.270  0.00  0.00    +0.000 OA
ATOM      3  C   UNL     1       1.243  13.057  19.182  0.00  0.00    +0.000 C 
ATOM      4  O   UNL     1      -0.124  13.557  19.220  0.00  0.00    +0.000 OA
ATOM      5  C   UNL     1      -1.052  12.493  18.920  0.00  0.00    +0.000 C 
ATOM      6  C   UNL     1      -0.220  11.330  18.539  0.00  0.00    +0.000 A 
ATOM      7  C   UNL     1      -0.627  10.066  18.149  0.00  0.00    +0.000 A 
ATOM      8  C   UNL     1       0.354   9.122  17.837  0.00  0.00    +0.000 A 
ATOM      9  C   UNL     1       1.724   9.447  17.897  0.00  0.00    +0.000 A 
ATOM     10  C   UNL     1       2.106  10.735  18.319  0.00  0.00    +0.000 A 
ATOM     11  C   UNL     1       1.121  11.661  18.649  0.00  0.00    +0.000 A 
ATOM     12  C   UNL     1       1.833  13.105  20.619  0.00  0.00    +0.000 C 
ATOM     13  C   UNL     1       1.911  14.578  21.058  0.00  0.00    +0.000 C 
ATOM     14  C   UNL     1       2.730  15.389  20.044  0.00  0.00    +0.000 C 
ENDROOT
BRANCH  12  15
ATOM     15  O   UNL     1       1.047  12.359  21.567  0.00  0.00    +0.000 OA
ATOM     16  H   UNL     1       1.198  11.414  21.390  0.00  0.00    +0.000 HD
ENDBRANCH  12  15
BRANCH  13  17
ATOM     17  O   UNL     1       2.457  14.706  22.378  0.00  0.00    +0.000 OA
ATOM     18  H   UNL     1       2.623  13.814  22.731  0.00  0.00    +0.000 HD
ENDBRANCH  13  17
BRANCH  14  19
ATOM     19  O   UNL     1       2.763  16.772  20.419  0.00  0.00    +0.000 OA
ATOM     20  H   UNL     1       3.138  16.841  21.315  0.00  0.00    +0.000 HD
ENDBRANCH  14  19
BRANCH   1  21
ATOM     21  C   UNL     1       2.995  15.936  17.585  0.00  0.00    +0.000 C 
BRANCH  21  22
ATOM     22  O   UNL     1       4.059  15.102  17.128  0.00  0.00    +0.000 OA
ATOM     23  H   UNL     1       4.740  15.692  16.761  0.00  0.00    +0.000 HD
ENDBRANCH  21  22
ENDBRANCH   1  21
BRANCH   9  24
ATOM     24  C   UNL     1       2.770   8.397  17.562  0.00  0.00    +0.000 C 
BRANCH  24  25
ATOM     25  C   UNL     1       2.649   7.154  18.415  0.00  0.00    +0.000 A 
ATOM     26  C   UNL     1       2.871   5.884  17.864  0.00  0.00    +0.000 A 
ATOM     27  C   UNL     1       2.607   4.732  18.609  0.00  0.00    +0.000 A 
ATOM     28  C   UNL     1       2.114   4.829  19.918  0.00  0.00    +0.000 A 
ATOM     29  C   UNL     1       1.966   6.100  20.493  0.00  0.00    +0.000 A 
ATOM     30  C   UNL     1       2.231   7.251  19.748  0.00  0.00    +0.000 A 
BRANCH  28  31
ATOM     31  C   UNL     1       1.689   3.603  20.687  0.00  0.00    +0.000 C 
ATOM     32  F   UNL     1       0.362   3.316  20.567  0.00  0.00    +0.000 F 
ATOM     33  F   UNL     1       2.351   2.478  20.297  0.00  0.00    +0.000 F 
ATOM     34  F   UNL     1       1.919   3.727  22.025  0.00  0.00    +0.000 F 
ENDBRANCH  28  31
ENDBRANCH  24  25
ENDBRANCH   9  24
TORSDOF 8
ENDMDL
MODEL 5
REMARK VINA RESULT:      -7.8      5.921      9.222
REMARK  Name = 
REMARK  8 active torsions:
REMARK  status: ('A' for Active; 'I' for Inactive)
REMARK    1  A    between atoms: O_1  and  C_2
REMARK    2  A    between atoms: C_2  and  C_3
REMARK    3  A    between atoms: C_11  and  C_12
REMARK    4  A    between atoms: C_12  and  C_13
REMARK    5  A    between atoms: C_16  and  C_17
REMARK    6  A    between atoms: C_25  and  O_26
REMARK    7  A    between atoms: C_27  and  O_28
REMARK    8  A    between atoms: C_29  and  O_30
REMARK                            x       y       z     vdW  Elec       q    Type
REMARK                         _______ _______ _______ _____ _____    ______ ____
ROOT
ATOM      1  C   UNL     1      -2.323  11.992  19.818  0.00  0.00    +0.000 C 
ATOM      2  O   UNL     1      -1.402  10.905  19.620  0.00  0.00    +0.000 OA
ATOM      3  C   UNL     1      -0.286  10.927  20.509  0.00  0.00    +0.000 C 
ATOM      4  O   UNL     1      -0.741  10.795  21.886  0.00  0.00    +0.000 OA
ATOM      5  C   UNL     1      -0.086   9.678  22.523  0.00  0.00    +0.000 C 
ATOM      6  C   UNL     1       0.690   9.007  21.458  0.00  0.00    +0.000 A 
ATOM      7  C   UNL     1       1.484   7.877  21.546  0.00  0.00    +0.000 A 
ATOM      8  C   UNL     1       2.128   7.428  20.391  0.00  0.00    +0.000 A 
ATOM      9  C   UNL     1       1.964   8.093  19.159  0.00  0.00    +0.000 A 
ATOM     10  C   UNL     1       1.168   9.254  19.106  0.00  0.00    +0.000 A 
ATOM     11  C   UNL     1       0.548   9.704  20.268  0.00  0.00    +0.000 A 
ATOM     12  C   UNL     1       0.525  12.246  20.375  0.00  0.00    +0.000 C 
ATOM     13  C   UNL     1      -0.428  13.425  20.642  0.00  0.00    +0.000 C 
ATOM     14  C   UNL     1      -1.631  13.358  19.691  0.00  0.00    +0.000 C 
ENDROOT
BRANCH  12  15
ATOM     15  O   UNL     1       1.637  12.309  21.286  0.00  0.00    +0.000 OA
ATOM     16  H   UNL     1       2.237  13.005  20.963  0.00  0.00    +0.000 HD
ENDBRANCH  12  15
BRANCH  13  17
ATOM     17  O   UNL     1       0.248  14.685  20.526  0.00  0.00    +0.000 OA
ATOM     18  H   UNL     1      -0.384  15.344  20.186  0.00  0.00    +0.000 HD
ENDBRANCH  13  17
BRANCH  14  19
ATOM     19  O   UNL     1      -2.549  14.423  19.968  0.00  0.00    +0.000 OA
ATOM     20  H   UNL     1      -3.332  14.051  20.411  0.00  0.00    +0.000 HD
ENDBRANCH  14  19
BRANCH   1  21
ATOM     21  C   UNL     1      -3.470  11.858  18.806  0.00  0.00    +0.000 C 
BRANCH  21  22
ATOM     22  O   UNL     1      -3.035  12.181  17.486  0.00  0.00    +0.000 OA
ATOM     23  H   UNL     1      -2.086  12.389  17.548  0.00  0.00    +0.000 HD
ENDBRANCH  21  22
ENDBRANCH   1  21
BRANCH   9  24
ATOM     24  C   UNL     1       2.684   7.588  17.921  0.00  0.00    +0.000 C 
BRANCH  24  25
ATOM     25  C   UNL     1       2.900   6.091  17.936  0.00  0.00    +0.000 A 
ATOM     26  C   UNL     1       1.811   5.211  17.885  0.00  0.00    +0.000 A 
ATOM     27  C   UNL     1       2.001   3.837  18.057  0.00  0.00    +0.000 A 
ATOM     28  C   UNL     1       3.284   3.320  18.285  0.00  0.00    +0.000 A 
ATOM     29  C   UNL     1       4.380   4.194  18.259  0.00  0.00    +0.000 A 
ATOM     30  C   UNL     1       4.190   5.566  18.086  0.00  0.00    +0.000 A 
BRANCH  28  31
ATOM     31  C   UNL     1       3.493   1.862  18.613  0.00  0.00    +0.000 C 
ATOM     32  F   UNL     1       4.416   1.650  19.593  0.00  0.00    +0.000 F 
ATOM     33  F   UNL     1       2.353   1.246  19.034  0.00  0.00    +0.000 F 
ATOM     34  F   UNL     1       3.928   1.147  17.537  0.00  0.00    +0.000 F 
ENDBRANCH  28  31
ENDBRANCH  24  25
ENDBRANCH   9  24
TORSDOF 8
ENDMDL
MODEL 6
REMARK VINA RESULT:      -7.5      5.771      8.990
REMARK  Name = 
REMARK  8 active torsions:
REMARK  status: ('A' for Active; 'I' for Inactive)
REMARK    1  A    between atoms: O_1  and  C_2
REMARK    2  A    between atoms: C_2  and  C_3
REMARK    3  A    between atoms: C_11  and  C_12
REMARK    4  A    between atoms: C_12  and  C_13
REMARK    5  A    between atoms: C_16  and  C_17
REMARK    6  A    between atoms: C_25  and  O_26
REMARK    7  A    between atoms: C_27  and  O_28
REMARK    8  A    between atoms: C_29  and  O_30
REMARK                            x       y       z     vdW  Elec       q    Type
REMARK                         _______ _______ _______ _____ _____    ______ ____
ROOT
ATOM      1  C   UNL     1       0.545  14.800  20.084  0.00  0.00    +0.000 C 
ATOM      2  O   UNL     1       0.793  13.543  19.431  0.00  0.00    +0.000 OA
ATOM      3  C   UNL     1      -0.131  12.516  19.791  0.00  0.00    +0.000 C 
ATOM      4  O   UNL     1      -1.478  12.894  19.392  0.00  0.00    +0.000 OA
ATOM      5  C   UNL     1      -2.053  11.875  18.546  0.00  0.00    +0.000 C 
ATOM      6  C   UNL     1      -0.966  10.903  18.296  0.00  0.00    +0.000 A 
ATOM      7  C   UNL     1      -0.996   9.749  17.533  0.00  0.00    +0.000 A 
ATOM      8  C   UNL     1       0.168   8.981  17.446  0.00  0.00    +0.000 A 
ATOM      9  C   UNL     1       1.352   9.376  18.101  0.00  0.00    +0.000 A 
ATOM     10  C   UNL     1       1.345  10.545  18.887  0.00  0.00    +0.000 A 
ATOM     11  C   UNL     1       0.173  11.289  18.984  0.00  0.00    +0.000 A 
ATOM     12  C   UNL     1      -0.119  12.249  21.322  0.00  0.00    +0.000 C 
ATOM     13  C   UNL     1      -0.442  13.571  22.043  0.00  0.00    +0.000 C 
ATOM     14  C   UNL     1       0.550  14.661  21.614  0.00  0.00    +0.000 C 
ENDROOT
BRANCH  12  15
ATOM     15  O   UNL     1      -1.067  11.241  21.717  0.00  0.00    +0.000 OA
ATOM     16  H   UNL     1      -1.204  11.331  22.676  0.00  0.00    +0.000 HD
ENDBRANCH  12  15
BRANCH  13  17
ATOM     17  O   UNL     1      -0.440  13.407  23.468  0.00  0.00    +0.000 OA
ATOM     18  H   UNL     1      -1.261  13.792  23.823  0.00  0.00    +0.000 HD
ENDBRANCH  13  17
BRANCH  14  19
ATOM     19  O   UNL     1       0.224  15.908  22.242  0.00  0.00    +0.000 OA
ATOM     20  H   UNL     1       0.958  16.531  22.094  0.00  0.00    +0.000 HD
ENDBRANCH  14  19
BRANCH   1  21
ATOM     21  C   UNL     1       1.600  15.815  19.619  0.00  0.00    +0.000 C 
BRANCH  21  22
ATOM     22  O   UNL     1       2.457  16.198  20.694  0.00  0.00    +0.000 OA
ATOM     23  H   UNL     1       3.124  16.800  20.320  0.00  0.00    +0.000 HD
ENDBRANCH  21  22
ENDBRANCH   1  21
BRANCH   9  24
ATOM     24  C   UNL     1       2.600   8.517  17.997  0.00  0.00    +0.000 C 
BRANCH  24  25
ATOM     25  C   UNL     1       2.428   7.152  18.625  0.00  0.00    +0.000 A 
ATOM     26  C   UNL     1       2.512   5.990  17.844  0.00  0.00    +0.000 A 
ATOM     27  C   UNL     1       2.198   4.744  18.393  0.00  0.00    +0.000 A 
ATOM     28  C   UNL     1       1.793   4.638  19.730  0.00  0.00    +0.000 A 
ATOM     29  C   UNL     1       1.784   5.791  20.529  0.00  0.00    +0.000 A 
ATOM     30  C   UNL     1       2.098   7.036  19.980  0.00  0.00    +0.000 A 
BRANCH  28  31
ATOM     31  C   UNL     1       1.315   3.325  20.301  0.00  0.00    +0.000 C 
ATOM     32  F   UNL     1       1.090   3.363  21.645  0.00  0.00    +0.000 F 
ATOM     33  F   UNL     1       0.150   2.898  19.739  0.00  0.00    +0.000 F 
ATOM     34  F   UNL     1       2.214   2.319  20.106  0.00  0.00    +0.000 F 
ENDBRANCH  28  31
ENDBRANCH  24  25
ENDBRANCH   9  24
TORSDOF 8
ENDMDL
MODEL 7
REMARK VINA RESULT:      -7.4      1.668      2.536
REMARK  Name = 
REMARK  8 active torsions:
REMARK  status: ('A' for Active; 'I' for Inactive)
REMARK    1  A    between atoms: O_1  and  C_2
REMARK    2  A    between atoms: C_2  and  C_3
REMARK    3  A    between atoms: C_11  and  C_12
REMARK    4  A    between atoms: C_12  and  C_13
REMARK    5  A    between atoms: C_16  and  C_17
REMARK    6  A    between atoms: C_25  and  O_26
REMARK    7  A    between atoms: C_27  and  O_28
REMARK    8  A    between atoms: C_29  and  O_30
REMARK                            x       y       z     vdW  Elec       q    Type
REMARK                         _______ _______ _______ _____ _____    ______ ____
ROOT
ATOM      1  C   UNL     1       6.873   4.793  18.663  0.00  0.00    +0.000 C 
ATOM      2  O   UNL     1       5.750   5.452  19.271  0.00  0.00    +0.000 OA
ATOM      3  C   UNL     1       4.485   4.988  18.797  0.00  0.00    +0.000 C 
ATOM      4  O   UNL     1       4.319   3.578  19.117  0.00  0.00    +0.000 OA
ATOM      5  C   UNL     1       3.104   3.377  19.870  0.00  0.00    +0.000 C 
ATOM      6  C   UNL     1       2.578   4.731  20.151  0.00  0.00    +0.000 A 
ATOM      7  C   UNL     1       1.441   5.089  20.854  0.00  0.00    +0.000 A 
ATOM      8  C   UNL     1       1.144   6.448  20.987  0.00  0.00    +0.000 A 
ATOM      9  C   UNL     1       1.987   7.434  20.439  0.00  0.00    +0.000 A 
ATOM     10  C   UNL     1       3.126   7.038  19.710  0.00  0.00    +0.000 A 
ATOM     11  C   UNL     1       3.399   5.681  19.565  0.00  0.00    +0.000 A 
ATOM     12  C   UNL     1       4.349   5.172  17.260  0.00  0.00    +0.000 C 
ATOM     13  C   UNL     1       5.510   4.423  16.582  0.00  0.00    +0.000 C 
ATOM     14  C   UNL     1       6.854   4.923  17.132  0.00  0.00    +0.000 C 
ENDROOT
BRANCH  12  15
ATOM     15  O   UNL     1       3.096   4.681  16.751  0.00  0.00    +0.000 OA
ATOM     16  H   UNL     1       3.232   3.752  16.492  0.00  0.00    +0.000 HD
ENDBRANCH  12  15
BRANCH  13  17
ATOM     17  O   UNL     1       5.459   4.554  15.154  0.00  0.00    +0.000 OA
ATOM     18  H   UNL     1       5.307   3.673  14.769  0.00  0.00    +0.000 HD
ENDBRANCH  13  17
BRANCH  14  19
ATOM     19  O   UNL     1       7.938   4.194  16.542  0.00  0.00    +0.000 OA
ATOM     20  H   UNL     1       8.611   4.829  16.240  0.00  0.00    +0.000 HD
ENDBRANCH  14  19
BRANCH   1  21
ATOM     21  C   UNL     1       8.167   5.378  19.250  0.00  0.00    +0.000 C 
BRANCH  21  22
ATOM     22  O   UNL     1       8.087   5.481  20.671  0.00  0.00    +0.000 OA
ATOM     23  H   UNL     1       7.784   6.384  20.869  0.00  0.00    +0.000 HD
ENDBRANCH  21  22
ENDBRANCH   1  21
BRANCH   9  24
ATOM     24  C   UNL     1       1.636   8.904  20.590  0.00  0.00    +0.000 C 
BRANCH  24  25
ATOM     25  C   UNL     1       0.640   9.381  19.555  0.00  0.00    +0.000 A 
ATOM     26  C   UNL     1      -0.528  10.052  19.942  0.00  0.00    +0.000 A 
ATOM     27  C   UNL     1      -1.518  10.350  19.002  0.00  0.00    +0.000 A 
ATOM     28  C   UNL     1      -1.358   9.981  17.660  0.00  0.00    +0.000 A 
ATOM     29  C   UNL     1      -0.156   9.378  17.262  0.00  0.00    +0.000 A 
ATOM     30  C   UNL     1       0.833   9.080  18.201  0.00  0.00    +0.000 A 
BRANCH  28  31
ATOM     31  C   UNL     1      -2.473  10.166  16.660  0.00  0.00    +0.000 C 
ATOM     32  F   UNL     1      -3.650   9.595  17.042  0.00  0.00    +0.000 F 
ATOM     33  F   UNL     1      -2.753  11.476  16.417  0.00  0.00    +0.000 F 
ATOM     34  F   UNL     1      -2.175   9.617  15.447  0.00  0.00    +0.000 F 
ENDBRANCH  28  31
ENDBRANCH  24  25
ENDBRANCH   9  24
TORSDOF 8
ENDMDL
MODEL 8
REMARK VINA RESULT:      -7.4      0.966      1.486
REMARK  Name = 
REMARK  8 active torsions:
REMARK  status: ('A' for Active; 'I' for Inactive)
REMARK    1  A    between atoms: O_1  and  C_2
REMARK    2  A    between atoms: C_2  and  C_3
REMARK    3  A    between atoms: C_11  and  C_12
REMARK    4  A    between atoms: C_12  and  C_13
REMARK    5  A    between atoms: C_16  and  C_17
REMARK    6  A    between atoms: C_25  and  O_26
REMARK    7  A    between atoms: C_27  and  O_28
REMARK    8  A    between atoms: C_29  and  O_30
REMARK                            x       y       z     vdW  Elec       q    Type
REMARK                         _______ _______ _______ _____ _____    ______ ____
ROOT
ATOM      1  C   UNL     1       5.720   5.335  18.934  0.00  0.00    +0.000 C 
ATOM      2  O   UNL     1       4.750   6.345  19.261  0.00  0.00    +0.000 OA
ATOM      3  C   UNL     1       3.398   5.894  19.173  0.00  0.00    +0.000 C 
ATOM      4  O   UNL     1       3.167   4.819  20.127  0.00  0.00    +0.000 OA
ATOM      5  C   UNL     1       2.058   5.150  20.992  0.00  0.00    +0.000 C 
ATOM      6  C   UNL     1       1.688   6.541  20.653  0.00  0.00    +0.000 A 
ATOM      7  C   UNL     1       0.694   7.330  21.206  0.00  0.00    +0.000 A 
ATOM      8  C   UNL     1       0.528   8.628  20.714  0.00  0.00    +0.000 A 
ATOM      9  C   UNL     1       1.361   9.133  19.696  0.00  0.00    +0.000 A 
ATOM     10  C   UNL     1       2.349   8.298  19.139  0.00  0.00    +0.000 A 
ATOM     11  C   UNL     1       2.490   7.001  19.621  0.00  0.00    +0.000 A 
ATOM     12  C   UNL     1       3.060   5.377  17.746  0.00  0.00    +0.000 C 
ATOM     13  C   UNL     1       4.050   4.252  17.397  0.00  0.00    +0.000 C 
ATOM     14  C   UNL     1       5.493   4.758  17.527  0.00  0.00    +0.000 C 
ENDROOT
BRANCH  12  15
ATOM     15  O   UNL     1       1.712   4.885  17.639  0.00  0.00    +0.000 OA
ATOM     16  H   UNL     1       1.715   3.963  17.951  0.00  0.00    +0.000 HD
ENDBRANCH  12  15
BRANCH  13  17
ATOM     17  O   UNL     1       3.808   3.727  16.083  0.00  0.00    +0.000 OA
ATOM     18  H   UNL     1       4.556   3.971  15.511  0.00  0.00    +0.000 HD
ENDBRANCH  13  17
BRANCH  14  19
ATOM     19  O   UNL     1       6.422   3.701  17.253  0.00  0.00    +0.000 OA
ATOM     20  H   UNL     1       6.812   3.850  16.373  0.00  0.00    +0.000 HD
ENDBRANCH  14  19
BRANCH   1  21
ATOM     21  C   UNL     1       7.126   5.940  19.062  0.00  0.00    +0.000 C 
BRANCH  21  22
ATOM     22  O   UNL     1       7.762   5.513  20.266  0.00  0.00    +0.000 OA
ATOM     23  H   UNL     1       8.026   4.587  20.130  0.00  0.00    +0.000 HD
ENDBRANCH  21  22
ENDBRANCH   1  21
BRANCH   9  24
ATOM     24  C   UNL     1       1.153  10.545  19.175  0.00  0.00    +0.000 C 
BRANCH  24  25
ATOM     25  C   UNL     1      -0.275  10.810  18.750  0.00  0.00    +0.000 A 
ATOM     26  C   UNL     1      -1.042  11.789  19.395  0.00  0.00    +0.000 A 
ATOM     27  C   UNL     1      -2.403  11.924  19.109  0.00  0.00    +0.000 A 
ATOM     28  C   UNL     1      -3.021  11.081  18.175  0.00  0.00    +0.000 A 
ATOM     29  C   UNL     1      -2.235  10.153  17.477  0.00  0.00    +0.000 A 
ATOM     30  C   UNL     1      -0.874  10.019  17.762  0.00  0.00    +0.000 A 
BRANCH  28  31
ATOM     31  C   UNL     1      -4.514  11.116  17.957  0.00  0.00    +0.000 C 
ATOM     32  F   UNL     1      -4.872  11.455  16.686  0.00  0.00    +0.000 F 
ATOM     33  F   UNL     1      -5.113   9.919  18.208  0.00  0.00    +0.000 F 
ATOM     34  F   UNL     1      -5.133  12.020  18.769  0.00  0.00    +0.000 F 
ENDBRANCH  28  31
ENDBRANCH  24  25
ENDBRANCH   9  24
TORSDOF 8
ENDMDL
MODEL 9
REMARK VINA RESULT:      -7.4      1.033      1.188
REMARK  Name = 
REMARK  8 active torsions:
REMARK  status: ('A' for Active; 'I' for Inactive)
REMARK    1  A    between atoms: O_1  and  C_2
REMARK    2  A    between atoms: C_2  and  C_3
REMARK    3  A    between atoms: C_11  and  C_12
REMARK    4  A    between atoms: C_12  and  C_13
REMARK    5  A    between atoms: C_16  and  C_17
REMARK    6  A    between atoms: C_25  and  O_26
REMARK    7  A    between atoms: C_27  and  O_28
REMARK    8  A    between atoms: C_29  and  O_30
REMARK                            x       y       z     vdW  Elec       q    Type
REMARK                         _______ _______ _______ _____ _____    ______ ____
ROOT
ATOM      1  C   UNL     1       6.188   5.283  18.920  0.00  0.00    +0.000 C 
ATOM      2  O   UNL     1       5.122   6.193  19.239  0.00  0.00    +0.000 OA
ATOM      3  C   UNL     1       3.818   5.642  19.051  0.00  0.00    +0.000 C 
ATOM      4  O   UNL     1       3.626   4.503  19.937  0.00  0.00    +0.000 OA
ATOM      5  C   UNL     1       2.449   4.697  20.751  0.00  0.00    +0.000 C 
ATOM      6  C   UNL     1       1.983   6.071  20.460  0.00  0.00    +0.000 A 
ATOM      7  C   UNL     1       0.899   6.748  20.992  0.00  0.00    +0.000 A 
ATOM      8  C   UNL     1       0.654   8.052  20.556  0.00  0.00    +0.000 A 
ATOM      9  C   UNL     1       1.496   8.676  19.613  0.00  0.00    +0.000 A 
ATOM     10  C   UNL     1       2.578   7.953  19.074  0.00  0.00    +0.000 A 
ATOM     11  C   UNL     1       2.800   6.647  19.500  0.00  0.00    +0.000 A 
ATOM     12  C   UNL     1       3.602   5.176  17.584  0.00  0.00    +0.000 C 
ATOM     13  C   UNL     1       4.699   4.154  17.238  0.00  0.00    +0.000 C 
ATOM     14  C   UNL     1       6.086   4.765  17.477  0.00  0.00    +0.000 C 
ENDROOT
BRANCH  12  15
ATOM     15  O   UNL     1       2.307   4.584  17.375  0.00  0.00    +0.000 OA
ATOM     16  H   UNL     1       1.773   5.224  16.872  0.00  0.00    +0.000 HD
ENDBRANCH  12  15
BRANCH  13  17
ATOM     17  O   UNL     1       4.572   3.681  15.889  0.00  0.00    +0.000 OA
ATOM     18  H   UNL     1       4.593   2.708  15.900  0.00  0.00    +0.000 HD
ENDBRANCH  13  17
BRANCH  14  19
ATOM     19  O   UNL     1       7.112   3.802  17.205  0.00  0.00    +0.000 OA
ATOM     20  H   UNL     1       7.046   3.085  17.861  0.00  0.00    +0.000 HD
ENDBRANCH  14  19
BRANCH   1  21
ATOM     21  C   UNL     1       7.530   5.990  19.159  0.00  0.00    +0.000 C 
BRANCH  21  22
ATOM     22  O   UNL     1       8.096   5.612  20.413  0.00  0.00    +0.000 OA
ATOM     23  H   UNL     1       7.914   6.340  21.034  0.00  0.00    +0.000 HD
ENDBRANCH  21  22
ENDBRANCH   1  21
BRANCH   9  24
ATOM     24  C   UNL     1       1.200  10.092  19.150  0.00  0.00    +0.000 C 
BRANCH  24  25
ATOM     25  C   UNL     1      -0.270  10.327  18.881  0.00  0.00    +0.000 A 
ATOM     26  C   UNL     1      -0.897   9.740  17.773  0.00  0.00    +0.000 A 
ATOM     27  C   UNL     1      -2.209  10.084  17.438  0.00  0.00    +0.000 A 
ATOM     28  C   UNL     1      -2.917  11.021  18.203  0.00  0.00    +0.000 A 
ATOM     29  C   UNL     1      -2.314  11.549  19.354  0.00  0.00    +0.000 A 
ATOM     30  C   UNL     1      -1.002  11.205  19.689  0.00  0.00    +0.000 A 
BRANCH  28  31
ATOM     31  C   UNL     1      -4.279  11.510  17.777  0.00  0.00    +0.000 C 
ATOM     32  F   UNL     1      -5.249  10.555  17.849  0.00  0.00    +0.000 F 
ATOM     33  F   UNL     1      -4.725  12.554  18.529  0.00  0.00    +0.000 F 
ATOM     34  F   UNL     1      -4.290  11.949  16.485  0.00  0.00    +0.000 F 
ENDBRANCH  28  31
ENDBRANCH  24  25
ENDBRANCH   9  24
TORSDOF 8
ENDMDL
