MODEL 1
REMARK VINA RESULT:      -5.9      0.000      0.000
REMARK  Name = 
REMARK  14 active torsions:
REMARK  status: ('A' for Active; 'I' for Inactive)
REMARK    1  A    between atoms: P_2  and  O_3
REMARK    2  A    between atoms: P_2  and  O_4
REMARK    3  A    between atoms: P_2  and  O_5
REMARK    4  A    between atoms: O_5  and  C_6
REMARK    5  A    between atoms: C_8  and  O_9
REMARK    6  A    between atoms: C_10  and  O_11
REMARK    7  A    between atoms: O_11  and  P_12
REMARK    8  A    between atoms: P_12  and  O_14
REMARK    9  A    between atoms: P_12  and  O_15
REMARK   10  A    between atoms: C_16  and  O_17
REMARK   11  A    between atoms: C_18  and  O_19
REMARK   12  A    between atoms: O_19  and  P_20
REMARK   13  A    between atoms: P_20  and  O_22
REMARK   14  A    between atoms: P_20  and  O_23
REMARK                            x       y       z     vdW  Elec       q    Type
REMARK                         _______ _______ _______ _____ _____    ______ ____
ROOT
ATOM      1  C   UNL     1       4.561   6.139  17.034  0.00  0.00    +0.000 C 
ATOM      2  C   UNL     1       3.965   6.513  18.386  0.00  0.00    +0.000 C 
ATOM      3  C   UNL     1       2.703   5.732  18.616  0.00  0.00    +0.000 C 
ATOM      4  C   UNL     1       3.016   4.226  18.641  0.00  0.00    +0.000 C 
ATOM      5  C   UNL     1       3.571   3.743  17.290  0.00  0.00    +0.000 C 
ATOM      6  C   UNL     1       4.694   4.632  16.720  0.00  0.00    +0.000 C 
ENDROOT
BRANCH   3   7
ATOM      7  O   UNL     1       1.784   6.062  17.592  0.00  0.00    +0.000 OA
ATOM      8  H   UNL     1       2.265   6.509  16.870  0.00  0.00    +0.000 HD
ENDBRANCH   3   7
BRANCH   5   9
ATOM      9  O   UNL     1       4.080   2.402  17.451  0.00  0.00    +0.000 OA
ATOM     10  H   UNL     1       3.586   1.940  18.147  0.00  0.00    +0.000 HD
ENDBRANCH   5   9
BRANCH   1  11
ATOM     11  O   UNL     1       5.790   6.808  16.770  0.00  0.00    +0.000 OA
BRANCH  11  13
ATOM     12  O   UNL     1       8.297   6.922  18.880  0.00  0.00    +0.000 OA
ATOM     13  P   UNL     1       7.113   6.868  17.884  0.00  0.00    +0.000 P 
BRANCH  13  14
ATOM     14  O   UNL     1       7.806   8.120  17.091  0.00  0.00    +0.000 OA
ATOM     15  H   UNL     1       7.386   8.084  16.206  0.00  0.00    +0.000 HD
ENDBRANCH  13  14
BRANCH  13  16
ATOM     16  O   UNL     1       7.809   5.661  17.035  0.00  0.00    +0.000 OA
ATOM     17  H   UNL     1       7.582   4.819  17.476  0.00  0.00    +0.000 HD
ENDBRANCH  13  16
ENDBRANCH  11  13
ENDBRANCH   1  11
BRANCH   4  18
ATOM     18  O   UNL     1       1.815   3.500  18.959  0.00  0.00    +0.000 OA
BRANCH  18  19
ATOM     19  P   UNL     1       1.887   2.890  20.577  0.00  0.00    +0.000 P 
ATOM     20  O   UNL     1       3.397   2.697  20.493  0.00  0.00    +0.000 OA
BRANCH  19  21
ATOM     21  O   UNL     1       1.630   4.375  21.177  0.00  0.00    +0.000 OA
ATOM     22  H   UNL     1       1.063   4.393  21.961  0.00  0.00    +0.000 HD
ENDBRANCH  19  21
BRANCH  19  23
ATOM     23  O   UNL     1       1.960   2.280  22.194  0.00  0.00    +0.000 OA
ATOM     24  H   UNL     1       1.218   2.765  22.617  0.00  0.00    +0.000 HD
ENDBRANCH  19  23
ENDBRANCH  18  19
ENDBRANCH   4  18
BRANCH   6  25
ATOM     25  O   UNL     1       4.717   4.543  15.283  0.00  0.00    +0.000 OA
BRANCH  25  26
ATOM     26  P   UNL     1       6.029   4.063  14.526  0.00  0.00    +0.000 P 
ATOM     27  O   UNL     1       5.930   3.459  13.173  0.00  0.00    +0.000 OA
BRANCH  26  28
ATOM     28  O   UNL     1       6.956   3.341  15.605  0.00  0.00    +0.000 OA
ATOM     29  H   UNL     1       7.609   2.793  15.127  0.00  0.00    +0.000 HD
ENDBRANCH  26  28
BRANCH  26  30
ATOM     30  O   UNL     1       6.851   5.439  14.437  0.00  0.00    +0.000 OA
ATOM     31  H   UNL     1       7.498   5.376  13.708  0.00  0.00    +0.000 HD
ENDBRANCH  26  30
ENDBRANCH  25  26
ENDBRANCH   6  25
TORSDOF 14
ENDMDL
MODEL 2
REMARK VINA RESULT:      -5.9      1.510      3.699
REMARK  Name = 
REMARK  14 active torsions:
REMARK  status: ('A' for Active; 'I' for Inactive)
REMARK    1  A    between atoms: P_2  and  O_3
REMARK    2  A    between atoms: P_2  and  O_4
REMARK    3  A    between atoms: P_2  and  O_5
REMARK    4  A    between atoms: O_5  and  C_6
REMARK    5  A    between atoms: C_8  and  O_9
REMARK    6  A    between atoms: C_10  and  O_11
REMARK    7  A    between atoms: O_11  and  P_12
REMARK    8  A    between atoms: P_12  and  O_14
REMARK    9  A    between atoms: P_12  and  O_15
REMARK   10  A    between atoms: C_16  and  O_17
REMARK   11  A    between atoms: C_18  and  O_19
REMARK   12  A    between atoms: O_19  and  P_20
REMARK   13  A    between atoms: P_20  and  O_22
REMARK   14  A    between atoms: P_20  and  O_23
REMARK                            x       y       z     vdW  Elec       q    Type
REMARK                         _______ _______ _______ _____ _____    ______ ____
ROOT
ATOM      1  C   UNL     1       5.293   4.125  17.325  0.00  0.00    +0.000 C 
ATOM      2  C   UNL     1       4.085   3.716  16.490  0.00  0.00    +0.000 C 
ATOM      3  C   UNL     1       2.927   3.404  17.394  0.00  0.00    +0.000 C 
ATOM      4  C   UNL     1       2.539   4.657  18.200  0.00  0.00    +0.000 C 
ATOM      5  C   UNL     1       3.685   5.111  19.121  0.00  0.00    +0.000 C 
ATOM      6  C   UNL     1       5.059   5.184  18.424  0.00  0.00    +0.000 C 
ENDROOT
BRANCH   3   7
ATOM      7  O   UNL     1       3.298   2.331  18.238  0.00  0.00    +0.000 OA
ATOM      8  H   UNL     1       3.965   1.785  17.777  0.00  0.00    +0.000 HD
ENDBRANCH   3   7
BRANCH   5   9
ATOM      9  O   UNL     1       3.366   6.416  19.649  0.00  0.00    +0.000 OA
ATOM     10  H   UNL     1       2.666   6.827  19.118  0.00  0.00    +0.000 HD
ENDBRANCH   5   9
BRANCH   1  11
ATOM     11  O   UNL     1       6.417   4.483  16.527  0.00  0.00    +0.000 OA
BRANCH  11  13
ATOM     12  O   UNL     1       6.399   4.499  13.248  0.00  0.00    +0.000 OA
ATOM     13  P   UNL     1       6.407   4.492  14.797  0.00  0.00    +0.000 P 
BRANCH  13  14
ATOM     14  O   UNL     1       7.884   5.192  14.729  0.00  0.00    +0.000 OA
ATOM     15  H   UNL     1       8.365   4.639  14.078  0.00  0.00    +0.000 HD
ENDBRANCH  13  14
BRANCH  13  16
ATOM     16  O   UNL     1       5.520   5.859  14.865  0.00  0.00    +0.000 OA
ATOM     17  H   UNL     1       6.099   6.572  15.197  0.00  0.00    +0.000 HD
ENDBRANCH  13  16
ENDBRANCH  11  13
ENDBRANCH   1  11
BRANCH   4  18
ATOM     18  O   UNL     1       1.370   4.368  18.987  0.00  0.00    +0.000 OA
BRANCH  18  19
ATOM     19  P   UNL     1       1.822   3.857  20.577  0.00  0.00    +0.000 P 
ATOM     20  O   UNL     1       1.404   5.192  21.183  0.00  0.00    +0.000 OA
BRANCH  19  21
ATOM     21  O   UNL     1       0.535   2.874  20.656  0.00  0.00    +0.000 OA
ATOM     22  H   UNL     1      -0.074   3.075  21.382  0.00  0.00    +0.000 HD
ENDBRANCH  19  21
BRANCH  19  23
ATOM     23  O   UNL     1       2.274   3.345  22.167  0.00  0.00    +0.000 OA
ATOM     24  H   UNL     1       2.654   4.172  22.535  0.00  0.00    +0.000 HD
ENDBRANCH  19  23
ENDBRANCH  18  19
ENDBRANCH   4  18
BRANCH   6  25
ATOM     25  O   UNL     1       6.113   4.978  19.383  0.00  0.00    +0.000 OA
BRANCH  25  26
ATOM     26  P   UNL     1       7.570   5.550  19.113  0.00  0.00    +0.000 P 
ATOM     27  O   UNL     1       7.744   6.914  18.551  0.00  0.00    +0.000 OA
BRANCH  26  28
ATOM     28  O   UNL     1       8.432   4.363  18.485  0.00  0.00    +0.000 OA
ATOM     29  H   UNL     1       9.327   4.705  18.296  0.00  0.00    +0.000 HD
ENDBRANCH  26  28
BRANCH  26  30
ATOM     30  O   UNL     1       8.197   5.499  20.591  0.00  0.00    +0.000 OA
ATOM     31  H   UNL     1       8.055   4.609  20.965  0.00  0.00    +0.000 HD
ENDBRANCH  26  30
ENDBRANCH  25  26
ENDBRANCH   6  25
TORSDOF 14
ENDMDL
MODEL 3
REMARK VINA RESULT:      -5.9      2.793      4.399
REMARK  Name = 
REMARK  14 active torsions:
REMARK  status: ('A' for Active; 'I' for Inactive)
REMARK    1  A    between atoms: P_2  and  O_3
REMARK    2  A    between atoms: P_2  and  O_4
REMARK    3  A    between atoms: P_2  and  O_5
REMARK    4  A    between atoms: O_5  and  C_6
REMARK    5  A    between atoms: C_8  and  O_9
REMARK    6  A    between atoms: C_10  and  O_11
REMARK    7  A    between atoms: O_11  and  P_12
REMARK    8  A    between atoms: P_12  and  O_14
REMARK    9  A    between atoms: P_12  and  O_15
REMARK   10  A    between atoms: C_16  and  O_17
REMARK   11  A    between atoms: C_18  and  O_19
REMARK   12  A    between atoms: O_19  and  P_20
REMARK   13  A    between atoms: P_20  and  O_22
REMARK   14  A    between atoms: P_20  and  O_23
REMARK                            x       y       z     vdW  Elec       q    Type
REMARK                         _______ _______ _______ _____ _____    ______ ____
ROOT
ATOM      1  C   UNL     1       3.953   5.888  17.838  0.00  0.00    +0.000 C 
ATOM      2  C   UNL     1       3.846   7.406  17.929  0.00  0.00    +0.000 C 
ATOM      3  C   UNL     1       2.485   7.788  18.438  0.00  0.00    +0.000 C 
ATOM      4  C   UNL     1       2.275   7.215  19.852  0.00  0.00    +0.000 C 
ATOM      5  C   UNL     1       2.310   5.677  19.847  0.00  0.00    +0.000 C 
ATOM      6  C   UNL     1       3.500   5.078  19.073  0.00  0.00    +0.000 C 
ENDROOT
BRANCH   3   7
ATOM      7  O   UNL     1       1.518   7.304  17.526  0.00  0.00    +0.000 OA
ATOM      8  H   UNL     1       1.876   7.374  16.620  0.00  0.00    +0.000 HD
ENDBRANCH   3   7
BRANCH   5   9
ATOM      9  O   UNL     1       2.365   5.212  21.212  0.00  0.00    +0.000 OA
ATOM     10  H   UNL     1       2.364   4.241  21.233  0.00  0.00    +0.000 HD
ENDBRANCH   5   9
BRANCH   1  11
ATOM     11  O   UNL     1       5.239   5.453  17.407  0.00  0.00    +0.000 OA
BRANCH  11  13
ATOM     12  O   UNL     1       8.058   6.722  18.498  0.00  0.00    +0.000 OA
ATOM     13  P   UNL     1       6.727   6.123  17.983  0.00  0.00    +0.000 P 
BRANCH  13  14
ATOM     14  O   UNL     1       7.345   6.211  16.470  0.00  0.00    +0.000 OA
ATOM     15  H   UNL     1       6.862   5.506  15.990  0.00  0.00    +0.000 HD
ENDBRANCH  13  14
BRANCH  13  16
ATOM     16  O   UNL     1       7.211   4.603  18.328  0.00  0.00    +0.000 OA
ATOM     17  H   UNL     1       7.844   4.655  19.070  0.00  0.00    +0.000 HD
ENDBRANCH  13  16
ENDBRANCH  11  13
ENDBRANCH   1  11
BRANCH   4  18
ATOM     18  O   UNL     1       1.009   7.671  20.361  0.00  0.00    +0.000 OA
BRANCH  18  19
ATOM     19  P   UNL     1       1.142   9.293  20.948  0.00  0.00    +0.000 P 
ATOM     20  O   UNL     1      -0.344   9.351  21.282  0.00  0.00    +0.000 OA
BRANCH  19  21
ATOM     21  O   UNL     1       1.909   8.777  22.280  0.00  0.00    +0.000 OA
ATOM     22  H   UNL     1       2.733   9.249  22.472  0.00  0.00    +0.000 HD
ENDBRANCH  19  21
BRANCH  19  23
ATOM     23  O   UNL     1       1.275  10.916  21.535  0.00  0.00    +0.000 OA
ATOM     24  H   UNL     1       2.208  11.126  21.311  0.00  0.00    +0.000 HD
ENDBRANCH  19  23
ENDBRANCH  18  19
ENDBRANCH   4  18
BRANCH   6  25
ATOM     25  O   UNL     1       3.159   3.774  18.569  0.00  0.00    +0.000 OA
BRANCH  25  26
ATOM     26  P   UNL     1       3.797   2.469  19.214  0.00  0.00    +0.000 P 
ATOM     27  O   UNL     1       3.742   1.175  18.487  0.00  0.00    +0.000 OA
BRANCH  26  28
ATOM     28  O   UNL     1       3.416   2.476  20.763  0.00  0.00    +0.000 OA
ATOM     29  H   UNL     1       3.721   3.322  21.146  0.00  0.00    +0.000 HD
ENDBRANCH  26  28
BRANCH  26  30
ATOM     30  O   UNL     1       5.328   2.925  19.376  0.00  0.00    +0.000 OA
ATOM     31  H   UNL     1       5.859   2.509  18.669  0.00  0.00    +0.000 HD
ENDBRANCH  26  30
ENDBRANCH  25  26
ENDBRANCH   6  25
TORSDOF 14
ENDMDL
MODEL 4
REMARK VINA RESULT:      -5.9      1.190      3.693
REMARK  Name = 
REMARK  14 active torsions:
REMARK  status: ('A' for Active; 'I' for Inactive)
REMARK    1  A    between atoms: P_2  and  O_3
REMARK    2  A    between atoms: P_2  and  O_4
REMARK    3  A    between atoms: P_2  and  O_5
REMARK    4  A    between atoms: O_5  and  C_6
REMARK    5  A    between atoms: C_8  and  O_9
REMARK    6  A    between atoms: C_10  and  O_11
REMARK    7  A    between atoms: O_11  and  P_12
REMARK    8  A    between atoms: P_12  and  O_14
REMARK    9  A    between atoms: P_12  and  O_15
REMARK   10  A    between atoms: C_16  and  O_17
REMARK   11  A    between atoms: C_18  and  O_19
REMARK   12  A    between atoms: O_19  and  P_20
REMARK   13  A    between atoms: P_20  and  O_22
REMARK   14  A    between atoms: P_20  and  O_23
REMARK                            x       y       z     vdW  Elec       q    Type
REMARK                         _______ _______ _______ _____ _____    ______ ____
ROOT
ATOM      1  C   UNL     1       5.050   5.058  16.453  0.00  0.00    +0.000 C 
ATOM      2  C   UNL     1       4.382   3.731  16.791  0.00  0.00    +0.000 C 
ATOM      3  C   UNL     1       4.324   3.558  18.282  0.00  0.00    +0.000 C 
ATOM      4  C   UNL     1       3.479   4.683  18.907  0.00  0.00    +0.000 C 
ATOM      5  C   UNL     1       4.112   6.064  18.665  0.00  0.00    +0.000 C 
ATOM      6  C   UNL     1       4.544   6.309  17.205  0.00  0.00    +0.000 C 
ENDROOT
BRANCH   3   7
ATOM      7  O   UNL     1       5.648   3.557  18.781  0.00  0.00    +0.000 OA
ATOM      8  H   UNL     1       5.978   2.638  18.795  0.00  0.00    +0.000 HD
ENDBRANCH   3   7
BRANCH   5   9
ATOM      9  O   UNL     1       3.160   7.082  19.041  0.00  0.00    +0.000 OA
ATOM     10  H   UNL     1       3.212   7.248  19.996  0.00  0.00    +0.000 HD
ENDBRANCH   5   9
BRANCH   1  11
ATOM     11  O   UNL     1       5.095   5.310  15.052  0.00  0.00    +0.000 OA
BRANCH  11  13
ATOM     12  O   UNL     1       6.605   3.358  12.894  0.00  0.00    +0.000 OA
ATOM     13  P   UNL     1       5.892   4.280  13.913  0.00  0.00    +0.000 P 
BRANCH  13  14
ATOM     14  O   UNL     1       6.694   3.486  15.097  0.00  0.00    +0.000 OA
ATOM     15  H   UNL     1       6.268   2.603  15.103  0.00  0.00    +0.000 HD
ENDBRANCH  13  14
BRANCH  13  16
ATOM     16  O   UNL     1       6.977   5.475  13.677  0.00  0.00    +0.000 OA
ATOM     17  H   UNL     1       6.728   6.221  14.256  0.00  0.00    +0.000 HD
ENDBRANCH  13  16
ENDBRANCH  11  13
ENDBRANCH   1  11
BRANCH   4  18
ATOM     18  O   UNL     1       3.354   4.448  20.321  0.00  0.00    +0.000 OA
BRANCH  18  19
ATOM     19  P   UNL     1       1.897   3.579  20.663  0.00  0.00    +0.000 P 
ATOM     20  O   UNL     1       2.317   3.338  22.109  0.00  0.00    +0.000 OA
BRANCH  19  21
ATOM     21  O   UNL     1       1.039   4.956  20.640  0.00  0.00    +0.000 OA
ATOM     22  H   UNL     1       1.475   5.688  20.181  0.00  0.00    +0.000 HD
ENDBRANCH  19  21
BRANCH  19  23
ATOM     23  O   UNL     1       0.440   2.711  21.005  0.00  0.00    +0.000 OA
ATOM     24  H   UNL     1       0.067   3.242  21.742  0.00  0.00    +0.000 HD
ENDBRANCH  19  23
ENDBRANCH  18  19
ENDBRANCH   4  18
BRANCH   6  25
ATOM     25  O   UNL     1       5.635   7.247  17.162  0.00  0.00    +0.000 OA
BRANCH  25  26
ATOM     26  P   UNL     1       7.092   6.812  17.621  0.00  0.00    +0.000 P 
ATOM     27  O   UNL     1       7.264   5.766  18.661  0.00  0.00    +0.000 OA
BRANCH  26  28
ATOM     28  O   UNL     1       7.963   8.142  17.743  0.00  0.00    +0.000 OA
ATOM     29  H   UNL     1       7.642   8.646  18.516  0.00  0.00    +0.000 HD
ENDBRANCH  26  28
BRANCH  26  30
ATOM     30  O   UNL     1       7.707   6.289  16.233  0.00  0.00    +0.000 OA
ATOM     31  H   UNL     1       7.588   6.980  15.553  0.00  0.00    +0.000 HD
ENDBRANCH  26  30
ENDBRANCH  25  26
ENDBRANCH   6  25
TORSDOF 14
ENDMDL
MODEL 5
REMARK VINA RESULT:      -5.9      1.048      1.325
REMARK  Name = 
REMARK  14 active torsions:
REMARK  status: ('A' for Active; 'I' for Inactive)
REMARK    1  A    between atoms: P_2  and  O_3
REMARK    2  A    between atoms: P_2  and  O_4
REMARK    3  A    between atoms: P_2  and  O_5
REMARK    4  A    between atoms: O_5  and  C_6
REMARK    5  A    between atoms: C_8  and  O_9
REMARK    6  A    between atoms: C_10  and  O_11
REMARK    7  A    between atoms: O_11  and  P_12
REMARK    8  A    between atoms: P_12  and  O_14
REMARK    9  A    between atoms: P_12  and  O_15
REMARK   10  A    between atoms: C_16  and  O_17
REMARK   11  A    between atoms: C_18  and  O_19
REMARK   12  A    between atoms: O_19  and  P_20
REMARK   13  A    between atoms: P_20  and  O_22
REMARK   14  A    between atoms: P_20  and  O_23
REMARK                            x       y       z     vdW  Elec       q    Type
REMARK                         _______ _______ _______ _____ _____    ______ ____
ROOT
ATOM      1  C   UNL     1       5.002   6.280  17.761  0.00  0.00    +0.000 C 
ATOM      2  C   UNL     1       4.312   6.459  19.108  0.00  0.00    +0.000 C 
ATOM      3  C   UNL     1       2.869   6.060  18.994  0.00  0.00    +0.000 C 
ATOM      4  C   UNL     1       2.764   4.575  18.606  0.00  0.00    +0.000 C 
ATOM      5  C   UNL     1       3.388   4.308  17.225  0.00  0.00    +0.000 C 
ATOM      6  C   UNL     1       4.784   4.935  17.035  0.00  0.00    +0.000 C 
ENDROOT
BRANCH   3   7
ATOM      7  O   UNL     1       2.251   6.898  18.036  0.00  0.00    +0.000 OA
ATOM      8  H   UNL     1       2.169   6.408  17.195  0.00  0.00    +0.000 HD
ENDBRANCH   3   7
BRANCH   5   9
ATOM      9  O   UNL     1       3.492   2.882  17.031  0.00  0.00    +0.000 OA
ATOM     10  H   UNL     1       3.104   2.633  16.177  0.00  0.00    +0.000 HD
ENDBRANCH   5   9
BRANCH   1  11
ATOM     11  O   UNL     1       6.391   6.595  17.809  0.00  0.00    +0.000 OA
BRANCH  11  13
ATOM     12  O   UNL     1       8.515   5.179  19.867  0.00  0.00    +0.000 OA
ATOM     13  P   UNL     1       7.512   5.847  18.895  0.00  0.00    +0.000 P 
BRANCH  13  14
ATOM     14  O   UNL     1       8.536   7.122  18.815  0.00  0.00    +0.000 OA
ATOM     15  H   UNL     1       8.225   7.703  19.540  0.00  0.00    +0.000 HD
ENDBRANCH  13  14
BRANCH  13  16
ATOM     16  O   UNL     1       8.102   5.014  17.622  0.00  0.00    +0.000 OA
ATOM     17  H   UNL     1       8.720   4.342  17.969  0.00  0.00    +0.000 HD
ENDBRANCH  13  16
ENDBRANCH  11  13
ENDBRANCH   1  11
BRANCH   4  18
ATOM     18  O   UNL     1       1.379   4.186  18.596  0.00  0.00    +0.000 OA
BRANCH  18  19
ATOM     19  P   UNL     1       0.985   3.316  20.039  0.00  0.00    +0.000 P 
ATOM     20  O   UNL     1       0.177   2.284  19.260  0.00  0.00    +0.000 OA
BRANCH  19  21
ATOM     21  O   UNL     1       2.502   2.752  20.145  0.00  0.00    +0.000 OA
ATOM     22  H   UNL     1       2.817   2.628  21.052  0.00  0.00    +0.000 HD
ENDBRANCH  19  21
BRANCH  19  23
ATOM     23  O   UNL     1       0.591   2.446  21.482  0.00  0.00    +0.000 OA
ATOM     24  H   UNL     1       1.228   2.835  22.122  0.00  0.00    +0.000 HD
ENDBRANCH  19  23
ENDBRANCH  18  19
ENDBRANCH   4  18
BRANCH   6  25
ATOM     25  O   UNL     1       5.019   5.210  15.642  0.00  0.00    +0.000 OA
BRANCH  25  26
ATOM     26  P   UNL     1       6.010   4.301  14.797  0.00  0.00    +0.000 P 
ATOM     27  O   UNL     1       5.705   3.984  13.378  0.00  0.00    +0.000 OA
BRANCH  26  28
ATOM     28  O   UNL     1       6.482   3.110  15.748  0.00  0.00    +0.000 OA
ATOM     29  H   UNL     1       6.556   3.459  16.657  0.00  0.00    +0.000 HD
ENDBRANCH  26  28
BRANCH  26  30
ATOM     30  O   UNL     1       7.359   5.170  14.870  0.00  0.00    +0.000 OA
ATOM     31  H   UNL     1       7.808   5.132  14.003  0.00  0.00    +0.000 HD
ENDBRANCH  26  30
ENDBRANCH  25  26
ENDBRANCH   6  25
TORSDOF 14
ENDMDL
MODEL 6
REMARK VINA RESULT:      -5.8      1.329      3.647
REMARK  Name = 
REMARK  14 active torsions:
REMARK  status: ('A' for Active; 'I' for Inactive)
REMARK    1  A    between atoms: P_2  and  O_3
REMARK    2  A    between atoms: P_2  and  O_4
REMARK    3  A    between atoms: P_2  and  O_5
REMARK    4  A    between atoms: O_5  and  C_6
REMARK    5  A    between atoms: C_8  and  O_9
REMARK    6  A    between atoms: C_10  and  O_11
REMARK    7  A    between atoms: O_11  and  P_12
REMARK    8  A    between atoms: P_12  and  O_14
REMARK    9  A    between atoms: P_12  and  O_15
REMARK   10  A    between atoms: C_16  and  O_17
REMARK   11  A    between atoms: C_18  and  O_19
REMARK   12  A    between atoms: O_19  and  P_20
REMARK   13  A    between atoms: P_20  and  O_22
REMARK   14  A    between atoms: P_20  and  O_23
REMARK                            x       y       z     vdW  Elec       q    Type
REMARK                         _______ _______ _______ _____ _____    ______ ____
ROOT
ATOM      1  C   UNL     1       5.087   4.856  16.890  0.00  0.00    +0.000 C 
ATOM      2  C   UNL     1       4.082   3.710  16.890  0.00  0.00    +0.000 C 
ATOM      3  C   UNL     1       3.830   3.257  18.300  0.00  0.00    +0.000 C 
ATOM      4  C   UNL     1       3.227   4.411  19.121  0.00  0.00    +0.000 C 
ATOM      5  C   UNL     1       4.202   5.598  19.224  0.00  0.00    +0.000 C 
ATOM      6  C   UNL     1       4.829   6.014  17.879  0.00  0.00    +0.000 C 
ENDROOT
BRANCH   3   7
ATOM      7  O   UNL     1       5.055   2.807  18.847  0.00  0.00    +0.000 OA
ATOM      8  H   UNL     1       5.273   1.939  18.456  0.00  0.00    +0.000 HD
ENDBRANCH   3   7
BRANCH   5   9
ATOM      9  O   UNL     1       3.496   6.730  19.775  0.00  0.00    +0.000 OA
ATOM     10  H   UNL     1       4.023   7.141  20.478  0.00  0.00    +0.000 HD
ENDBRANCH   5   9
BRANCH   1  11
ATOM     11  O   UNL     1       5.336   5.368  15.584  0.00  0.00    +0.000 OA
BRANCH  11  13
ATOM     12  O   UNL     1       6.841   3.674  13.215  0.00  0.00    +0.000 OA
ATOM     13  P   UNL     1       6.130   4.474  14.334  0.00  0.00    +0.000 P 
BRANCH  13  14
ATOM     14  O   UNL     1       6.497   3.250  15.355  0.00  0.00    +0.000 OA
ATOM     15  H   UNL     1       7.413   3.458  15.634  0.00  0.00    +0.000 HD
ENDBRANCH  13  14
BRANCH  13  16
ATOM     16  O   UNL     1       7.456   5.386  14.602  0.00  0.00    +0.000 OA
ATOM     17  H   UNL     1       7.709   5.274  15.539  0.00  0.00    +0.000 HD
ENDBRANCH  13  16
ENDBRANCH  11  13
ENDBRANCH   1  11
BRANCH   4  18
ATOM     18  O   UNL     1       2.903   3.933  20.439  0.00  0.00    +0.000 OA
BRANCH  18  19
ATOM     19  P   UNL     1       1.434   3.019  20.406  0.00  0.00    +0.000 P 
ATOM     20  O   UNL     1       1.605   2.593  21.860  0.00  0.00    +0.000 OA
BRANCH  19  21
ATOM     21  O   UNL     1       0.555   4.382  20.409  0.00  0.00    +0.000 OA
ATOM     22  H   UNL     1       0.556   4.853  21.255  0.00  0.00    +0.000 HD
ENDBRANCH  19  21
BRANCH  19  23
ATOM     23  O   UNL     1      -0.034   2.105  20.373  0.00  0.00    +0.000 OA
ATOM     24  H   UNL     1       0.026   1.613  21.221  0.00  0.00    +0.000 HD
ENDBRANCH  19  23
ENDBRANCH  18  19
ENDBRANCH   4  18
BRANCH   6  25
ATOM     25  O   UNL     1       6.115   6.622  18.098  0.00  0.00    +0.000 OA
BRANCH  25  26
ATOM     26  P   UNL     1       7.362   5.737  18.531  0.00  0.00    +0.000 P 
ATOM     27  O   UNL     1       7.966   4.779  17.570  0.00  0.00    +0.000 OA
BRANCH  26  28
ATOM     28  O   UNL     1       7.087   5.235  20.020  0.00  0.00    +0.000 OA
ATOM     29  H   UNL     1       7.749   5.648  20.606  0.00  0.00    +0.000 HD
ENDBRANCH  26  28
BRANCH  26  30
ATOM     30  O   UNL     1       8.434   6.876  18.893  0.00  0.00    +0.000 OA
ATOM     31  H   UNL     1       7.959   7.681  19.176  0.00  0.00    +0.000 HD
ENDBRANCH  26  30
ENDBRANCH  25  26
ENDBRANCH   6  25
TORSDOF 14
ENDMDL
MODEL 7
REMARK VINA RESULT:      -5.8      2.821      4.689
REMARK  Name = 
REMARK  14 active torsions:
REMARK  status: ('A' for Active; 'I' for Inactive)
REMARK    1  A    between atoms: P_2  and  O_3
REMARK    2  A    between atoms: P_2  and  O_4
REMARK    3  A    between atoms: P_2  and  O_5
REMARK    4  A    between atoms: O_5  and  C_6
REMARK    5  A    between atoms: C_8  and  O_9
REMARK    6  A    between atoms: C_10  and  O_11
REMARK    7  A    between atoms: O_11  and  P_12
REMARK    8  A    between atoms: P_12  and  O_14
REMARK    9  A    between atoms: P_12  and  O_15
REMARK   10  A    between atoms: C_16  and  O_17
REMARK   11  A    between atoms: C_18  and  O_19
REMARK   12  A    between atoms: O_19  and  P_20
REMARK   13  A    between atoms: P_20  and  O_22
REMARK   14  A    between atoms: P_20  and  O_23
REMARK                            x       y       z     vdW  Elec       q    Type
REMARK                         _______ _______ _______ _____ _____    ______ ____
ROOT
ATOM      1  C   UNL     1       3.982   5.921  17.870  0.00  0.00    +0.000 C 
ATOM      2  C   UNL     1       3.854   7.437  17.963  0.00  0.00    +0.000 C 
ATOM      3  C   UNL     1       2.482   7.799  18.456  0.00  0.00    +0.000 C 
ATOM      4  C   UNL     1       2.262   7.222  19.865  0.00  0.00    +0.000 C 
ATOM      5  C   UNL     1       2.317   5.684  19.859  0.00  0.00    +0.000 C 
ATOM      6  C   UNL     1       3.525   5.103  19.098  0.00  0.00    +0.000 C 
ENDROOT
BRANCH   3   7
ATOM      7  O   UNL     1       1.532   7.304  17.531  0.00  0.00    +0.000 OA
ATOM      8  H   UNL     1       1.278   8.027  16.924  0.00  0.00    +0.000 HD
ENDBRANCH   3   7
BRANCH   5   9
ATOM      9  O   UNL     1       2.362   5.217  21.223  0.00  0.00    +0.000 OA
ATOM     10  H   UNL     1       2.809   5.870  21.784  0.00  0.00    +0.000 HD
ENDBRANCH   5   9
BRANCH   1  11
ATOM     11  O   UNL     1       5.279   5.503  17.454  0.00  0.00    +0.000 OA
BRANCH  11  13
ATOM     12  O   UNL     1       5.957   4.372  14.453  0.00  0.00    +0.000 OA
ATOM     13  P   UNL     1       5.637   4.907  15.870  0.00  0.00    +0.000 P 
BRANCH  13  14
ATOM     14  O   UNL     1       5.597   3.352  16.379  0.00  0.00    +0.000 OA
ATOM     15  H   UNL     1       6.545   3.100  16.403  0.00  0.00    +0.000 HD
ENDBRANCH  13  14
BRANCH  13  16
ATOM     16  O   UNL     1       7.213   5.196  16.179  0.00  0.00    +0.000 OA
ATOM     17  H   UNL     1       7.641   4.339  16.367  0.00  0.00    +0.000 HD
ENDBRANCH  13  16
ENDBRANCH  11  13
ENDBRANCH   1  11
BRANCH   4  18
ATOM     18  O   UNL     1       0.984   7.659  20.360  0.00  0.00    +0.000 OA
BRANCH  18  19
ATOM     19  P   UNL     1       1.093   9.274  20.972  0.00  0.00    +0.000 P 
ATOM     20  O   UNL     1      -0.385   9.288  21.348  0.00  0.00    +0.000 OA
BRANCH  19  21
ATOM     21  O   UNL     1       1.910   8.754  22.273  0.00  0.00    +0.000 OA
ATOM     22  H   UNL     1       1.619   7.893  22.607  0.00  0.00    +0.000 HD
ENDBRANCH  19  21
BRANCH  19  23
ATOM     23  O   UNL     1       1.202  10.889  21.584  0.00  0.00    +0.000 OA
ATOM     24  H   UNL     1       0.277  11.199  21.476  0.00  0.00    +0.000 HD
ENDBRANCH  19  23
ENDBRANCH  18  19
ENDBRANCH   4  18
BRANCH   6  25
ATOM     25  O   UNL     1       3.208   3.794  18.588  0.00  0.00    +0.000 OA
BRANCH  25  26
ATOM     26  P   UNL     1       3.859   2.498  19.234  0.00  0.00    +0.000 P 
ATOM     27  O   UNL     1       3.777   1.192  18.530  0.00  0.00    +0.000 OA
BRANCH  26  28
ATOM     28  O   UNL     1       3.528   2.532  20.794  0.00  0.00    +0.000 OA
ATOM     29  H   UNL     1       3.646   3.449  21.109  0.00  0.00    +0.000 HD
ENDBRANCH  26  28
BRANCH  26  30
ATOM     30  O   UNL     1       5.397   2.949  19.340  0.00  0.00    +0.000 OA
ATOM     31  H   UNL     1       5.480   3.634  20.031  0.00  0.00    +0.000 HD
ENDBRANCH  26  30
ENDBRANCH  25  26
ENDBRANCH   6  25
TORSDOF 14
ENDMDL
MODEL 8
REMARK VINA RESULT:      -5.8      1.332      3.714
REMARK  Name = 
REMARK  14 active torsions:
REMARK  status: ('A' for Active; 'I' for Inactive)
REMARK    1  A    between atoms: P_2  and  O_3
REMARK    2  A    between atoms: P_2  and  O_4
REMARK    3  A    between atoms: P_2  and  O_5
REMARK    4  A    between atoms: O_5  and  C_6
REMARK    5  A    between atoms: C_8  and  O_9
REMARK    6  A    between atoms: C_10  and  O_11
REMARK    7  A    between atoms: O_11  and  P_12
REMARK    8  A    between atoms: P_12  and  O_14
REMARK    9  A    between atoms: P_12  and  O_15
REMARK   10  A    between atoms: C_16  and  O_17
REMARK   11  A    between atoms: C_18  and  O_19
REMARK   12  A    between atoms: O_19  and  P_20
REMARK   13  A    between atoms: P_20  and  O_22
REMARK   14  A    between atoms: P_20  and  O_23
REMARK                            x       y       z     vdW  Elec       q    Type
REMARK                         _______ _______ _______ _____ _____    ______ ____
ROOT
ATOM      1  C   UNL     1       5.207   5.176  16.334  0.00  0.00    +0.000 C 
ATOM      2  C   UNL     1       4.156   4.096  16.109  0.00  0.00    +0.000 C 
ATOM      3  C   UNL     1       3.622   3.626  17.432  0.00  0.00    +0.000 C 
ATOM      4  C   UNL     1       2.944   4.796  18.168  0.00  0.00    +0.000 C 
ATOM      5  C   UNL     1       3.948   5.916  18.490  0.00  0.00    +0.000 C 
ATOM      6  C   UNL     1       4.837   6.324  17.298  0.00  0.00    +0.000 C 
ENDROOT
BRANCH   3   7
ATOM      7  O   UNL     1       4.696   3.087  18.178  0.00  0.00    +0.000 OA
ATOM      8  H   UNL     1       5.536   3.376  17.774  0.00  0.00    +0.000 HD
ENDBRANCH   3   7
BRANCH   5   9
ATOM      9  O   UNL     1       3.218   7.077  18.940  0.00  0.00    +0.000 OA
ATOM     10  H   UNL     1       2.526   6.812  19.568  0.00  0.00    +0.000 HD
ENDBRANCH   5   9
BRANCH   1  11
ATOM     11  O   UNL     1       5.724   5.704  15.115  0.00  0.00    +0.000 OA
BRANCH  11  13
ATOM     12  O   UNL     1       6.977   3.857  12.713  0.00  0.00    +0.000 OA
ATOM     13  P   UNL     1       6.385   4.729  13.847  0.00  0.00    +0.000 P 
BRANCH  13  14
ATOM     14  O   UNL     1       6.658   3.478  14.866  0.00  0.00    +0.000 OA
ATOM     15  H   UNL     1       5.756   3.223  15.154  0.00  0.00    +0.000 HD
ENDBRANCH  13  14
BRANCH  13  16
ATOM     16  O   UNL     1       7.804   5.505  14.069  0.00  0.00    +0.000 OA
ATOM     17  H   UNL     1       8.433   4.867  14.458  0.00  0.00    +0.000 HD
ENDBRANCH  13  16
ENDBRANCH  11  13
ENDBRANCH   1  11
BRANCH   4  18
ATOM     18  O   UNL     1       2.354   4.308  19.386  0.00  0.00    +0.000 OA
BRANCH  18  19
ATOM     19  P   UNL     1       1.296   2.979  19.055  0.00  0.00    +0.000 P 
ATOM     20  O   UNL     1       2.265   1.982  19.681  0.00  0.00    +0.000 OA
BRANCH  19  21
ATOM     21  O   UNL     1       0.284   3.459  20.227  0.00  0.00    +0.000 OA
ATOM     22  H   UNL     1      -0.234   4.247  20.008  0.00  0.00    +0.000 HD
ENDBRANCH  19  21
BRANCH  19  23
ATOM     23  O   UNL     1       0.238   1.651  18.724  0.00  0.00    +0.000 OA
ATOM     24  H   UNL     1       0.102   1.748  17.756  0.00  0.00    +0.000 HD
ENDBRANCH  19  23
ENDBRANCH  18  19
ENDBRANCH   4  18
BRANCH   6  25
ATOM     25  O   UNL     1       6.092   6.846  17.771  0.00  0.00    +0.000 OA
BRANCH  25  26
ATOM     26  P   UNL     1       7.145   5.891  18.482  0.00  0.00    +0.000 P 
ATOM     27  O   UNL     1       6.680   4.822  19.402  0.00  0.00    +0.000 OA
BRANCH  26  28
ATOM     28  O   UNL     1       8.368   6.804  18.947  0.00  0.00    +0.000 OA
ATOM     29  H   UNL     1       8.709   7.277  18.164  0.00  0.00    +0.000 HD
ENDBRANCH  26  28
BRANCH  26  30
ATOM     30  O   UNL     1       7.860   5.223  17.208  0.00  0.00    +0.000 OA
ATOM     31  H   UNL     1       8.748   5.615  17.101  0.00  0.00    +0.000 HD
ENDBRANCH  26  30
ENDBRANCH  25  26
ENDBRANCH   6  25
TORSDOF 14
ENDMDL
MODEL 9
REMARK VINA RESULT:      -5.7      0.974      1.416
REMARK  Name = 
REMARK  14 active torsions:
REMARK  status: ('A' for Active; 'I' for Inactive)
REMARK    1  A    between atoms: P_2  and  O_3
REMARK    2  A    between atoms: P_2  and  O_4
REMARK    3  A    between atoms: P_2  and  O_5
REMARK    4  A    between atoms: O_5  and  C_6
REMARK    5  A    between atoms: C_8  and  O_9
REMARK    6  A    between atoms: C_10  and  O_11
REMARK    7  A    between atoms: O_11  and  P_12
REMARK    8  A    between atoms: P_12  and  O_14
REMARK    9  A    between atoms: P_12  and  O_15
REMARK   10  A    between atoms: C_16  and  O_17
REMARK   11  A    between atoms: C_18  and  O_19
REMARK   12  A    between atoms: O_19  and  P_20
REMARK   13  A    between atoms: P_20  and  O_22
REMARK   14  A    between atoms: P_20  and  O_23
REMARK                            x       y       z     vdW  Elec       q    Type
REMARK                         _______ _______ _______ _____ _____    ______ ____
ROOT
ATOM      1  C   UNL     1       5.008   6.224  17.758  0.00  0.00    +0.000 C 
ATOM      2  C   UNL     1       4.344   6.403  19.117  0.00  0.00    +0.000 C 
ATOM      3  C   UNL     1       2.894   6.022  19.026  0.00  0.00    +0.000 C 
ATOM      4  C   UNL     1       2.765   4.540  18.632  0.00  0.00    +0.000 C 
ATOM      5  C   UNL     1       3.362   4.274  17.239  0.00  0.00    +0.000 C 
ATOM      6  C   UNL     1       4.761   4.885  17.028  0.00  0.00    +0.000 C 
ENDROOT
BRANCH   3   7
ATOM      7  O   UNL     1       2.269   6.873  18.084  0.00  0.00    +0.000 OA
ATOM      8  H   UNL     1       2.943   7.468  17.702  0.00  0.00    +0.000 HD
ENDBRANCH   3   7
BRANCH   5   9
ATOM      9  O   UNL     1       3.445   2.848  17.035  0.00  0.00    +0.000 OA
ATOM     10  H   UNL     1       3.936   2.656  16.220  0.00  0.00    +0.000 HD
ENDBRANCH   5   9
BRANCH   1  11
ATOM     11  O   UNL     1       6.401   6.522  17.783  0.00  0.00    +0.000 OA
BRANCH  11  13
ATOM     12  O   UNL     1       8.515   5.196  19.909  0.00  0.00    +0.000 OA
ATOM     13  P   UNL     1       7.516   5.822  18.905  0.00  0.00    +0.000 P 
BRANCH  13  14
ATOM     14  O   UNL     1       8.528   7.104  18.795  0.00  0.00    +0.000 OA
ATOM     15  H   UNL     1       8.875   7.037  17.880  0.00  0.00    +0.000 HD
ENDBRANCH  13  14
BRANCH  13  16
ATOM     16  O   UNL     1       8.130   4.954  17.667  0.00  0.00    +0.000 OA
ATOM     17  H   UNL     1       7.980   4.009  17.864  0.00  0.00    +0.000 HD
ENDBRANCH  13  16
ENDBRANCH  11  13
ENDBRANCH   1  11
BRANCH   4  18
ATOM     18  O   UNL     1       1.376   4.167  18.644  0.00  0.00    +0.000 OA
BRANCH  18  19
ATOM     19  P   UNL     1       0.996   3.296  20.090  0.00  0.00    +0.000 P 
ATOM     20  O   UNL     1       2.272   2.466  19.988  0.00  0.00    +0.000 OA
BRANCH  19  21
ATOM     21  O   UNL     1       1.345   4.595  20.996  0.00  0.00    +0.000 OA
ATOM     22  H   UNL     1       0.818   5.380  20.785  0.00  0.00    +0.000 HD
ENDBRANCH  19  21
BRANCH  19  23
ATOM     23  O   UNL     1       0.617   2.424  21.536  0.00  0.00    +0.000 OA
ATOM     24  H   UNL     1      -0.364   2.408  21.500  0.00  0.00    +0.000 HD
ENDBRANCH  19  23
ENDBRANCH  18  19
ENDBRANCH   4  18
BRANCH   6  25
ATOM     25  O   UNL     1       4.975   5.166  15.632  0.00  0.00    +0.000 OA
BRANCH  25  26
ATOM     26  P   UNL     1       6.194   4.507  14.855  0.00  0.00    +0.000 P 
ATOM     27  O   UNL     1       7.500   5.209  14.785  0.00  0.00    +0.000 OA
BRANCH  26  28
ATOM     28  O   UNL     1       5.608   3.873  13.513  0.00  0.00    +0.000 OA
ATOM     29  H   UNL     1       6.007   4.344  12.756  0.00  0.00    +0.000 HD
ENDBRANCH  26  28
BRANCH  26  30
ATOM     30  O   UNL     1       6.370   3.135  15.671  0.00  0.00    +0.000 OA
ATOM     31  H   UNL     1       5.578   2.580  15.533  0.00  0.00    +0.000 HD
ENDBRANCH  26  30
ENDBRANCH  25  26
ENDBRANCH   6  25
TORSDOF 14
ENDMDL
