MODEL 1
REMARK VINA RESULT:      -7.3      0.000      0.000
REMARK  Name = 
REMARK  13 active torsions:
REMARK  status: ('A' for Active; 'I' for Inactive)
REMARK    1  A    between atoms: O_1  and  C_2
REMARK    2  A    between atoms: C_2  and  C_3
REMARK    3  A    between atoms: C_2  and  C_24
REMARK    4  A    between atoms: C_3  and  N_4
REMARK    5  A    between atoms: N_4  and  C_5
REMARK    6  A    between atoms: C_5  and  C_6
REMARK    7  A    between atoms: C_6  and  C_7
REMARK    8  A    between atoms: C_10  and  N_11
REMARK    9  A    between atoms: N_11  and  C_12
REMARK   10  A    between atoms: C_12  and  N_14
REMARK   11  A    between atoms: N_14  and  C_15
REMARK   12  A    between atoms: C_24  and  O_25
REMARK   13  A    between atoms: O_25  and  C_26
REMARK                            x       y       z     vdW  Elec       q    Type
REMARK                         _______ _______ _______ _____ _____    ______ ____
ROOT
ATOM      1  C   UNL     1       2.219   8.153  18.668  0.00  0.00    +0.000 A 
ATOM      2  C   UNL     1       2.019   9.388  18.045  0.00  0.00    +0.000 A 
ATOM      3  C   UNL     1       1.318  10.404  18.703  0.00  0.00    +0.000 A 
ATOM      4  C   UNL     1       0.771  10.182  19.972  0.00  0.00    +0.000 A 
ATOM      5  C   UNL     1       1.045   8.979  20.613  0.00  0.00    +0.000 A 
ATOM      6  C   UNL     1       1.739   7.965  19.964  0.00  0.00    +0.000 A 
ENDROOT
BRANCH   4   7
ATOM      7  N   UNL     1      -0.086  11.180  20.476  0.00  0.00    +0.000 N 
ATOM      8  H   UNL     1       0.063  11.429  21.446  0.00  0.00    +0.000 HD
BRANCH   7   9
ATOM      9  C   UNL     1      -1.023  11.993  19.841  0.00  0.00    +0.000 C 
ATOM     10  S   UNL     1      -0.989  13.653  19.592  0.00  0.00    +0.000 S 
BRANCH   9  11
ATOM     11  N   UNL     1      -2.145  11.210  19.539  0.00  0.00    +0.000 N 
ATOM     12  H   UNL     1      -2.839  11.213  20.282  0.00  0.00    +0.000 HD
BRANCH  11  13
ATOM     13  C   UNL     1      -2.686  11.029  18.245  0.00  0.00    +0.000 A 
ATOM     14  C   UNL     1      -1.965  10.316  17.278  0.00  0.00    +0.000 A 
ATOM     15  C   UNL     1      -2.482  10.151  15.995  0.00  0.00    +0.000 A 
ATOM     16  C   UNL     1      -3.735  10.671  15.679  0.00  0.00    +0.000 A 
ATOM     17  C   UNL     1      -4.477  11.351  16.647  0.00  0.00    +0.000 A 
ATOM     18  C   UNL     1      -3.958  11.522  17.930  0.00  0.00    +0.000 A 
ATOM     19 CL   UNL     1      -4.890  12.397  19.095  0.00  0.00    +0.000 Cl
ENDBRANCH  11  13
ENDBRANCH   9  11
ENDBRANCH   7   9
ENDBRANCH   4   7
BRANCH   1  20
ATOM     20  C   UNL     1       2.807   6.960  17.970  0.00  0.00    +0.000 C 
BRANCH  20  21
ATOM     21  C   UNL     1       4.038   7.232  17.101  0.00  0.00    +0.000 C 
BRANCH  21  22
ATOM     22  N   UNL     1       4.819   6.014  16.831  0.00  0.00    +0.000 NA
ATOM     23  H   UNL     1       4.450   5.269  17.424  0.00  0.00    +0.000 HD
BRANCH  22  24
ATOM     24  C   UNL     1       6.239   6.206  17.165  0.00  0.00    +0.000 C 
BRANCH  24  25
ATOM     25  C   UNL     1       6.765   5.101  18.088  0.00  0.00    +0.000 C 
BRANCH  25  26
ATOM     26  O   UNL     1       6.826   3.873  17.354  0.00  0.00    +0.000 OA
ATOM     27  H   UNL     1       6.055   3.888  16.761  0.00  0.00    +0.000 HD
ENDBRANCH  25  26
BRANCH  25  28
ATOM     28  C   UNL     1       5.816   4.980  19.285  0.00  0.00    +0.000 C 
BRANCH  28  29
ATOM     29  O   UNL     1       5.204   3.690  19.281  0.00  0.00    +0.000 OA
BRANCH  29  30
ATOM     30  C   UNL     1       3.838   3.713  19.373  0.00  0.00    +0.000 A 
ATOM     31  C   UNL     1       3.160   3.004  18.380  0.00  0.00    +0.000 A 
ATOM     32  C   UNL     1       1.766   2.944  18.387  0.00  0.00    +0.000 A 
ATOM     33  C   UNL     1       1.048   3.580  19.400  0.00  0.00    +0.000 A 
ATOM     34  C   UNL     1       1.722   4.273  20.404  0.00  0.00    +0.000 A 
ATOM     35  C   UNL     1       3.114   4.335  20.392  0.00  0.00    +0.000 A 
ENDBRANCH  29  30
ENDBRANCH  28  29
ENDBRANCH  25  28
ENDBRANCH  24  25
ENDBRANCH  22  24
ENDBRANCH  21  22
ENDBRANCH  20  21
ENDBRANCH   1  20
TORSDOF 13
ENDMDL
MODEL 2
REMARK VINA RESULT:      -7.2      1.464      3.263
REMARK  Name = 
REMARK  13 active torsions:
REMARK  status: ('A' for Active; 'I' for Inactive)
REMARK    1  A    between atoms: O_1  and  C_2
REMARK    2  A    between atoms: C_2  and  C_3
REMARK    3  A    between atoms: C_2  and  C_24
REMARK    4  A    between atoms: C_3  and  N_4
REMARK    5  A    between atoms: N_4  and  C_5
REMARK    6  A    between atoms: C_5  and  C_6
REMARK    7  A    between atoms: C_6  and  C_7
REMARK    8  A    between atoms: C_10  and  N_11
REMARK    9  A    between atoms: N_11  and  C_12
REMARK   10  A    between atoms: C_12  and  N_14
REMARK   11  A    between atoms: N_14  and  C_15
REMARK   12  A    between atoms: C_24  and  O_25
REMARK   13  A    between atoms: O_25  and  C_26
REMARK                            x       y       z     vdW  Elec       q    Type
REMARK                         _______ _______ _______ _____ _____    ______ ____
ROOT
ATOM      1  C   UNL     1       1.917   6.926  20.123  0.00  0.00    +0.000 A 
ATOM      2  C   UNL     1       2.268   7.291  18.821  0.00  0.00    +0.000 A 
ATOM      3  C   UNL     1       2.006   8.584  18.357  0.00  0.00    +0.000 A 
ATOM      4  C   UNL     1       1.350   9.513  19.174  0.00  0.00    +0.000 A 
ATOM      5  C   UNL     1       1.079   9.163  20.493  0.00  0.00    +0.000 A 
ATOM      6  C   UNL     1       1.335   7.879  20.958  0.00  0.00    +0.000 A 
ENDROOT
BRANCH   4   7
ATOM      7  N   UNL     1       0.947  10.718  18.567  0.00  0.00    +0.000 N 
ATOM      8  H   UNL     1       1.467  10.980  17.738  0.00  0.00    +0.000 HD
BRANCH   7   9
ATOM      9  C   UNL     1      -0.136  11.557  18.821  0.00  0.00    +0.000 C 
ATOM     10  S   UNL     1      -0.139  13.182  19.243  0.00  0.00    +0.000 S 
BRANCH   9  11
ATOM     11  N   UNL     1      -1.300  10.779  18.816  0.00  0.00    +0.000 N 
ATOM     12  H   UNL     1      -1.712  10.680  19.741  0.00  0.00    +0.000 HD
BRANCH  11  13
ATOM     13  C   UNL     1      -2.238  10.724  17.759  0.00  0.00    +0.000 A 
ATOM     14  C   UNL     1      -1.982   9.923  16.637  0.00  0.00    +0.000 A 
ATOM     15  C   UNL     1      -2.891   9.880  15.583  0.00  0.00    +0.000 A 
ATOM     16  C   UNL     1      -4.074  10.613  15.653  0.00  0.00    +0.000 A 
ATOM     17  C   UNL     1      -4.354  11.384  16.783  0.00  0.00    +0.000 A 
ATOM     18  C   UNL     1      -3.442  11.433  17.838  0.00  0.00    +0.000 A 
ATOM     19 CL   UNL     1      -3.806  12.424  19.207  0.00  0.00    +0.000 Cl
ENDBRANCH  11  13
ENDBRANCH   9  11
ENDBRANCH   7   9
ENDBRANCH   4   7
BRANCH   1  20
ATOM     20  C   UNL     1       2.006   5.518  20.640  0.00  0.00    +0.000 C 
BRANCH  20  21
ATOM     21  C   UNL     1       1.452   4.428  19.718  0.00  0.00    +0.000 C 
BRANCH  21  22
ATOM     22  N   UNL     1       2.322   3.244  19.656  0.00  0.00    +0.000 NA
ATOM     23  H   UNL     1       3.277   3.548  19.854  0.00  0.00    +0.000 HD
BRANCH  22  24
ATOM     24  C   UNL     1       2.302   2.637  18.316  0.00  0.00    +0.000 C 
BRANCH  24  25
ATOM     25  C   UNL     1       3.715   2.435  17.757  0.00  0.00    +0.000 C 
BRANCH  25  26
ATOM     26  O   UNL     1       4.585   2.047  18.825  0.00  0.00    +0.000 OA
ATOM     27  H   UNL     1       4.240   2.497  19.616  0.00  0.00    +0.000 HD
ENDBRANCH  25  26
BRANCH  25  28
ATOM     28  C   UNL     1       4.175   3.751  17.121  0.00  0.00    +0.000 C 
BRANCH  28  29
ATOM     29  O   UNL     1       4.241   4.768  18.122  0.00  0.00    +0.000 OA
BRANCH  29  30
ATOM     30  C   UNL     1       5.457   5.390  18.214  0.00  0.00    +0.000 A 
ATOM     31  C   UNL     1       5.707   6.360  17.243  0.00  0.00    +0.000 A 
ATOM     32  C   UNL     1       6.907   7.072  17.252  0.00  0.00    +0.000 A 
ATOM     33  C   UNL     1       7.853   6.826  18.247  0.00  0.00    +0.000 A 
ATOM     34  C   UNL     1       7.599   5.871  19.230  0.00  0.00    +0.000 A 
ATOM     35  C   UNL     1       6.401   5.159  19.216  0.00  0.00    +0.000 A 
ENDBRANCH  29  30
ENDBRANCH  28  29
ENDBRANCH  25  28
ENDBRANCH  24  25
ENDBRANCH  22  24
ENDBRANCH  21  22
ENDBRANCH  20  21
ENDBRANCH   1  20
TORSDOF 13
ENDMDL
MODEL 3
REMARK VINA RESULT:      -7.2      0.740      1.138
REMARK  Name = 
REMARK  13 active torsions:
REMARK  status: ('A' for Active; 'I' for Inactive)
REMARK    1  A    between atoms: O_1  and  C_2
REMARK    2  A    between atoms: C_2  and  C_3
REMARK    3  A    between atoms: C_2  and  C_24
REMARK    4  A    between atoms: C_3  and  N_4
REMARK    5  A    between atoms: N_4  and  C_5
REMARK    6  A    between atoms: C_5  and  C_6
REMARK    7  A    between atoms: C_6  and  C_7
REMARK    8  A    between atoms: C_10  and  N_11
REMARK    9  A    between atoms: N_11  and  C_12
REMARK   10  A    between atoms: C_12  and  N_14
REMARK   11  A    between atoms: N_14  and  C_15
REMARK   12  A    between atoms: C_24  and  O_25
REMARK   13  A    between atoms: O_25  and  C_26
REMARK                            x       y       z     vdW  Elec       q    Type
REMARK                         _______ _______ _______ _____ _____    ______ ____
ROOT
ATOM      1  C   UNL     1       2.635   7.633  18.345  0.00  0.00    +0.000 A 
ATOM      2  C   UNL     1       2.181   7.533  19.663  0.00  0.00    +0.000 A 
ATOM      3  C   UNL     1       1.338   8.514  20.194  0.00  0.00    +0.000 A 
ATOM      4  C   UNL     1       0.974   9.628  19.429  0.00  0.00    +0.000 A 
ATOM      5  C   UNL     1       1.367   9.676  18.095  0.00  0.00    +0.000 A 
ATOM      6  C   UNL     1       2.206   8.706  17.563  0.00  0.00    +0.000 A 
ENDROOT
BRANCH   4   7
ATOM      7  N   UNL     1       0.292  10.662  20.100  0.00  0.00    +0.000 N 
ATOM      8  H   UNL     1       0.624  10.863  21.036  0.00  0.00    +0.000 HD
BRANCH   7   9
ATOM      9  C   UNL     1      -0.677  11.561  19.659  0.00  0.00    +0.000 C 
ATOM     10  S   UNL     1      -0.615  13.237  19.591  0.00  0.00    +0.000 S 
BRANCH   9  11
ATOM     11  N   UNL     1      -1.849  10.840  19.392  0.00  0.00    +0.000 N 
ATOM     12  H   UNL     1      -2.456  10.762  20.204  0.00  0.00    +0.000 HD
BRANCH  11  13
ATOM     13  C   UNL     1      -2.535  10.831  18.156  0.00  0.00    +0.000 A 
ATOM     14  C   UNL     1      -1.996  10.140  17.062  0.00  0.00    +0.000 A 
ATOM     15  C   UNL     1      -2.656  10.145  15.835  0.00  0.00    +0.000 A 
ATOM     16  C   UNL     1      -3.871  10.814  15.700  0.00  0.00    +0.000 A 
ATOM     17  C   UNL     1      -4.432  11.474  16.795  0.00  0.00    +0.000 A 
ATOM     18  C   UNL     1      -3.770  11.475  18.023  0.00  0.00    +0.000 A 
ATOM     19 CL   UNL     1      -4.479  12.330  19.348  0.00  0.00    +0.000 Cl
ENDBRANCH  11  13
ENDBRANCH   9  11
ENDBRANCH   7   9
ENDBRANCH   4   7
BRANCH   1  20
ATOM     20  C   UNL     1       3.672   6.721  17.755  0.00  0.00    +0.000 C 
BRANCH  20  21
ATOM     21  C   UNL     1       4.631   7.358  16.745  0.00  0.00    +0.000 C 
BRANCH  21  22
ATOM     22  N   UNL     1       5.965   6.737  16.762  0.00  0.00    +0.000 NA
ATOM     23  H   UNL     1       6.453   7.026  15.912  0.00  0.00    +0.000 HD
BRANCH  22  24
ATOM     24  C   UNL     1       5.870   5.269  16.761  0.00  0.00    +0.000 C 
BRANCH  24  25
ATOM     25  C   UNL     1       6.411   4.659  18.059  0.00  0.00    +0.000 C 
BRANCH  25  26
ATOM     26  O   UNL     1       7.673   4.039  17.790  0.00  0.00    +0.000 OA
ATOM     27  H   UNL     1       7.804   3.398  18.510  0.00  0.00    +0.000 HD
ENDBRANCH  25  26
BRANCH  25  28
ATOM     28  C   UNL     1       5.393   3.636  18.573  0.00  0.00    +0.000 C 
BRANCH  28  29
ATOM     29  O   UNL     1       4.653   4.202  19.657  0.00  0.00    +0.000 OA
BRANCH  29  30
ATOM     30  C   UNL     1       3.333   3.845  19.687  0.00  0.00    +0.000 A 
ATOM     31  C   UNL     1       2.840   3.275  18.512  0.00  0.00    +0.000 A 
ATOM     32  C   UNL     1       1.511   2.856  18.436  0.00  0.00    +0.000 A 
ATOM     33  C   UNL     1       0.676   2.991  19.545  0.00  0.00    +0.000 A 
ATOM     34  C   UNL     1       1.169   3.543  20.727  0.00  0.00    +0.000 A 
ATOM     35  C   UNL     1       2.495   3.964  20.798  0.00  0.00    +0.000 A 
ENDBRANCH  29  30
ENDBRANCH  28  29
ENDBRANCH  25  28
ENDBRANCH  24  25
ENDBRANCH  22  24
ENDBRANCH  21  22
ENDBRANCH  20  21
ENDBRANCH   1  20
TORSDOF 13
ENDMDL
MODEL 4
REMARK VINA RESULT:      -7.0      4.587      9.728
REMARK  Name = 
REMARK  13 active torsions:
REMARK  status: ('A' for Active; 'I' for Inactive)
REMARK    1  A    between atoms: O_1  and  C_2
REMARK    2  A    between atoms: C_2  and  C_3
REMARK    3  A    between atoms: C_2  and  C_24
REMARK    4  A    between atoms: C_3  and  N_4
REMARK    5  A    between atoms: N_4  and  C_5
REMARK    6  A    between atoms: C_5  and  C_6
REMARK    7  A    between atoms: C_6  and  C_7
REMARK    8  A    between atoms: C_10  and  N_11
REMARK    9  A    between atoms: N_11  and  C_12
REMARK   10  A    between atoms: C_12  and  N_14
REMARK   11  A    between atoms: N_14  and  C_15
REMARK   12  A    between atoms: C_24  and  O_25
REMARK   13  A    between atoms: O_25  and  C_26
REMARK                            x       y       z     vdW  Elec       q    Type
REMARK                         _______ _______ _______ _____ _____    ______ ____
ROOT
ATOM      1  C   UNL     1       0.956   9.717  18.977  0.00  0.00    +0.000 A 
ATOM      2  C   UNL     1       1.671   9.015  18.003  0.00  0.00    +0.000 A 
ATOM      3  C   UNL     1       2.300   7.807  18.324  0.00  0.00    +0.000 A 
ATOM      4  C   UNL     1       2.258   7.311  19.633  0.00  0.00    +0.000 A 
ATOM      5  C   UNL     1       1.478   7.978  20.572  0.00  0.00    +0.000 A 
ATOM      6  C   UNL     1       0.853   9.178  20.259  0.00  0.00    +0.000 A 
ENDROOT
BRANCH   4   7
ATOM      7  N   UNL     1       3.080   6.203  19.916  0.00  0.00    +0.000 N 
ATOM      8  H   UNL     1       3.601   6.261  20.783  0.00  0.00    +0.000 HD
BRANCH   7   9
ATOM      9  C   UNL     1       3.208   4.969  19.283  0.00  0.00    +0.000 C 
ATOM     10  S   UNL     1       2.625   3.468  19.759  0.00  0.00    +0.000 S 
BRANCH   9  11
ATOM     11  N   UNL     1       4.070   5.127  18.190  0.00  0.00    +0.000 N 
ATOM     12  H   UNL     1       3.579   5.376  17.334  0.00  0.00    +0.000 HD
BRANCH  11  13
ATOM     13  C   UNL     1       5.392   5.624  18.261  0.00  0.00    +0.000 A 
ATOM     14  C   UNL     1       6.213   5.275  19.342  0.00  0.00    +0.000 A 
ATOM     15  C   UNL     1       7.509   5.778  19.431  0.00  0.00    +0.000 A 
ATOM     16  C   UNL     1       8.004   6.608  18.426  0.00  0.00    +0.000 A 
ATOM     17  C   UNL     1       7.205   6.931  17.328  0.00  0.00    +0.000 A 
ATOM     18  C   UNL     1       5.905   6.433  17.241  0.00  0.00    +0.000 A 
ATOM     19 CL   UNL     1       4.932   6.879  15.882  0.00  0.00    +0.000 Cl
ENDBRANCH  11  13
ENDBRANCH   9  11
ENDBRANCH   7   9
ENDBRANCH   4   7
BRANCH   1  20
ATOM     20  C   UNL     1       0.399  11.096  18.761  0.00  0.00    +0.000 C 
BRANCH  20  21
ATOM     21  C   UNL     1      -1.127  11.201  18.703  0.00  0.00    +0.000 C 
BRANCH  21  22
ATOM     22  N   UNL     1      -1.630  11.391  17.333  0.00  0.00    +0.000 NA
ATOM     23  H   UNL     1      -2.311  12.151  17.354  0.00  0.00    +0.000 HD
BRANCH  22  24
ATOM     24  C   UNL     1      -2.306  10.181  16.840  0.00  0.00    +0.000 C 
BRANCH  24  25
ATOM     25  C   UNL     1      -3.465  10.517  15.895  0.00  0.00    +0.000 C 
BRANCH  25  26
ATOM     26  O   UNL     1      -2.974  11.343  14.834  0.00  0.00    +0.000 OA
ATOM     27  H   UNL     1      -2.780  10.733  14.100  0.00  0.00    +0.000 HD
ENDBRANCH  25  26
BRANCH  25  28
ATOM     28  C   UNL     1      -4.549  11.240  16.700  0.00  0.00    +0.000 C 
BRANCH  28  29
ATOM     29  O   UNL     1      -4.685  10.623  17.981  0.00  0.00    +0.000 OA
BRANCH  29  30
ATOM     30  C   UNL     1      -5.440  11.335  18.873  0.00  0.00    +0.000 A 
ATOM     31  C   UNL     1      -6.675  10.770  19.197  0.00  0.00    +0.000 A 
ATOM     32  C   UNL     1      -7.519  11.401  20.112  0.00  0.00    +0.000 A 
ATOM     33  C   UNL     1      -7.120  12.592  20.718  0.00  0.00    +0.000 A 
ATOM     34  C   UNL     1      -5.880  13.150  20.411  0.00  0.00    +0.000 A 
ATOM     35  C   UNL     1      -5.041  12.520  19.495  0.00  0.00    +0.000 A 
ENDBRANCH  29  30
ENDBRANCH  28  29
ENDBRANCH  25  28
ENDBRANCH  24  25
ENDBRANCH  22  24
ENDBRANCH  21  22
ENDBRANCH  20  21
ENDBRANCH   1  20
TORSDOF 13
ENDMDL
MODEL 5
REMARK VINA RESULT:      -7.0      0.789      1.505
REMARK  Name = 
REMARK  13 active torsions:
REMARK  status: ('A' for Active; 'I' for Inactive)
REMARK    1  A    between atoms: O_1  and  C_2
REMARK    2  A    between atoms: C_2  and  C_3
REMARK    3  A    between atoms: C_2  and  C_24
REMARK    4  A    between atoms: C_3  and  N_4
REMARK    5  A    between atoms: N_4  and  C_5
REMARK    6  A    between atoms: C_5  and  C_6
REMARK    7  A    between atoms: C_6  and  C_7
REMARK    8  A    between atoms: C_10  and  N_11
REMARK    9  A    between atoms: N_11  and  C_12
REMARK   10  A    between atoms: C_12  and  N_14
REMARK   11  A    between atoms: N_14  and  C_15
REMARK   12  A    between atoms: C_24  and  O_25
REMARK   13  A    between atoms: O_25  and  C_26
REMARK                            x       y       z     vdW  Elec       q    Type
REMARK                         _______ _______ _______ _____ _____    ______ ____
ROOT
ATOM      1  C   UNL     1       2.434   7.753  18.466  0.00  0.00    +0.000 A 
ATOM      2  C   UNL     1       1.894   7.749  19.755  0.00  0.00    +0.000 A 
ATOM      3  C   UNL     1       1.171   8.853  20.219  0.00  0.00    +0.000 A 
ATOM      4  C   UNL     1       1.019   9.990  19.418  0.00  0.00    +0.000 A 
ATOM      5  C   UNL     1       1.492   9.951  18.111  0.00  0.00    +0.000 A 
ATOM      6  C   UNL     1       2.212   8.858  17.644  0.00  0.00    +0.000 A 
ENDROOT
BRANCH   4   7
ATOM      7  N   UNL     1       0.455  11.126  20.031  0.00  0.00    +0.000 N 
ATOM      8  H   UNL     1       0.878  11.397  20.911  0.00  0.00    +0.000 HD
BRANCH   7   9
ATOM      9  C   UNL     1      -0.499  12.036  19.580  0.00  0.00    +0.000 C 
ATOM     10  S   UNL     1      -0.297  13.632  19.100  0.00  0.00    +0.000 S 
BRANCH   9  11
ATOM     11  N   UNL     1      -1.762  11.448  19.724  0.00  0.00    +0.000 N 
ATOM     12  H   UNL     1      -2.120  11.509  20.674  0.00  0.00    +0.000 HD
BRANCH  11  13
ATOM     13  C   UNL     1      -2.768  11.427  18.729  0.00  0.00    +0.000 A 
ATOM     14  C   UNL     1      -2.515  10.821  17.491  0.00  0.00    +0.000 A 
ATOM     15  C   UNL     1      -3.493  10.815  16.499  0.00  0.00    +0.000 A 
ATOM     16  C   UNL     1      -4.739  11.389  16.747  0.00  0.00    +0.000 A 
ATOM     17  C   UNL     1      -5.011  11.962  17.991  0.00  0.00    +0.000 A 
ATOM     18  C   UNL     1      -4.031  11.973  18.983  0.00  0.00    +0.000 A 
ATOM     19 CL   UNL     1      -4.392  12.721  20.500  0.00  0.00    +0.000 Cl
ENDBRANCH  11  13
ENDBRANCH   9  11
ENDBRANCH   7   9
ENDBRANCH   4   7
BRANCH   1  20
ATOM     20  C   UNL     1       3.361   6.688  17.954  0.00  0.00    +0.000 C 
BRANCH  20  21
ATOM     21  C   UNL     1       4.311   7.109  16.830  0.00  0.00    +0.000 C 
BRANCH  21  22
ATOM     22  N   UNL     1       5.727   7.008  17.217  0.00  0.00    +0.000 NA
ATOM     23  H   UNL     1       6.266   7.606  16.589  0.00  0.00    +0.000 HD
BRANCH  22  24
ATOM     24  C   UNL     1       6.221   5.630  17.075  0.00  0.00    +0.000 C 
BRANCH  24  25
ATOM     25  C   UNL     1       7.020   5.178  18.303  0.00  0.00    +0.000 C 
BRANCH  25  26
ATOM     26  O   UNL     1       7.827   4.051  17.944  0.00  0.00    +0.000 OA
ATOM     27  H   UNL     1       8.179   4.257  17.060  0.00  0.00    +0.000 HD
ENDBRANCH  25  26
BRANCH  25  28
ATOM     28  C   UNL     1       6.030   4.814  19.415  0.00  0.00    +0.000 C 
BRANCH  28  29
ATOM     29  O   UNL     1       5.590   3.467  19.241  0.00  0.00    +0.000 OA
BRANCH  29  30
ATOM     30  C   UNL     1       4.256   3.341  18.962  0.00  0.00    +0.000 A 
ATOM     31  C   UNL     1       3.391   3.850  19.931  0.00  0.00    +0.000 A 
ATOM     32  C   UNL     1       2.010   3.793  19.742  0.00  0.00    +0.000 A 
ATOM     33  C   UNL     1       1.491   3.239  18.571  0.00  0.00    +0.000 A 
ATOM     34  C   UNL     1       2.352   2.745  17.592  0.00  0.00    +0.000 A 
ATOM     35  C   UNL     1       3.731   2.801  17.786  0.00  0.00    +0.000 A 
ENDBRANCH  29  30
ENDBRANCH  28  29
ENDBRANCH  25  28
ENDBRANCH  24  25
ENDBRANCH  22  24
ENDBRANCH  21  22
ENDBRANCH  20  21
ENDBRANCH   1  20
TORSDOF 13
ENDMDL
MODEL 6
REMARK VINA RESULT:      -7.0      4.869      9.736
REMARK  Name = 
REMARK  13 active torsions:
REMARK  status: ('A' for Active; 'I' for Inactive)
REMARK    1  A    between atoms: O_1  and  C_2
REMARK    2  A    between atoms: C_2  and  C_3
REMARK    3  A    between atoms: C_2  and  C_24
REMARK    4  A    between atoms: C_3  and  N_4
REMARK    5  A    between atoms: N_4  and  C_5
REMARK    6  A    between atoms: C_5  and  C_6
REMARK    7  A    between atoms: C_6  and  C_7
REMARK    8  A    between atoms: C_10  and  N_11
REMARK    9  A    between atoms: N_11  and  C_12
REMARK   10  A    between atoms: C_12  and  N_14
REMARK   11  A    between atoms: N_14  and  C_15
REMARK   12  A    between atoms: C_24  and  O_25
REMARK   13  A    between atoms: O_25  and  C_26
REMARK                            x       y       z     vdW  Elec       q    Type
REMARK                         _______ _______ _______ _____ _____    ______ ____
ROOT
ATOM      1  C   UNL     1       1.988   8.352  18.524  0.00  0.00    +0.000 A 
ATOM      2  C   UNL     1       2.741   7.550  17.662  0.00  0.00    +0.000 A 
ATOM      3  C   UNL     1       3.239   6.319  18.100  0.00  0.00    +0.000 A 
ATOM      4  C   UNL     1       3.028   5.896  19.418  0.00  0.00    +0.000 A 
ATOM      5  C   UNL     1       2.211   6.665  20.240  0.00  0.00    +0.000 A 
ATOM      6  C   UNL     1       1.716   7.889  19.811  0.00  0.00    +0.000 A 
ENDROOT
BRANCH   4   7
ATOM      7  N   UNL     1       3.729   4.747  19.834  0.00  0.00    +0.000 N 
ATOM      8  H   UNL     1       3.902   4.682  20.831  0.00  0.00    +0.000 HD
BRANCH   7   9
ATOM      9  C   UNL     1       4.116   3.604  19.137  0.00  0.00    +0.000 C 
ATOM     10  S   UNL     1       3.189   2.284  18.670  0.00  0.00    +0.000 S 
BRANCH   9  11
ATOM     11  N   UNL     1       5.508   3.635  18.990  0.00  0.00    +0.000 N 
ATOM     12  H   UNL     1       5.906   2.716  18.813  0.00  0.00    +0.000 HD
BRANCH  11  13
ATOM     13  C   UNL     1       6.243   4.701  18.419  0.00  0.00    +0.000 A 
ATOM     14  C   UNL     1       7.048   5.509  19.232  0.00  0.00    +0.000 A 
ATOM     15  C   UNL     1       7.758   6.574  18.681  0.00  0.00    +0.000 A 
ATOM     16  C   UNL     1       7.691   6.820  17.311  0.00  0.00    +0.000 A 
ATOM     17  C   UNL     1       6.920   5.997  16.489  0.00  0.00    +0.000 A 
ATOM     18  C   UNL     1       6.204   4.933  17.040  0.00  0.00    +0.000 A 
ATOM     19 CL   UNL     1       5.234   3.954  15.996  0.00  0.00    +0.000 Cl
ENDBRANCH  11  13
ENDBRANCH   9  11
ENDBRANCH   7   9
ENDBRANCH   4   7
BRANCH   1  20
ATOM     20  C   UNL     1       1.565   9.754  18.191  0.00  0.00    +0.000 C 
BRANCH  20  21
ATOM     21  C   UNL     1       1.266  10.666  19.384  0.00  0.00    +0.000 C 
BRANCH  21  22
ATOM     22  N   UNL     1      -0.019  11.371  19.249  0.00  0.00    +0.000 NA
ATOM     23  H   UNL     1      -0.383  11.537  20.189  0.00  0.00    +0.000 HD
BRANCH  22  24
ATOM     24  C   UNL     1      -0.999  10.558  18.514  0.00  0.00    +0.000 C 
BRANCH  24  25
ATOM     25  C   UNL     1      -2.054  11.424  17.817  0.00  0.00    +0.000 C 
BRANCH  25  26
ATOM     26  O   UNL     1      -1.406  12.545  17.206  0.00  0.00    +0.000 OA
ATOM     27  H   UNL     1      -1.709  12.547  16.282  0.00  0.00    +0.000 HD
ENDBRANCH  25  26
BRANCH  25  28
ATOM     28  C   UNL     1      -3.073  11.881  18.866  0.00  0.00    +0.000 C 
BRANCH  28  29
ATOM     29  O   UNL     1      -2.439  12.762  19.795  0.00  0.00    +0.000 OA
BRANCH  29  30
ATOM     30  C   UNL     1      -2.983  12.746  21.050  0.00  0.00    +0.000 A 
ATOM     31  C   UNL     1      -4.362  12.954  21.108  0.00  0.00    +0.000 A 
ATOM     32  C   UNL     1      -5.026  12.939  22.335  0.00  0.00    +0.000 A 
ATOM     33  C   UNL     1      -4.311  12.697  23.508  0.00  0.00    +0.000 A 
ATOM     34  C   UNL     1      -2.937  12.470  23.454  0.00  0.00    +0.000 A 
ATOM     35  C   UNL     1      -2.276  12.490  22.227  0.00  0.00    +0.000 A 
ENDBRANCH  29  30
ENDBRANCH  28  29
ENDBRANCH  25  28
ENDBRANCH  24  25
ENDBRANCH  22  24
ENDBRANCH  21  22
ENDBRANCH  20  21
ENDBRANCH   1  20
TORSDOF 13
ENDMDL
MODEL 7
REMARK VINA RESULT:      -6.9      4.696      9.579
REMARK  Name = 
REMARK  13 active torsions:
REMARK  status: ('A' for Active; 'I' for Inactive)
REMARK    1  A    between atoms: O_1  and  C_2
REMARK    2  A    between atoms: C_2  and  C_3
REMARK    3  A    between atoms: C_2  and  C_24
REMARK    4  A    between atoms: C_3  and  N_4
REMARK    5  A    between atoms: N_4  and  C_5
REMARK    6  A    between atoms: C_5  and  C_6
REMARK    7  A    between atoms: C_6  and  C_7
REMARK    8  A    between atoms: C_10  and  N_11
REMARK    9  A    between atoms: N_11  and  C_12
REMARK   10  A    between atoms: C_12  and  N_14
REMARK   11  A    between atoms: N_14  and  C_15
REMARK   12  A    between atoms: C_24  and  O_25
REMARK   13  A    between atoms: O_25  and  C_26
REMARK                            x       y       z     vdW  Elec       q    Type
REMARK                         _______ _______ _______ _____ _____    ______ ____
ROOT
ATOM      1  C   UNL     1       1.712   8.268  19.472  0.00  0.00    +0.000 A 
ATOM      2  C   UNL     1       1.687   7.103  20.244  0.00  0.00    +0.000 A 
ATOM      3  C   UNL     1       2.265   5.925  19.760  0.00  0.00    +0.000 A 
ATOM      4  C   UNL     1       2.836   5.887  18.483  0.00  0.00    +0.000 A 
ATOM      5  C   UNL     1       2.925   7.071  17.759  0.00  0.00    +0.000 A 
ATOM      6  C   UNL     1       2.350   8.243  18.233  0.00  0.00    +0.000 A 
ENDROOT
BRANCH   4   7
ATOM      7  N   UNL     1       3.213   4.620  17.995  0.00  0.00    +0.000 N 
ATOM      8  H   UNL     1       2.789   4.351  17.115  0.00  0.00    +0.000 HD
BRANCH   7   9
ATOM      9  C   UNL     1       4.175   3.715  18.438  0.00  0.00    +0.000 C 
ATOM     10  S   UNL     1       4.112   2.654  19.738  0.00  0.00    +0.000 S 
BRANCH   9  11
ATOM     11  N   UNL     1       5.342   3.919  17.690  0.00  0.00    +0.000 N 
ATOM     12  H   UNL     1       5.267   3.565  16.739  0.00  0.00    +0.000 HD
BRANCH  11  13
ATOM     13  C   UNL     1       6.214   5.023  17.827  0.00  0.00    +0.000 A 
ATOM     14  C   UNL     1       7.026   5.136  18.964  0.00  0.00    +0.000 A 
ATOM     15  C   UNL     1       7.872   6.232  19.116  0.00  0.00    +0.000 A 
ATOM     16  C   UNL     1       7.935   7.207  18.122  0.00  0.00    +0.000 A 
ATOM     17  C   UNL     1       7.156   7.083  16.970  0.00  0.00    +0.000 A 
ATOM     18  C   UNL     1       6.304   5.989  16.818  0.00  0.00    +0.000 A 
ATOM     19 CL   UNL     1       5.330   5.884  15.393  0.00  0.00    +0.000 Cl
ENDBRANCH  11  13
ENDBRANCH   9  11
ENDBRANCH   7   9
ENDBRANCH   4   7
BRANCH   1  20
ATOM     20  C   UNL     1       0.969   9.521  19.841  0.00  0.00    +0.000 C 
BRANCH  20  21
ATOM     21  C   UNL     1       0.872  10.589  18.749  0.00  0.00    +0.000 C 
BRANCH  21  22
ATOM     22  N   UNL     1      -0.111  10.247  17.709  0.00  0.00    +0.000 NA
ATOM     23  H   UNL     1      -0.079  10.980  16.998  0.00  0.00    +0.000 HD
BRANCH  22  24
ATOM     24  C   UNL     1      -1.474  10.199  18.258  0.00  0.00    +0.000 C 
BRANCH  24  25
ATOM     25  C   UNL     1      -2.368  11.298  17.672  0.00  0.00    +0.000 C 
BRANCH  25  26
ATOM     26  O   UNL     1      -1.538  12.317  17.105  0.00  0.00    +0.000 OA
ATOM     27  H   UNL     1      -1.596  13.069  17.720  0.00  0.00    +0.000 HD
ENDBRANCH  25  26
BRANCH  25  28
ATOM     28  C   UNL     1      -3.241  11.861  18.798  0.00  0.00    +0.000 C 
BRANCH  28  29
ATOM     29  O   UNL     1      -2.472  12.768  19.590  0.00  0.00    +0.000 OA
BRANCH  29  30
ATOM     30  C   UNL     1      -2.575  12.566  20.940  0.00  0.00    +0.000 A 
ATOM     31  C   UNL     1      -3.815  12.877  21.499  0.00  0.00    +0.000 A 
ATOM     32  C   UNL     1      -4.038  12.692  22.864  0.00  0.00    +0.000 A 
ATOM     33  C   UNL     1      -3.023  12.176  23.670  0.00  0.00    +0.000 A 
ATOM     34  C   UNL     1      -1.789  11.845  23.112  0.00  0.00    +0.000 A 
ATOM     35  C   UNL     1      -1.568  12.035  21.749  0.00  0.00    +0.000 A 
ENDBRANCH  29  30
ENDBRANCH  28  29
ENDBRANCH  25  28
ENDBRANCH  24  25
ENDBRANCH  22  24
ENDBRANCH  21  22
ENDBRANCH  20  21
ENDBRANCH   1  20
TORSDOF 13
ENDMDL
MODEL 8
REMARK VINA RESULT:      -6.9      2.379      4.428
REMARK  Name = 
REMARK  13 active torsions:
REMARK  status: ('A' for Active; 'I' for Inactive)
REMARK    1  A    between atoms: O_1  and  C_2
REMARK    2  A    between atoms: C_2  and  C_3
REMARK    3  A    between atoms: C_2  and  C_24
REMARK    4  A    between atoms: C_3  and  N_4
REMARK    5  A    between atoms: N_4  and  C_5
REMARK    6  A    between atoms: C_5  and  C_6
REMARK    7  A    between atoms: C_6  and  C_7
REMARK    8  A    between atoms: C_10  and  N_11
REMARK    9  A    between atoms: N_11  and  C_12
REMARK   10  A    between atoms: C_12  and  N_14
REMARK   11  A    between atoms: N_14  and  C_15
REMARK   12  A    between atoms: C_24  and  O_25
REMARK   13  A    between atoms: O_25  and  C_26
REMARK                            x       y       z     vdW  Elec       q    Type
REMARK                         _______ _______ _______ _____ _____    ______ ____
ROOT
ATOM      1  C   UNL     1       2.365   7.225  19.413  0.00  0.00    +0.000 A 
ATOM      2  C   UNL     1       1.635   7.967  20.345  0.00  0.00    +0.000 A 
ATOM      3  C   UNL     1       1.072   9.195  19.983  0.00  0.00    +0.000 A 
ATOM      4  C   UNL     1       1.270   9.716  18.699  0.00  0.00    +0.000 A 
ATOM      5  C   UNL     1       1.929   8.932  17.758  0.00  0.00    +0.000 A 
ATOM      6  C   UNL     1       2.492   7.713  18.112  0.00  0.00    +0.000 A 
ENDROOT
BRANCH   4   7
ATOM      7  N   UNL     1       0.843  11.040  18.481  0.00  0.00    +0.000 N 
ATOM      8  H   UNL     1       1.451  11.600  17.895  0.00  0.00    +0.000 HD
BRANCH   7   9
ATOM      9  C   UNL     1      -0.343  11.690  18.815  0.00  0.00    +0.000 C 
ATOM     10  S   UNL     1      -1.803  11.723  17.986  0.00  0.00    +0.000 S 
BRANCH   9  11
ATOM     11  N   UNL     1      -0.101  12.487  19.942  0.00  0.00    +0.000 N 
ATOM     12  H   UNL     1       0.331  13.378  19.709  0.00  0.00    +0.000 HD
BRANCH  11  13
ATOM     13  C   UNL     1      -0.908  12.522  21.102  0.00  0.00    +0.000 A 
ATOM     14  C   UNL     1      -0.919  11.430  21.981  0.00  0.00    +0.000 A 
ATOM     15  C   UNL     1      -1.728  11.450  23.115  0.00  0.00    +0.000 A 
ATOM     16  C   UNL     1      -2.508  12.570  23.394  0.00  0.00    +0.000 A 
ATOM     17  C   UNL     1      -2.475  13.677  22.544  0.00  0.00    +0.000 A 
ATOM     18  C   UNL     1      -1.669  13.657  21.405  0.00  0.00    +0.000 A 
ATOM     19 CL   UNL     1      -1.677  15.033  20.357  0.00  0.00    +0.000 Cl
ENDBRANCH  11  13
ENDBRANCH   9  11
ENDBRANCH   7   9
ENDBRANCH   4   7
BRANCH   1  20
ATOM     20  C   UNL     1       3.142   5.988  19.764  0.00  0.00    +0.000 C 
BRANCH  20  21
ATOM     21  C   UNL     1       2.365   4.897  20.507  0.00  0.00    +0.000 C 
BRANCH  21  22
ATOM     22  N   UNL     1       2.250   3.654  19.728  0.00  0.00    +0.000 NA
ATOM     23  H   UNL     1       3.183   3.243  19.659  0.00  0.00    +0.000 HD
BRANCH  22  24
ATOM     24  C   UNL     1       1.764   3.922  18.366  0.00  0.00    +0.000 C 
BRANCH  24  25
ATOM     25  C   UNL     1       2.537   3.119  17.314  0.00  0.00    +0.000 C 
BRANCH  25  26
ATOM     26  O   UNL     1       2.194   1.735  17.441  0.00  0.00    +0.000 OA
ATOM     27  H   UNL     1       2.392   1.339  16.574  0.00  0.00    +0.000 HD
ENDBRANCH  25  26
BRANCH  25  28
ATOM     28  C   UNL     1       4.036   3.338  17.545  0.00  0.00    +0.000 C 
BRANCH  28  29
ATOM     29  O   UNL     1       4.510   4.361  16.668  0.00  0.00    +0.000 OA
BRANCH  29  30
ATOM     30  C   UNL     1       5.562   5.085  17.161  0.00  0.00    +0.000 A 
ATOM     31  C   UNL     1       5.615   6.418  16.754  0.00  0.00    +0.000 A 
ATOM     32  C   UNL     1       6.635   7.254  17.211  0.00  0.00    +0.000 A 
ATOM     33  C   UNL     1       7.596   6.759  18.092  0.00  0.00    +0.000 A 
ATOM     34  C   UNL     1       7.537   5.432  18.515  0.00  0.00    +0.000 A 
ATOM     35  C   UNL     1       6.519   4.599  18.054  0.00  0.00    +0.000 A 
ENDBRANCH  29  30
ENDBRANCH  28  29
ENDBRANCH  25  28
ENDBRANCH  24  25
ENDBRANCH  22  24
ENDBRANCH  21  22
ENDBRANCH  20  21
ENDBRANCH   1  20
TORSDOF 13
ENDMDL
MODEL 9
REMARK VINA RESULT:      -6.9      1.918      3.470
REMARK  Name = 
REMARK  13 active torsions:
REMARK  status: ('A' for Active; 'I' for Inactive)
REMARK    1  A    between atoms: O_1  and  C_2
REMARK    2  A    between atoms: C_2  and  C_3
REMARK    3  A    between atoms: C_2  and  C_24
REMARK    4  A    between atoms: C_3  and  N_4
REMARK    5  A    between atoms: N_4  and  C_5
REMARK    6  A    between atoms: C_5  and  C_6
REMARK    7  A    between atoms: C_6  and  C_7
REMARK    8  A    between atoms: C_10  and  N_11
REMARK    9  A    between atoms: N_11  and  C_12
REMARK   10  A    between atoms: C_12  and  N_14
REMARK   11  A    between atoms: N_14  and  C_15
REMARK   12  A    between atoms: C_24  and  O_25
REMARK   13  A    between atoms: O_25  and  C_26
REMARK                            x       y       z     vdW  Elec       q    Type
REMARK                         _______ _______ _______ _____ _____    ______ ____
ROOT
ATOM      1  C   UNL     1       2.116   7.447  19.501  0.00  0.00    +0.000 A 
ATOM      2  C   UNL     1       1.499   8.294  20.425  0.00  0.00    +0.000 A 
ATOM      3  C   UNL     1       1.110   9.584  20.047  0.00  0.00    +0.000 A 
ATOM      4  C   UNL     1       1.373  10.056  18.756  0.00  0.00    +0.000 A 
ATOM      5  C   UNL     1       1.914   9.176  17.824  0.00  0.00    +0.000 A 
ATOM      6  C   UNL     1       2.305   7.895  18.194  0.00  0.00    +0.000 A 
ENDROOT
BRANCH   4   7
ATOM      7  N   UNL     1       1.132  11.423  18.520  0.00  0.00    +0.000 N 
ATOM      8  H   UNL     1       1.960  11.992  18.389  0.00  0.00    +0.000 HD
BRANCH   7   9
ATOM      9  C   UNL     1      -0.052  12.123  18.298  0.00  0.00    +0.000 C 
ATOM     10  S   UNL     1      -0.381  13.752  18.539  0.00  0.00    +0.000 S 
BRANCH   9  11
ATOM     11  N   UNL     1      -1.047  11.197  17.958  0.00  0.00    +0.000 N 
ATOM     12  H   UNL     1      -0.780  10.238  18.164  0.00  0.00    +0.000 HD
BRANCH  11  13
ATOM     13  C   UNL     1      -2.439  11.436  18.029  0.00  0.00    +0.000 A 
ATOM     14  C   UNL     1      -3.007  11.919  19.215  0.00  0.00    +0.000 A 
ATOM     15  C   UNL     1      -4.380  12.137  19.299  0.00  0.00    +0.000 A 
ATOM     16  C   UNL     1      -5.191  11.901  18.191  0.00  0.00    +0.000 A 
ATOM     17  C   UNL     1      -4.629  11.454  16.994  0.00  0.00    +0.000 A 
ATOM     18  C   UNL     1      -3.254  11.231  16.909  0.00  0.00    +0.000 A 
ATOM     19 CL   UNL     1      -2.596  10.647  15.421  0.00  0.00    +0.000 Cl
ENDBRANCH  11  13
ENDBRANCH   9  11
ENDBRANCH   7   9
ENDBRANCH   4   7
BRANCH   1  20
ATOM     20  C   UNL     1       2.716   6.119  19.868  0.00  0.00    +0.000 C 
BRANCH  20  21
ATOM     21  C   UNL     1       1.722   4.981  20.119  0.00  0.00    +0.000 C 
BRANCH  21  22
ATOM     22  N   UNL     1       2.087   4.157  21.282  0.00  0.00    +0.000 NA
ATOM     23  H   UNL     1       2.752   4.691  21.844  0.00  0.00    +0.000 HD
BRANCH  22  24
ATOM     24  C   UNL     1       2.737   2.905  20.866  0.00  0.00    +0.000 C 
BRANCH  24  25
ATOM     25  C   UNL     1       2.590   2.655  19.361  0.00  0.00    +0.000 C 
BRANCH  25  26
ATOM     26  O   UNL     1       1.683   1.567  19.158  0.00  0.00    +0.000 OA
ATOM     27  H   UNL     1       1.219   1.455  20.006  0.00  0.00    +0.000 HD
ENDBRANCH  25  26
BRANCH  25  28
ATOM     28  C   UNL     1       3.974   2.334  18.788  0.00  0.00    +0.000 C 
BRANCH  28  29
ATOM     29  O   UNL     1       4.943   3.219  19.354  0.00  0.00    +0.000 OA
BRANCH  29  30
ATOM     30  C   UNL     1       5.325   4.240  18.528  0.00  0.00    +0.000 A 
ATOM     31  C   UNL     1       4.715   4.256  17.273  0.00  0.00    +0.000 A 
ATOM     32  C   UNL     1       5.016   5.264  16.357  0.00  0.00    +0.000 A 
ATOM     33  C   UNL     1       5.918   6.271  16.702  0.00  0.00    +0.000 A 
ATOM     34  C   UNL     1       6.516   6.269  17.961  0.00  0.00    +0.000 A 
ATOM     35  C   UNL     1       6.216   5.259  18.873  0.00  0.00    +0.000 A 
ENDBRANCH  29  30
ENDBRANCH  28  29
ENDBRANCH  25  28
ENDBRANCH  24  25
ENDBRANCH  22  24
ENDBRANCH  21  22
ENDBRANCH  20  21
ENDBRANCH   1  20
TORSDOF 13
ENDMDL
