MODEL 1
REMARK VINA RESULT:      -7.9      0.000      0.000
REMARK  Name = 
REMARK  4 active torsions:
REMARK  status: ('A' for Active; 'I' for Inactive)
REMARK    1  A    between atoms: C_2  and  C_5
REMARK    2  A    between atoms: N_3  and  O_4
REMARK    3  A    between atoms: C_8  and  C_9
REMARK    4  A    between atoms: C_9  and  N_10
REMARK                            x       y       z     vdW  Elec       q    Type
REMARK                         _______ _______ _______ _____ _____    ______ ____
ROOT
ATOM      1  C   UNL     1       6.247   4.289  14.027  0.00  0.00    +0.000 A 
ATOM      2  C   UNL     1       7.234   5.012  14.704  0.00  0.00    +0.000 A 
ATOM      3  C   UNL     1       6.928   5.659  15.906  0.00  0.00    +0.000 A 
ATOM      4  C   UNL     1       5.641   5.569  16.461  0.00  0.00    +0.000 A 
ATOM      5  C   UNL     1       4.668   4.809  15.793  0.00  0.00    +0.000 A 
ATOM      6  C   UNL     1       4.968   4.170  14.585  0.00  0.00    +0.000 A 
ENDROOT
BRANCH   1   8
ATOM      7  O   UNL     1       7.270   4.229  11.885  0.00  0.00    +0.000 OA
ATOM      8  C   UNL     1       6.577   3.660  12.722  0.00  0.00    +0.000 C 
ATOM      9  N   UNL     1       5.998   2.429  12.495  0.00  0.00    +0.000 N 
ATOM     10  H   UNL     1       5.159   2.139  12.985  0.00  0.00    +0.000 HD
BRANCH   9  11
ATOM     11  O   UNL     1       6.159   1.917  11.185  0.00  0.00    +0.000 OA
ATOM     12  H   UNL     1       6.369   2.727  10.668  0.00  0.00    +0.000 HD
ENDBRANCH   9  11
ENDBRANCH   1   8
BRANCH   4  13
ATOM     13  C   UNL     1       5.319   6.257  17.770  0.00  0.00    +0.000 C 
BRANCH  13  14
ATOM     14  N   UNL     1       4.409   5.502  18.607  0.00  0.00    +0.000 N 
ATOM     15  C   UNL     1       3.077   5.795  18.725  0.00  0.00    +0.000 C 
ATOM     16  O   UNL     1       2.448   6.719  18.248  0.00  0.00    +0.000 OA
ATOM     17  C   UNL     1       2.484   4.735  19.539  0.00  0.00    +0.000 A 
ATOM     18  C   UNL     1       1.173   4.540  19.930  0.00  0.00    +0.000 A 
ATOM     19  C   UNL     1       0.901   3.418  20.718  0.00  0.00    +0.000 A 
ATOM     20  C   UNL     1       1.931   2.531  21.091  0.00  0.00    +0.000 A 
ATOM     21  C   UNL     1       3.248   2.740  20.663  0.00  0.00    +0.000 A 
ATOM     22  C   UNL     1       3.493   3.854  19.879  0.00  0.00    +0.000 A 
ATOM     23  C   UNL     1       4.724   4.329  19.237  0.00  0.00    +0.000 C 
ATOM     24  O   UNL     1       5.777   3.721  19.248  0.00  0.00    +0.000 OA
ENDBRANCH  13  14
ENDBRANCH   4  13
TORSDOF 4
ENDMDL
MODEL 2
REMARK VINA RESULT:      -7.9      0.084      1.034
REMARK  Name = 
REMARK  4 active torsions:
REMARK  status: ('A' for Active; 'I' for Inactive)
REMARK    1  A    between atoms: C_2  and  C_5
REMARK    2  A    between atoms: N_3  and  O_4
REMARK    3  A    between atoms: C_8  and  C_9
REMARK    4  A    between atoms: C_9  and  N_10
REMARK                            x       y       z     vdW  Elec       q    Type
REMARK                         _______ _______ _______ _____ _____    ______ ____
ROOT
ATOM      1  C   UNL     1       6.274   4.365  14.066  0.00  0.00    +0.000 A 
ATOM      2  C   UNL     1       4.979   4.304  14.588  0.00  0.00    +0.000 A 
ATOM      3  C   UNL     1       4.691   4.901  15.820  0.00  0.00    +0.000 A 
ATOM      4  C   UNL     1       5.686   5.589  16.532  0.00  0.00    +0.000 A 
ATOM      5  C   UNL     1       6.974   5.677  15.982  0.00  0.00    +0.000 A 
ATOM      6  C   UNL     1       7.268   5.071  14.755  0.00  0.00    +0.000 A 
ENDROOT
BRANCH   1   8
ATOM      7  O   UNL     1       7.293   4.175  11.930  0.00  0.00    +0.000 OA
ATOM      8  C   UNL     1       6.573   3.672  12.786  0.00  0.00    +0.000 C 
ATOM      9  N   UNL     1       5.932   2.465  12.602  0.00  0.00    +0.000 N 
ATOM     10  H   UNL     1       5.079   2.236  13.102  0.00  0.00    +0.000 HD
BRANCH   9  11
ATOM     11  O   UNL     1       6.067   1.898  11.313  0.00  0.00    +0.000 OA
ATOM     12  H   UNL     1       5.290   1.297  11.267  0.00  0.00    +0.000 HD
ENDBRANCH   9  11
ENDBRANCH   1   8
BRANCH   4  13
ATOM     13  C   UNL     1       5.366   6.248  17.857  0.00  0.00    +0.000 C 
BRANCH  13  14
ATOM     14  N   UNL     1       4.432   5.489  18.664  0.00  0.00    +0.000 N 
ATOM     15  C   UNL     1       3.103   5.800  18.768  0.00  0.00    +0.000 C 
ATOM     16  O   UNL     1       2.495   6.743  18.300  0.00  0.00    +0.000 OA
ATOM     17  C   UNL     1       2.481   4.733  19.550  0.00  0.00    +0.000 A 
ATOM     18  C   UNL     1       1.161   4.551  19.916  0.00  0.00    +0.000 A 
ATOM     19  C   UNL     1       0.859   3.417  20.677  0.00  0.00    +0.000 A 
ATOM     20  C   UNL     1       1.870   2.506  21.046  0.00  0.00    +0.000 A 
ATOM     21  C   UNL     1       3.197   2.703  20.643  0.00  0.00    +0.000 A 
ATOM     22  C   UNL     1       3.471   3.830  19.887  0.00  0.00    +0.000 A 
ATOM     23  C   UNL     1       4.719   4.299  19.274  0.00  0.00    +0.000 C 
ATOM     24  O   UNL     1       5.762   3.674  19.289  0.00  0.00    +0.000 OA
ENDBRANCH  13  14
ENDBRANCH   4  13
TORSDOF 4
ENDMDL
MODEL 3
REMARK VINA RESULT:      -7.9      0.251      1.876
REMARK  Name = 
REMARK  4 active torsions:
REMARK  status: ('A' for Active; 'I' for Inactive)
REMARK    1  A    between atoms: C_2  and  C_5
REMARK    2  A    between atoms: N_3  and  O_4
REMARK    3  A    between atoms: C_8  and  C_9
REMARK    4  A    between atoms: C_9  and  N_10
REMARK                            x       y       z     vdW  Elec       q    Type
REMARK                         _______ _______ _______ _____ _____    ______ ____
ROOT
ATOM      1  C   UNL     1       6.289   4.221  13.848  0.00  0.00    +0.000 A 
ATOM      2  C   UNL     1       7.243   4.920  14.594  0.00  0.00    +0.000 A 
ATOM      3  C   UNL     1       6.885   5.515  15.809  0.00  0.00    +0.000 A 
ATOM      4  C   UNL     1       5.578   5.393  16.307  0.00  0.00    +0.000 A 
ATOM      5  C   UNL     1       4.638   4.657  15.570  0.00  0.00    +0.000 A 
ATOM      6  C   UNL     1       4.990   4.071  14.349  0.00  0.00    +0.000 A 
ENDROOT
BRANCH   1   8
ATOM      7  O   UNL     1       7.353   4.280  11.726  0.00  0.00    +0.000 OA
ATOM      8  C   UNL     1       6.676   3.650  12.532  0.00  0.00    +0.000 C 
ATOM      9  N   UNL     1       6.167   2.399  12.257  0.00  0.00    +0.000 N 
ATOM     10  H   UNL     1       5.335   2.050  12.723  0.00  0.00    +0.000 HD
BRANCH   9  11
ATOM     11  O   UNL     1       6.378   1.936  10.937  0.00  0.00    +0.000 OA
ATOM     12  H   UNL     1       5.555   2.221  10.481  0.00  0.00    +0.000 HD
ENDBRANCH   9  11
ENDBRANCH   1   8
BRANCH   4  13
ATOM     13  C   UNL     1       5.199   6.024  17.631  0.00  0.00    +0.000 C 
BRANCH  13  14
ATOM     14  N   UNL     1       4.270   5.223  18.402  0.00  0.00    +0.000 N 
ATOM     15  C   UNL     1       4.657   4.176  19.194  0.00  0.00    +0.000 C 
ATOM     16  O   UNL     1       5.762   3.694  19.346  0.00  0.00    +0.000 OA
ATOM     17  C   UNL     1       3.461   3.721  19.902  0.00  0.00    +0.000 A 
ATOM     18  C   UNL     1       3.310   2.717  20.839  0.00  0.00    +0.000 A 
ATOM     19  C   UNL     1       2.026   2.508  21.351  0.00  0.00    +0.000 A 
ATOM     20  C   UNL     1       0.940   3.297  20.920  0.00  0.00    +0.000 A 
ATOM     21  C   UNL     1       1.125   4.324  19.985  0.00  0.00    +0.000 A 
ATOM     22  C   UNL     1       2.406   4.515  19.496  0.00  0.00    +0.000 A 
ATOM     23  C   UNL     1       2.942   5.512  18.562  0.00  0.00    +0.000 C 
ATOM     24  O   UNL     1       2.294   6.431  18.101  0.00  0.00    +0.000 OA
ENDBRANCH  13  14
ENDBRANCH   4  13
TORSDOF 4
ENDMDL
MODEL 4
REMARK VINA RESULT:      -7.8      0.245      2.139
REMARK  Name = 
REMARK  4 active torsions:
REMARK  status: ('A' for Active; 'I' for Inactive)
REMARK    1  A    between atoms: C_2  and  C_5
REMARK    2  A    between atoms: N_3  and  O_4
REMARK    3  A    between atoms: C_8  and  C_9
REMARK    4  A    between atoms: C_9  and  N_10
REMARK                            x       y       z     vdW  Elec       q    Type
REMARK                         _______ _______ _______ _____ _____    ______ ____
ROOT
ATOM      1  C   UNL     1       6.268   4.227  13.821  0.00  0.00    +0.000 A 
ATOM      2  C   UNL     1       5.013   3.988  14.390  0.00  0.00    +0.000 A 
ATOM      3  C   UNL     1       4.685   4.553  15.627  0.00  0.00    +0.000 A 
ATOM      4  C   UNL     1       5.595   5.387  16.297  0.00  0.00    +0.000 A 
ATOM      5  C   UNL     1       6.837   5.652  15.699  0.00  0.00    +0.000 A 
ATOM      6  C   UNL     1       7.172   5.078  14.468  0.00  0.00    +0.000 A 
ENDROOT
BRANCH   1   8
ATOM      7  O   UNL     1       7.360   4.099  11.717  0.00  0.00    +0.000 OA
ATOM      8  C   UNL     1       6.618   3.568  12.536  0.00  0.00    +0.000 C 
ATOM      9  N   UNL     1       6.000   2.357  12.304  0.00  0.00    +0.000 N 
ATOM     10  H   UNL     1       5.134   2.106  12.770  0.00  0.00    +0.000 HD
BRANCH   9  11
ATOM     11  O   UNL     1       6.186   1.821  11.008  0.00  0.00    +0.000 OA
ATOM     12  H   UNL     1       6.573   0.938  11.201  0.00  0.00    +0.000 HD
ENDBRANCH   9  11
ENDBRANCH   1   8
BRANCH   4  13
ATOM     13  C   UNL     1       5.230   6.010  17.627  0.00  0.00    +0.000 C 
BRANCH  13  14
ATOM     14  N   UNL     1       4.288   5.219  18.392  0.00  0.00    +0.000 N 
ATOM     15  C   UNL     1       4.659   4.166  19.184  0.00  0.00    +0.000 C 
ATOM     16  O   UNL     1       5.759   3.672  19.340  0.00  0.00    +0.000 OA
ATOM     17  C   UNL     1       3.456   3.722  19.885  0.00  0.00    +0.000 A 
ATOM     18  C   UNL     1       3.289   2.717  20.819  0.00  0.00    +0.000 A 
ATOM     19  C   UNL     1       1.999   2.522  21.324  0.00  0.00    +0.000 A 
ATOM     20  C   UNL     1       0.925   3.324  20.889  0.00  0.00    +0.000 A 
ATOM     21  C   UNL     1       1.126   4.350  19.957  0.00  0.00    +0.000 A 
ATOM     22  C   UNL     1       2.410   4.528  19.475  0.00  0.00    +0.000 A 
ATOM     23  C   UNL     1       2.962   5.522  18.546  0.00  0.00    +0.000 C 
ATOM     24  O   UNL     1       2.327   6.448  18.084  0.00  0.00    +0.000 OA
ENDBRANCH  13  14
ENDBRANCH   4  13
TORSDOF 4
ENDMDL
MODEL 5
REMARK VINA RESULT:      -7.5      2.832      7.144
REMARK  Name = 
REMARK  4 active torsions:
REMARK  status: ('A' for Active; 'I' for Inactive)
REMARK    1  A    between atoms: C_2  and  C_5
REMARK    2  A    between atoms: N_3  and  O_4
REMARK    3  A    between atoms: C_8  and  C_9
REMARK    4  A    between atoms: C_9  and  N_10
REMARK                            x       y       z     vdW  Elec       q    Type
REMARK                         _______ _______ _______ _____ _____    ______ ____
ROOT
ATOM      1  C   UNL     1       2.367   7.934  18.597  0.00  0.00    +0.000 A 
ATOM      2  C   UNL     1       3.316   8.073  17.580  0.00  0.00    +0.000 A 
ATOM      3  C   UNL     1       4.355   7.144  17.459  0.00  0.00    +0.000 A 
ATOM      4  C   UNL     1       4.443   6.050  18.335  0.00  0.00    +0.000 A 
ATOM      5  C   UNL     1       3.464   5.899  19.329  0.00  0.00    +0.000 A 
ATOM      6  C   UNL     1       2.430   6.833  19.459  0.00  0.00    +0.000 A 
ENDROOT
BRANCH   1   8
ATOM      7  O   UNL     1       0.884   9.307  19.843  0.00  0.00    +0.000 OA
ATOM      8  C   UNL     1       1.307   8.965  18.744  0.00  0.00    +0.000 C 
ATOM      9  N   UNL     1       0.791   9.457  17.564  0.00  0.00    +0.000 N 
ATOM     10  H   UNL     1       0.853   8.931  16.698  0.00  0.00    +0.000 HD
BRANCH   9  11
ATOM     11  O   UNL     1      -0.341  10.295  17.700  0.00  0.00    +0.000 OA
ATOM     12  H   UNL     1      -0.725   9.990  18.552  0.00  0.00    +0.000 HD
ENDBRANCH   9  11
ENDBRANCH   1   8
BRANCH   4  13
ATOM     13  C   UNL     1       5.560   5.039  18.191  0.00  0.00    +0.000 C 
BRANCH  13  14
ATOM     14  N   UNL     1       5.923   4.778  16.813  0.00  0.00    +0.000 N 
ATOM     15  C   UNL     1       5.204   3.955  15.989  0.00  0.00    +0.000 C 
ATOM     16  O   UNL     1       4.232   3.271  16.243  0.00  0.00    +0.000 OA
ATOM     17  C   UNL     1       5.806   4.060  14.660  0.00  0.00    +0.000 A 
ATOM     18  C   UNL     1       5.445   3.461  13.469  0.00  0.00    +0.000 A 
ATOM     19  C   UNL     1       6.219   3.757  12.343  0.00  0.00    +0.000 A 
ATOM     20  C   UNL     1       7.320   4.634  12.435  0.00  0.00    +0.000 A 
ATOM     21  C   UNL     1       7.651   5.246  13.651  0.00  0.00    +0.000 A 
ATOM     22  C   UNL     1       6.867   4.941  14.750  0.00  0.00    +0.000 A 
ATOM     23  C   UNL     1       6.910   5.436  16.131  0.00  0.00    +0.000 C 
ATOM     24  O   UNL     1       7.662   6.309  16.519  0.00  0.00    +0.000 OA
ENDBRANCH  13  14
ENDBRANCH   4  13
TORSDOF 4
ENDMDL
MODEL 6
REMARK VINA RESULT:      -7.5      3.150      7.226
REMARK  Name = 
REMARK  4 active torsions:
REMARK  status: ('A' for Active; 'I' for Inactive)
REMARK    1  A    between atoms: C_2  and  C_5
REMARK    2  A    between atoms: N_3  and  O_4
REMARK    3  A    between atoms: C_8  and  C_9
REMARK    4  A    between atoms: C_9  and  N_10
REMARK                            x       y       z     vdW  Elec       q    Type
REMARK                         _______ _______ _______ _____ _____    ______ ____
ROOT
ATOM      1  C   UNL     1       1.311   9.208  19.417  0.00  0.00    +0.000 A 
ATOM      2  C   UNL     1       1.974   8.610  18.341  0.00  0.00    +0.000 A 
ATOM      3  C   UNL     1       2.537   7.337  18.485  0.00  0.00    +0.000 A 
ATOM      4  C   UNL     1       2.418   6.634  19.695  0.00  0.00    +0.000 A 
ATOM      5  C   UNL     1       1.717   7.228  20.756  0.00  0.00    +0.000 A 
ATOM      6  C   UNL     1       1.164   8.506  20.619  0.00  0.00    +0.000 A 
ENDROOT
BRANCH   1   8
ATOM      7  O   UNL     1      -0.188  10.983  19.908  0.00  0.00    +0.000 OA
ATOM      8  C   UNL     1       0.775  10.585  19.261  0.00  0.00    +0.000 C 
ATOM      9  N   UNL     1       1.391  11.355  18.297  0.00  0.00    +0.000 N 
ATOM     10  H   UNL     1       1.903  10.934  17.529  0.00  0.00    +0.000 HD
BRANCH   9  11
ATOM     11  O   UNL     1       0.764  12.593  18.019  0.00  0.00    +0.000 OA
ATOM     12  H   UNL     1       1.178  12.850  17.165  0.00  0.00    +0.000 HD
ENDBRANCH   9  11
ENDBRANCH   1   8
BRANCH   4  13
ATOM     13  C   UNL     1       3.013   5.250  19.841  0.00  0.00    +0.000 C 
BRANCH  13  14
ATOM     14  N   UNL     1       3.939   4.909  18.780  0.00  0.00    +0.000 N 
ATOM     15  C   UNL     1       3.542   4.436  17.559  0.00  0.00    +0.000 C 
ATOM     16  O   UNL     1       2.425   4.157  17.168  0.00  0.00    +0.000 OA
ATOM     17  C   UNL     1       4.745   4.344  16.733  0.00  0.00    +0.000 A 
ATOM     18  C   UNL     1       4.892   3.954  15.415  0.00  0.00    +0.000 A 
ATOM     19  C   UNL     1       6.186   3.969  14.885  0.00  0.00    +0.000 A 
ATOM     20  C   UNL     1       7.284   4.369  15.673  0.00  0.00    +0.000 A 
ATOM     21  C   UNL     1       7.104   4.782  16.999  0.00  0.00    +0.000 A 
ATOM     22  C   UNL     1       5.815   4.762  17.501  0.00  0.00    +0.000 A 
ATOM     23  C   UNL     1       5.282   5.169  18.807  0.00  0.00    +0.000 C 
ATOM     24  O   UNL     1       5.948   5.688  19.682  0.00  0.00    +0.000 OA
ENDBRANCH  13  14
ENDBRANCH   4  13
TORSDOF 4
ENDMDL
MODEL 7
REMARK VINA RESULT:      -7.4      3.135      7.289
REMARK  Name = 
REMARK  4 active torsions:
REMARK  status: ('A' for Active; 'I' for Inactive)
REMARK    1  A    between atoms: C_2  and  C_5
REMARK    2  A    between atoms: N_3  and  O_4
REMARK    3  A    between atoms: C_8  and  C_9
REMARK    4  A    between atoms: C_9  and  N_10
REMARK                            x       y       z     vdW  Elec       q    Type
REMARK                         _______ _______ _______ _____ _____    ______ ____
ROOT
ATOM      1  C   UNL     1       1.296   9.167  19.505  0.00  0.00    +0.000 A 
ATOM      2  C   UNL     1       1.204   8.458  20.706  0.00  0.00    +0.000 A 
ATOM      3  C   UNL     1       1.730   7.165  20.799  0.00  0.00    +0.000 A 
ATOM      4  C   UNL     1       2.380   6.576  19.703  0.00  0.00    +0.000 A 
ATOM      5  C   UNL     1       2.502   7.311  18.514  0.00  0.00    +0.000 A 
ATOM      6  C   UNL     1       1.966   8.600  18.414  0.00  0.00    +0.000 A 
ENDROOT
BRANCH   1   8
ATOM      7  O   UNL     1      -0.015  10.975  20.312  0.00  0.00    +0.000 OA
ATOM      8  C   UNL     1       0.678  10.515  19.410  0.00  0.00    +0.000 C 
ATOM      9  N   UNL     1       0.879  11.176  18.217  0.00  0.00    +0.000 N 
ATOM     10  H   UNL     1       1.108  10.676  17.365  0.00  0.00    +0.000 HD
BRANCH   9  11
ATOM     11  O   UNL     1       0.140  12.371  18.054  0.00  0.00    +0.000 OA
ATOM     12  H   UNL     1       0.400  12.888  18.849  0.00  0.00    +0.000 HD
ENDBRANCH   9  11
ENDBRANCH   1   8
BRANCH   4  13
ATOM     13  C   UNL     1       2.963   5.183  19.813  0.00  0.00    +0.000 C 
BRANCH  13  14
ATOM     14  N   UNL     1       3.908   4.872  18.760  0.00  0.00    +0.000 N 
ATOM     15  C   UNL     1       3.535   4.410  17.527  0.00  0.00    +0.000 C 
ATOM     16  O   UNL     1       2.427   4.120  17.117  0.00  0.00    +0.000 OA
ATOM     17  C   UNL     1       4.749   4.349  16.715  0.00  0.00    +0.000 A 
ATOM     18  C   UNL     1       4.920   3.980  15.395  0.00  0.00    +0.000 A 
ATOM     19  C   UNL     1       6.220   4.023  14.882  0.00  0.00    +0.000 A 
ATOM     20  C   UNL     1       7.302   4.428  15.691  0.00  0.00    +0.000 A 
ATOM     21  C   UNL     1       7.098   4.818  17.020  0.00  0.00    +0.000 A 
ATOM     22  C   UNL     1       5.802   4.772  17.504  0.00  0.00    +0.000 A 
ATOM     23  C   UNL     1       5.246   5.152  18.809  0.00  0.00    +0.000 C 
ATOM     24  O   UNL     1       5.892   5.668  19.700  0.00  0.00    +0.000 OA
ENDBRANCH  13  14
ENDBRANCH   4  13
TORSDOF 4
ENDMDL
MODEL 8
REMARK VINA RESULT:      -7.4      2.855      7.180
REMARK  Name = 
REMARK  4 active torsions:
REMARK  status: ('A' for Active; 'I' for Inactive)
REMARK    1  A    between atoms: C_2  and  C_5
REMARK    2  A    between atoms: N_3  and  O_4
REMARK    3  A    between atoms: C_8  and  C_9
REMARK    4  A    between atoms: C_9  and  N_10
REMARK                            x       y       z     vdW  Elec       q    Type
REMARK                         _______ _______ _______ _____ _____    ______ ____
ROOT
ATOM      1  C   UNL     1       2.360   7.986  18.594  0.00  0.00    +0.000 A 
ATOM      2  C   UNL     1       2.487   6.962  19.538  0.00  0.00    +0.000 A 
ATOM      3  C   UNL     1       3.490   5.996  19.393  0.00  0.00    +0.000 A 
ATOM      4  C   UNL     1       4.394   6.058  18.321  0.00  0.00    +0.000 A 
ATOM      5  C   UNL     1       4.282   7.112  17.401  0.00  0.00    +0.000 A 
ATOM      6  C   UNL     1       3.274   8.072  17.536  0.00  0.00    +0.000 A 
ENDROOT
BRANCH   1   8
ATOM      7  O   UNL     1       0.740   9.215  19.820  0.00  0.00    +0.000 OA
ATOM      8  C   UNL     1       1.252   8.965  18.733  0.00  0.00    +0.000 C 
ATOM      9  N   UNL     1       0.798   9.518  17.555  0.00  0.00    +0.000 N 
ATOM     10  H   UNL     1       0.941   9.056  16.663  0.00  0.00    +0.000 HD
BRANCH   9  11
ATOM     11  O   UNL     1      -0.374  10.303  17.665  0.00  0.00    +0.000 OA
ATOM     12  H   UNL     1      -1.067   9.694  17.327  0.00  0.00    +0.000 HD
ENDBRANCH   9  11
ENDBRANCH   1   8
BRANCH   4  13
ATOM     13  C   UNL     1       5.488   5.021  18.178  0.00  0.00    +0.000 C 
BRANCH  13  14
ATOM     14  N   UNL     1       5.860   4.766  16.801  0.00  0.00    +0.000 N 
ATOM     15  C   UNL     1       5.125   3.980  15.957  0.00  0.00    +0.000 C 
ATOM     16  O   UNL     1       4.126   3.326  16.188  0.00  0.00    +0.000 OA
ATOM     17  C   UNL     1       5.748   4.082  14.638  0.00  0.00    +0.000 A 
ATOM     18  C   UNL     1       5.382   3.511  13.433  0.00  0.00    +0.000 A 
ATOM     19  C   UNL     1       6.182   3.795  12.322  0.00  0.00    +0.000 A 
ATOM     20  C   UNL     1       7.310   4.632  12.441  0.00  0.00    +0.000 A 
ATOM     21  C   UNL     1       7.646   5.216  13.669  0.00  0.00    +0.000 A 
ATOM     22  C   UNL     1       6.837   4.924  14.753  0.00  0.00    +0.000 A 
ATOM     23  C   UNL     1       6.879   5.399  16.142  0.00  0.00    +0.000 C 
ATOM     24  O   UNL     1       7.655   6.240  16.551  0.00  0.00    +0.000 OA
ENDBRANCH  13  14
ENDBRANCH   4  13
TORSDOF 4
ENDMDL
MODEL 9
REMARK VINA RESULT:      -7.4      3.141      4.737
REMARK  Name = 
REMARK  4 active torsions:
REMARK  status: ('A' for Active; 'I' for Inactive)
REMARK    1  A    between atoms: C_2  and  C_5
REMARK    2  A    between atoms: N_3  and  O_4
REMARK    3  A    between atoms: C_8  and  C_9
REMARK    4  A    between atoms: C_9  and  N_10
REMARK                            x       y       z     vdW  Elec       q    Type
REMARK                         _______ _______ _______ _____ _____    ______ ____
ROOT
ATOM      1  C   UNL     1       7.221   7.232  17.623  0.00  0.00    +0.000 A 
ATOM      2  C   UNL     1       7.829   6.014  17.938  0.00  0.00    +0.000 A 
ATOM      3  C   UNL     1       7.150   4.812  17.710  0.00  0.00    +0.000 A 
ATOM      4  C   UNL     1       5.867   4.811  17.140  0.00  0.00    +0.000 A 
ATOM      5  C   UNL     1       5.281   6.037  16.792  0.00  0.00    +0.000 A 
ATOM      6  C   UNL     1       5.953   7.242  17.029  0.00  0.00    +0.000 A 
ENDROOT
BRANCH   1   8
ATOM      7  O   UNL     1       7.885   9.468  17.180  0.00  0.00    +0.000 OA
ATOM      8  C   UNL     1       7.935   8.498  17.930  0.00  0.00    +0.000 C 
ATOM      9  N   UNL     1       8.706   8.482  19.072  0.00  0.00    +0.000 N 
ATOM     10  H   UNL     1       9.047   7.613  19.470  0.00  0.00    +0.000 HD
BRANCH   9  11
ATOM     11  O   UNL     1       9.529   9.617  19.264  0.00  0.00    +0.000 OA
ATOM     12  H   UNL     1       9.002  10.153  19.897  0.00  0.00    +0.000 HD
ENDBRANCH   9  11
ENDBRANCH   1   8
BRANCH   4  13
ATOM     13  C   UNL     1       5.143   3.507  16.880  0.00  0.00    +0.000 C 
BRANCH  13  14
ATOM     14  N   UNL     1       4.090   3.235  17.837  0.00  0.00    +0.000 N 
ATOM     15  C   UNL     1       4.316   3.068  19.176  0.00  0.00    +0.000 C 
ATOM     16  O   UNL     1       5.370   3.042  19.781  0.00  0.00    +0.000 OA
ATOM     17  C   UNL     1       3.005   2.951  19.812  0.00  0.00    +0.000 A 
ATOM     18  C   UNL     1       2.672   2.799  21.145  0.00  0.00    +0.000 A 
ATOM     19  C   UNL     1       1.312   2.717  21.459  0.00  0.00    +0.000 A 
ATOM     20  C   UNL     1       0.333   2.788  20.448  0.00  0.00    +0.000 A 
ATOM     21  C   UNL     1       0.696   2.964  19.107  0.00  0.00    +0.000 A 
ATOM     22  C   UNL     1       2.047   3.048  18.820  0.00  0.00    +0.000 A 
ATOM     23  C   UNL     1       2.752   3.277  17.553  0.00  0.00    +0.000 C 
ATOM     24  O   UNL     1       2.196   3.513  16.498  0.00  0.00    +0.000 OA
ENDBRANCH  13  14
ENDBRANCH   4  13
TORSDOF 4
ENDMDL
