MODEL 1
REMARK VINA RESULT:      -6.7      0.000      0.000
REMARK  Name = 
REMARK  6 active torsions:
REMARK  status: ('A' for Active; 'I' for Inactive)
REMARK    1  A    between atoms: C_1  and  N_2
REMARK    2  A    between atoms: N_2  and  C_3
REMARK    3  A    between atoms: N_2  and  C_4
REMARK    4  A    between atoms: C_5  and  C_6
REMARK    5  A    between atoms: C_6  and  C_8
REMARK    6  A    between atoms: C_13  and  N_14
REMARK                            x       y       z     vdW  Elec       q    Type
REMARK                         _______ _______ _______ _____ _____    ______ ____
ROOT
ATOM      1  C   UNL     1       5.519   5.059  15.812  0.00  0.00    +0.000 A 
ATOM      2  C   UNL     1       5.239   6.378  16.205  0.00  0.00    +0.000 A 
ATOM      3  C   UNL     1       4.266   6.638  17.176  0.00  0.00    +0.000 A 
ATOM      4  C   UNL     1       3.547   5.590  17.756  0.00  0.00    +0.000 A 
ATOM      5 CL   UNL     1       2.408   5.990  18.988  0.00  0.00    +0.000 Cl
ATOM      6  C   UNL     1       3.811   4.286  17.333  0.00  0.00    +0.000 A 
ATOM      7  C   UNL     1       4.789   4.004  16.367  0.00  0.00    +0.000 A 
ENDROOT
BRANCH   6   8
ATOM      8  N   UNL     1       3.078   3.174  17.896  0.00  0.00    +0.000 N 
ATOM      9  O   UNL     1       2.069   2.792  17.290  0.00  0.00    +0.000 OA
ATOM     10  O   UNL     1       3.545   2.662  18.922  0.00  0.00    +0.000 OA
ENDBRANCH   6   8
BRANCH   1  11
ATOM     11  C   UNL     1       6.556   4.756  14.787  0.00  0.00    +0.000 C 
ATOM     12  O   UNL     1       7.606   5.387  14.770  0.00  0.00    +0.000 OA
BRANCH  11  14
ATOM     13  C   UNL     1       5.363   3.922  12.794  0.00  0.00    +0.000 C 
ATOM     14  C   UNL     1       6.226   3.702  13.794  0.00  0.00    +0.000 C 
BRANCH  13  16
ATOM     15  C   UNL     1       5.807   1.870  11.474  0.00  0.00    +0.000 C 
ATOM     16  N   UNL     1       4.987   3.040  11.788  0.00  0.00    +0.000 N 
ATOM     17  C   UNL     1       3.785   3.228  10.978  0.00  0.00    +0.000 C 
ENDBRANCH  13  16
ENDBRANCH  11  14
ENDBRANCH   1  11
TORSDOF 4
ENDMDL
MODEL 2
REMARK VINA RESULT:      -6.6      0.242      1.164
REMARK  Name = 
REMARK  6 active torsions:
REMARK  status: ('A' for Active; 'I' for Inactive)
REMARK    1  A    between atoms: C_1  and  N_2
REMARK    2  A    between atoms: N_2  and  C_3
REMARK    3  A    between atoms: N_2  and  C_4
REMARK    4  A    between atoms: C_5  and  C_6
REMARK    5  A    between atoms: C_6  and  C_8
REMARK    6  A    between atoms: C_13  and  N_14
REMARK                            x       y       z     vdW  Elec       q    Type
REMARK                         _______ _______ _______ _____ _____    ______ ____
ROOT
ATOM      1  C   UNL     1       5.669   5.118  15.595  0.00  0.00    +0.000 A 
ATOM      2  C   UNL     1       5.354   6.441  15.944  0.00  0.00    +0.000 A 
ATOM      3  C   UNL     1       4.369   6.709  16.900  0.00  0.00    +0.000 A 
ATOM      4  C   UNL     1       3.671   5.662  17.508  0.00  0.00    +0.000 A 
ATOM      5 CL   UNL     1       2.514   6.074  18.719  0.00  0.00    +0.000 Cl
ATOM      6  C   UNL     1       3.968   4.353  17.129  0.00  0.00    +0.000 A 
ATOM      7  C   UNL     1       4.960   4.064  16.179  0.00  0.00    +0.000 A 
ENDROOT
BRANCH   6   8
ATOM      8  N   UNL     1       3.259   3.241  17.722  0.00  0.00    +0.000 N 
ATOM      9  O   UNL     1       3.760   2.716  18.724  0.00  0.00    +0.000 OA
ATOM     10  O   UNL     1       2.179   2.929  17.202  0.00  0.00    +0.000 OA
ENDBRANCH   6   8
BRANCH   1  11
ATOM     11  C   UNL     1       6.720   4.808  14.587  0.00  0.00    +0.000 C 
ATOM     12  O   UNL     1       7.771   5.436  14.583  0.00  0.00    +0.000 OA
BRANCH  11  14
ATOM     13  C   UNL     1       5.386   3.876  12.732  0.00  0.00    +0.000 C 
ATOM     14  C   UNL     1       6.402   3.749  13.595  0.00  0.00    +0.000 C 
BRANCH  13  16
ATOM     15  C   UNL     1       3.743   3.170  11.013  0.00  0.00    +0.000 C 
ATOM     16  N   UNL     1       4.998   2.982  11.741  0.00  0.00    +0.000 N 
ATOM     17  C   UNL     1       5.788   1.805  11.382  0.00  0.00    +0.000 C 
ENDBRANCH  13  16
ENDBRANCH  11  14
ENDBRANCH   1  11
TORSDOF 4
ENDMDL
MODEL 3
REMARK VINA RESULT:      -6.5      0.838      1.184
REMARK  Name = 
REMARK  6 active torsions:
REMARK  status: ('A' for Active; 'I' for Inactive)
REMARK    1  A    between atoms: C_1  and  N_2
REMARK    2  A    between atoms: N_2  and  C_3
REMARK    3  A    between atoms: N_2  and  C_4
REMARK    4  A    between atoms: C_5  and  C_6
REMARK    5  A    between atoms: C_6  and  C_8
REMARK    6  A    between atoms: C_13  and  N_14
REMARK                            x       y       z     vdW  Elec       q    Type
REMARK                         _______ _______ _______ _____ _____    ______ ____
ROOT
ATOM      1  C   UNL     1       5.532   5.187  16.030  0.00  0.00    +0.000 A 
ATOM      2  C   UNL     1       4.994   6.446  16.340  0.00  0.00    +0.000 A 
ATOM      3  C   UNL     1       4.227   6.625  17.497  0.00  0.00    +0.000 A 
ATOM      4  C   UNL     1       3.972   5.547  18.350  0.00  0.00    +0.000 A 
ATOM      5 CL   UNL     1       3.068   5.864  19.785  0.00  0.00    +0.000 Cl
ATOM      6  C   UNL     1       4.485   4.294  18.013  0.00  0.00    +0.000 A 
ATOM      7  C   UNL     1       5.264   4.097  16.863  0.00  0.00    +0.000 A 
ENDROOT
BRANCH   6   8
ATOM      8  N   UNL     1       4.231   3.150  18.860  0.00  0.00    +0.000 N 
ATOM      9  O   UNL     1       5.035   2.930  19.775  0.00  0.00    +0.000 OA
ATOM     10  O   UNL     1       3.202   2.502  18.626  0.00  0.00    +0.000 OA
ENDBRANCH   6   8
BRANCH   1  11
ATOM     11  C   UNL     1       6.360   4.975  14.810  0.00  0.00    +0.000 C 
ATOM     12  O   UNL     1       7.544   5.286  14.809  0.00  0.00    +0.000 OA
BRANCH  11  14
ATOM     13  C   UNL     1       6.124   3.338  12.978  0.00  0.00    +0.000 C 
ATOM     14  C   UNL     1       5.664   4.419  13.620  0.00  0.00    +0.000 C 
BRANCH  13  16
ATOM     15  C   UNL     1       6.241   1.576  11.235  0.00  0.00    +0.000 C 
ATOM     16  N   UNL     1       5.561   2.701  11.878  0.00  0.00    +0.000 N 
ATOM     17  C   UNL     1       4.291   3.118  11.286  0.00  0.00    +0.000 C 
ENDBRANCH  13  16
ENDBRANCH  11  14
ENDBRANCH   1  11
TORSDOF 4
ENDMDL
MODEL 4
REMARK VINA RESULT:      -6.5      1.407      1.628
REMARK  Name = 
REMARK  6 active torsions:
REMARK  status: ('A' for Active; 'I' for Inactive)
REMARK    1  A    between atoms: C_1  and  N_2
REMARK    2  A    between atoms: N_2  and  C_3
REMARK    3  A    between atoms: N_2  and  C_4
REMARK    4  A    between atoms: C_5  and  C_6
REMARK    5  A    between atoms: C_6  and  C_8
REMARK    6  A    between atoms: C_13  and  N_14
REMARK                            x       y       z     vdW  Elec       q    Type
REMARK                         _______ _______ _______ _____ _____    ______ ____
ROOT
ATOM      1  C   UNL     1       5.502   4.509  16.968  0.00  0.00    +0.000 A 
ATOM      2  C   UNL     1       5.865   5.125  18.176  0.00  0.00    +0.000 A 
ATOM      3  C   UNL     1       4.954   5.201  19.236  0.00  0.00    +0.000 A 
ATOM      4  C   UNL     1       3.665   4.680  19.099  0.00  0.00    +0.000 A 
ATOM      5 CL   UNL     1       2.624   4.760  20.472  0.00  0.00    +0.000 Cl
ATOM      6  C   UNL     1       3.305   4.100  17.882  0.00  0.00    +0.000 A 
ATOM      7  C   UNL     1       4.207   4.006  16.811  0.00  0.00    +0.000 A 
ENDROOT
BRANCH   6   8
ATOM      8  N   UNL     1       1.976   3.563  17.694  0.00  0.00    +0.000 N 
ATOM      9  O   UNL     1       1.795   2.375  17.990  0.00  0.00    +0.000 OA
ATOM     10  O   UNL     1       1.110   4.350  17.288  0.00  0.00    +0.000 OA
ENDBRANCH   6   8
BRANCH   1  11
ATOM     11  C   UNL     1       6.457   4.408  15.829  0.00  0.00    +0.000 C 
ATOM     12  O   UNL     1       7.536   4.984  15.879  0.00  0.00    +0.000 OA
BRANCH  11  14
ATOM     13  C   UNL     1       6.374   3.949  13.405  0.00  0.00    +0.000 C 
ATOM     14  C   UNL     1       6.009   3.620  14.651  0.00  0.00    +0.000 C 
BRANCH  13  16
ATOM     15  C   UNL     1       7.081   2.591  11.454  0.00  0.00    +0.000 C 
ATOM     16  N   UNL     1       6.052   3.288  12.226  0.00  0.00    +0.000 N 
ATOM     17  C   UNL     1       4.698   3.265  11.674  0.00  0.00    +0.000 C 
ENDBRANCH  13  16
ENDBRANCH  11  14
ENDBRANCH   1  11
TORSDOF 4
ENDMDL
MODEL 5
REMARK VINA RESULT:      -6.4      3.776      4.970
REMARK  Name = 
REMARK  6 active torsions:
REMARK  status: ('A' for Active; 'I' for Inactive)
REMARK    1  A    between atoms: C_1  and  N_2
REMARK    2  A    between atoms: N_2  and  C_3
REMARK    3  A    between atoms: N_2  and  C_4
REMARK    4  A    between atoms: C_5  and  C_6
REMARK    5  A    between atoms: C_6  and  C_8
REMARK    6  A    between atoms: C_13  and  N_14
REMARK                            x       y       z     vdW  Elec       q    Type
REMARK                         _______ _______ _______ _____ _____    ______ ____
ROOT
ATOM      1  C   UNL     1       2.450   6.124  18.726  0.00  0.00    +0.000 A 
ATOM      2  C   UNL     1       2.302   6.294  20.112  0.00  0.00    +0.000 A 
ATOM      3  C   UNL     1       1.906   5.223  20.921  0.00  0.00    +0.000 A 
ATOM      4  C   UNL     1       1.636   3.973  20.357  0.00  0.00    +0.000 A 
ATOM      5 CL   UNL     1       1.212   2.691  21.430  0.00  0.00    +0.000 Cl
ATOM      6  C   UNL     1       1.755   3.825  18.975  0.00  0.00    +0.000 A 
ATOM      7  C   UNL     1       2.160   4.884  18.149  0.00  0.00    +0.000 A 
ENDROOT
BRANCH   6   8
ATOM      8  N   UNL     1       1.470   2.553  18.350  0.00  0.00    +0.000 N 
ATOM      9  O   UNL     1       2.424   1.930  17.867  0.00  0.00    +0.000 OA
ATOM     10  O   UNL     1       0.294   2.167  18.384  0.00  0.00    +0.000 OA
ENDBRANCH   6   8
BRANCH   1  11
ATOM     11  C   UNL     1       2.880   7.246  17.846  0.00  0.00    +0.000 C 
ATOM     12  O   UNL     1       2.146   8.212  17.680  0.00  0.00    +0.000 OA
BRANCH  11  14
ATOM     13  C   UNL     1       5.251   6.564  17.800  0.00  0.00    +0.000 C 
ATOM     14  C   UNL     1       4.196   7.100  17.173  0.00  0.00    +0.000 C 
BRANCH  13  16
ATOM     15  C   UNL     1       7.604   7.299  17.527  0.00  0.00    +0.000 C 
ATOM     16  N   UNL     1       6.523   6.345  17.283  0.00  0.00    +0.000 N 
ATOM     17  C   UNL     1       6.854   5.183  16.460  0.00  0.00    +0.000 C 
ENDBRANCH  13  16
ENDBRANCH  11  14
ENDBRANCH   1  11
TORSDOF 4
ENDMDL
MODEL 6
REMARK VINA RESULT:      -6.4      1.525      1.862
REMARK  Name = 
REMARK  6 active torsions:
REMARK  status: ('A' for Active; 'I' for Inactive)
REMARK    1  A    between atoms: C_1  and  N_2
REMARK    2  A    between atoms: N_2  and  C_3
REMARK    3  A    between atoms: N_2  and  C_4
REMARK    4  A    between atoms: C_5  and  C_6
REMARK    5  A    between atoms: C_6  and  C_8
REMARK    6  A    between atoms: C_13  and  N_14
REMARK                            x       y       z     vdW  Elec       q    Type
REMARK                         _______ _______ _______ _____ _____    ______ ____
ROOT
ATOM      1  C   UNL     1       5.380   4.700  17.399  0.00  0.00    +0.000 A 
ATOM      2  C   UNL     1       5.524   5.369  18.625  0.00  0.00    +0.000 A 
ATOM      3  C   UNL     1       4.470   5.400  19.546  0.00  0.00    +0.000 A 
ATOM      4  C   UNL     1       3.254   4.779  19.249  0.00  0.00    +0.000 A 
ATOM      5 CL   UNL     1       2.027   4.811  20.461  0.00  0.00    +0.000 Cl
ATOM      6  C   UNL     1       3.112   4.146  18.013  0.00  0.00    +0.000 A 
ATOM      7  C   UNL     1       4.160   4.097  17.081  0.00  0.00    +0.000 A 
ENDROOT
BRANCH   6   8
ATOM      8  N   UNL     1       1.864   3.506  17.660  0.00  0.00    +0.000 N 
ATOM      9  O   UNL     1       0.980   4.216  17.165  0.00  0.00    +0.000 OA
ATOM     10  O   UNL     1       1.795   2.283  17.843  0.00  0.00    +0.000 OA
ENDBRANCH   6   8
BRANCH   1  11
ATOM     11  C   UNL     1       6.490   4.646  16.408  0.00  0.00    +0.000 C 
ATOM     12  O   UNL     1       7.651   4.573  16.789  0.00  0.00    +0.000 OA
BRANCH  11  14
ATOM     13  C   UNL     1       6.435   3.762  14.104  0.00  0.00    +0.000 C 
ATOM     14  C   UNL     1       6.109   4.726  14.974  0.00  0.00    +0.000 C 
BRANCH  13  16
ATOM     15  C   UNL     1       7.130   3.989  11.734  0.00  0.00    +0.000 C 
ATOM     16  N   UNL     1       6.120   3.698  12.752  0.00  0.00    +0.000 N 
ATOM     17  C   UNL     1       4.783   3.364  12.264  0.00  0.00    +0.000 C 
ENDBRANCH  13  16
ENDBRANCH  11  14
ENDBRANCH   1  11
TORSDOF 4
ENDMDL
MODEL 7
REMARK VINA RESULT:      -6.3      1.195      1.595
REMARK  Name = 
REMARK  6 active torsions:
REMARK  status: ('A' for Active; 'I' for Inactive)
REMARK    1  A    between atoms: C_1  and  N_2
REMARK    2  A    between atoms: N_2  and  C_3
REMARK    3  A    between atoms: N_2  and  C_4
REMARK    4  A    between atoms: C_5  and  C_6
REMARK    5  A    between atoms: C_6  and  C_8
REMARK    6  A    between atoms: C_13  and  N_14
REMARK                            x       y       z     vdW  Elec       q    Type
REMARK                         _______ _______ _______ _____ _____    ______ ____
ROOT
ATOM      1  C   UNL     1       5.740   4.584  16.453  0.00  0.00    +0.000 A 
ATOM      2  C   UNL     1       6.190   5.153  17.656  0.00  0.00    +0.000 A 
ATOM      3  C   UNL     1       5.409   5.075  18.814  0.00  0.00    +0.000 A 
ATOM      4  C   UNL     1       4.163   4.445  18.786  0.00  0.00    +0.000 A 
ATOM      5 CL   UNL     1       3.290   4.339  20.270  0.00  0.00    +0.000 Cl
ATOM      6  C   UNL     1       3.712   3.912  17.577  0.00  0.00    +0.000 A 
ATOM      7  C   UNL     1       4.484   3.972  16.408  0.00  0.00    +0.000 A 
ENDROOT
BRANCH   6   8
ATOM      8  N   UNL     1       2.421   3.265  17.501  0.00  0.00    +0.000 N 
ATOM      9  O   UNL     1       2.392   2.036  17.637  0.00  0.00    +0.000 OA
ATOM     10  O   UNL     1       1.437   4.002  17.346  0.00  0.00    +0.000 OA
ENDBRANCH   6   8
BRANCH   1  11
ATOM     11  C   UNL     1       6.557   4.646  15.210  0.00  0.00    +0.000 C 
ATOM     12  O   UNL     1       7.404   5.520  15.074  0.00  0.00    +0.000 OA
BRANCH  11  14
ATOM     13  C   UNL     1       5.587   3.955  13.048  0.00  0.00    +0.000 C 
ATOM     14  C   UNL     1       6.257   3.636  14.163  0.00  0.00    +0.000 C 
BRANCH  13  16
ATOM     15  C   UNL     1       4.050   3.344  11.200  0.00  0.00    +0.000 C 
ATOM     16  N   UNL     1       5.265   3.121  11.984  0.00  0.00    +0.000 N 
ATOM     17  C   UNL     1       6.088   1.976  11.597  0.00  0.00    +0.000 C 
ENDBRANCH  13  16
ENDBRANCH  11  14
ENDBRANCH   1  11
TORSDOF 4
ENDMDL
MODEL 8
REMARK VINA RESULT:      -6.3      2.566      3.020
REMARK  Name = 
REMARK  6 active torsions:
REMARK  status: ('A' for Active; 'I' for Inactive)
REMARK    1  A    between atoms: C_1  and  N_2
REMARK    2  A    between atoms: N_2  and  C_3
REMARK    3  A    between atoms: N_2  and  C_4
REMARK    4  A    between atoms: C_5  and  C_6
REMARK    5  A    between atoms: C_6  and  C_8
REMARK    6  A    between atoms: C_13  and  N_14
REMARK                            x       y       z     vdW  Elec       q    Type
REMARK                         _______ _______ _______ _____ _____    ______ ____
ROOT
ATOM      1  C   UNL     1       6.361   4.864  15.610  0.00  0.00    +0.000 A 
ATOM      2  C   UNL     1       5.014   4.549  15.854  0.00  0.00    +0.000 A 
ATOM      3  C   UNL     1       4.465   4.713  17.130  0.00  0.00    +0.000 A 
ATOM      4  C   UNL     1       5.256   5.177  18.185  0.00  0.00    +0.000 A 
ATOM      5 CL   UNL     1       4.489   5.409  19.713  0.00  0.00    +0.000 Cl
ATOM      6  C   UNL     1       6.601   5.455  17.939  0.00  0.00    +0.000 A 
ATOM      7  C   UNL     1       7.167   5.306  16.664  0.00  0.00    +0.000 A 
ENDROOT
BRANCH   6   8
ATOM      8  N   UNL     1       7.457   5.923  19.006  0.00  0.00    +0.000 N 
ATOM      9  O   UNL     1       8.129   6.939  18.792  0.00  0.00    +0.000 OA
ATOM     10  O   UNL     1       7.418   5.289  20.069  0.00  0.00    +0.000 OA
ENDBRANCH   6   8
BRANCH   1  11
ATOM     11  C   UNL     1       6.964   4.706  14.258  0.00  0.00    +0.000 C 
ATOM     12  O   UNL     1       7.816   5.496  13.869  0.00  0.00    +0.000 OA
BRANCH  11  14
ATOM     13  C   UNL     1       5.557   3.792  12.448  0.00  0.00    +0.000 C 
ATOM     14  C   UNL     1       6.451   3.589  13.424  0.00  0.00    +0.000 C 
BRANCH  13  16
ATOM     15  C   UNL     1       3.722   3.074  10.942  0.00  0.00    +0.000 C 
ATOM     16  N   UNL     1       5.018   2.848  11.582  0.00  0.00    +0.000 N 
ATOM     17  C   UNL     1       5.683   1.583  11.275  0.00  0.00    +0.000 C 
ENDBRANCH  13  16
ENDBRANCH  11  14
ENDBRANCH   1  11
TORSDOF 4
ENDMDL
MODEL 9
REMARK VINA RESULT:      -6.3      1.602      2.056
REMARK  Name = 
REMARK  6 active torsions:
REMARK  status: ('A' for Active; 'I' for Inactive)
REMARK    1  A    between atoms: C_1  and  N_2
REMARK    2  A    between atoms: N_2  and  C_3
REMARK    3  A    between atoms: N_2  and  C_4
REMARK    4  A    between atoms: C_5  and  C_6
REMARK    5  A    between atoms: C_6  and  C_8
REMARK    6  A    between atoms: C_13  and  N_14
REMARK                            x       y       z     vdW  Elec       q    Type
REMARK                         _______ _______ _______ _____ _____    ______ ____
ROOT
ATOM      1  C   UNL     1       5.410   4.485  17.466  0.00  0.00    +0.000 A 
ATOM      2  C   UNL     1       5.550   5.302  18.599  0.00  0.00    +0.000 A 
ATOM      3  C   UNL     1       4.485   5.470  19.491  0.00  0.00    +0.000 A 
ATOM      4  C   UNL     1       3.260   4.839  19.255  0.00  0.00    +0.000 A 
ATOM      5 CL   UNL     1       2.017   5.049  20.433  0.00  0.00    +0.000 Cl
ATOM      6  C   UNL     1       3.122   4.056  18.109  0.00  0.00    +0.000 A 
ATOM      7  C   UNL     1       4.182   3.869  17.208  0.00  0.00    +0.000 A 
ENDROOT
BRANCH   6   8
ATOM      8  N   UNL     1       1.867   3.399  17.819  0.00  0.00    +0.000 N 
ATOM      9  O   UNL     1       1.741   2.225  18.189  0.00  0.00    +0.000 OA
ATOM     10  O   UNL     1       0.998   4.080  17.258  0.00  0.00    +0.000 OA
ENDBRANCH   6   8
BRANCH   1  11
ATOM     11  C   UNL     1       6.532   4.283  16.509  0.00  0.00    +0.000 C 
ATOM     12  O   UNL     1       7.667   4.630  16.810  0.00  0.00    +0.000 OA
BRANCH  11  14
ATOM     13  C   UNL     1       6.463   4.322  14.042  0.00  0.00    +0.000 C 
ATOM     14  C   UNL     1       6.187   3.691  15.190  0.00  0.00    +0.000 C 
BRANCH  13  16
ATOM     15  C   UNL     1       4.903   3.367  12.366  0.00  0.00    +0.000 C 
ATOM     16  N   UNL     1       6.221   3.874  12.749  0.00  0.00    +0.000 N 
ATOM     17  C   UNL     1       7.250   3.856  11.710  0.00  0.00    +0.000 C 
ENDBRANCH  13  16
ENDBRANCH  11  14
ENDBRANCH   1  11
TORSDOF 4
ENDMDL
