MODEL 1
REMARK VINA RESULT:      -8.6      0.000      0.000
REMARK  Name = 
REMARK  8 active torsions:
REMARK  status: ('A' for Active; 'I' for Inactive)
REMARK    1  A    between atoms: C_1  and  O_2
REMARK    2  A    between atoms: O_2  and  C_3
REMARK    3  A    between atoms: C_6  and  C_7
REMARK    4  A    between atoms: C_9  and  C_10
REMARK    5  A    between atoms: N_12  and  C_13
REMARK    6  A    between atoms: C_13  and  C_14
REMARK    7  A    between atoms: C_14  and  C_15
REMARK    8  A    between atoms: C_15  and  N_16
REMARK                            x       y       z     vdW  Elec       q    Type
REMARK                         _______ _______ _______ _____ _____    ______ ____
ROOT
ATOM      1  C   UNL     1       2.466   6.590  19.060  0.00  0.00    +0.000 A 
ATOM      2  C   UNL     1       3.545   6.284  19.857  0.00  0.00    +0.000 A 
ATOM      3  C   UNL     1       4.272   5.147  19.578  0.00  0.00    +0.000 A 
ATOM      4  C   UNL     1       3.625   4.087  18.990  0.00  0.00    +0.000 A 
ATOM      5  C   UNL     1       4.095   2.769  19.156  0.00  0.00    +0.000 A 
ATOM      6  C   UNL     1       3.380   1.716  18.642  0.00  0.00    +0.000 A 
ATOM      7  C   UNL     1       2.230   1.974  17.903  0.00  0.00    +0.000 A 
ATOM      8  C   UNL     1       1.784   3.297  17.717  0.00  0.00    +0.000 A 
ATOM      9  C   UNL     1       2.435   4.377  18.294  0.00  0.00    +0.000 A 
ATOM     10  N   UNL     1       1.942   5.647  18.225  0.00  0.00    +0.000 NA
ENDROOT
BRANCH   1  14
ATOM     11  C   UNL     1       1.137  10.674  19.354  0.00  0.00    +0.000 A 
ATOM     12  C   UNL     1       1.625  10.190  18.154  0.00  0.00    +0.000 A 
ATOM     13  C   UNL     1       1.961   8.836  18.030  0.00  0.00    +0.000 A 
ATOM     14  C   UNL     1       1.860   7.939  19.121  0.00  0.00    +0.000 A 
ATOM     15  C   UNL     1       1.268   8.436  20.295  0.00  0.00    +0.000 A 
ATOM     16  C   UNL     1       0.924   9.793  20.413  0.00  0.00    +0.000 A 
BRANCH  11  18
ATOM     17  C   UNL     1       1.669  12.747  20.370  0.00  0.00    +0.000 C 
ATOM     18  O   UNL     1       0.941  12.031  19.387  0.00  0.00    +0.000 OA
ENDBRANCH  11  18
ENDBRANCH   1  14
BRANCH   3  19
ATOM     19  C   UNL     1       5.674   5.369  19.099  0.00  0.00    +0.000 C 
ATOM     20  O   UNL     1       6.631   5.187  19.836  0.00  0.00    +0.000 OA
ATOM     21  N   UNL     1       5.768   5.697  17.752  0.00  0.00    +0.000 N 
ATOM     22  H   UNL     1       4.946   5.575  17.173  0.00  0.00    +0.000 HD
BRANCH  21  23
ATOM     23  C   UNL     1       7.037   5.778  17.059  0.00  0.00    +0.000 C 
BRANCH  23  24
ATOM     24  C   UNL     1       7.238   4.530  16.197  0.00  0.00    +0.000 C 
BRANCH  24  25
ATOM     25  C   UNL     1       6.009   4.250  15.344  0.00  0.00    +0.000 C 
BRANCH  25  26
ATOM     26  N   UNL     1       6.361   4.193  13.936  0.00  0.00    +0.000 N 
ATOM     27  C   UNL     1       5.657   3.366  12.991  0.00  0.00    +0.000 C 
ATOM     28  C   UNL     1       6.616   3.276  11.821  0.00  0.00    +0.000 C 
ATOM     29  C   UNL     1       7.401   4.582  11.883  0.00  0.00    +0.000 C 
ATOM     30  C   UNL     1       7.398   4.906  13.356  0.00  0.00    +0.000 C 
ATOM     31  O   UNL     1       8.152   5.685  13.914  0.00  0.00    +0.000 OA
ENDBRANCH  25  26
ENDBRANCH  24  25
ENDBRANCH  23  24
ENDBRANCH  21  23
ENDBRANCH   3  19
TORSDOF 7
ENDMDL
MODEL 2
REMARK VINA RESULT:      -8.6      2.652      8.701
REMARK  Name = 
REMARK  8 active torsions:
REMARK  status: ('A' for Active; 'I' for Inactive)
REMARK    1  A    between atoms: C_1  and  O_2
REMARK    2  A    between atoms: O_2  and  C_3
REMARK    3  A    between atoms: C_6  and  C_7
REMARK    4  A    between atoms: C_9  and  C_10
REMARK    5  A    between atoms: N_12  and  C_13
REMARK    6  A    between atoms: C_13  and  C_14
REMARK    7  A    between atoms: C_14  and  C_15
REMARK    8  A    between atoms: C_15  and  N_16
REMARK                            x       y       z     vdW  Elec       q    Type
REMARK                         _______ _______ _______ _____ _____    ______ ____
ROOT
ATOM      1  C   UNL     1       4.294   4.507  17.855  0.00  0.00    +0.000 A 
ATOM      2  C   UNL     1       3.166   5.288  17.747  0.00  0.00    +0.000 A 
ATOM      3  C   UNL     1       2.370   5.457  18.858  0.00  0.00    +0.000 A 
ATOM      4  C   UNL     1       2.331   4.451  19.793  0.00  0.00    +0.000 A 
ATOM      5  C   UNL     1       1.210   4.282  20.628  0.00  0.00    +0.000 A 
ATOM      6  C   UNL     1       1.149   3.212  21.488  0.00  0.00    +0.000 A 
ATOM      7  C   UNL     1       2.233   2.344  21.566  0.00  0.00    +0.000 A 
ATOM      8  C   UNL     1       3.362   2.538  20.747  0.00  0.00    +0.000 A 
ATOM      9  C   UNL     1       3.420   3.558  19.809  0.00  0.00    +0.000 A 
ATOM     10  N   UNL     1       4.454   3.678  18.926  0.00  0.00    +0.000 NA
ENDROOT
BRANCH   1  14
ATOM     11  C   UNL     1       7.133   5.071  14.668  0.00  0.00    +0.000 A 
ATOM     12  C   UNL     1       7.428   5.515  15.944  0.00  0.00    +0.000 A 
ATOM     13  C   UNL     1       6.551   5.242  17.001  0.00  0.00    +0.000 A 
ATOM     14  C   UNL     1       5.330   4.554  16.798  0.00  0.00    +0.000 A 
ATOM     15  C   UNL     1       5.106   4.028  15.515  0.00  0.00    +0.000 A 
ATOM     16  C   UNL     1       5.992   4.297  14.458  0.00  0.00    +0.000 A 
BRANCH  11  18
ATOM     17  C   UNL     1       7.693   5.123  12.367  0.00  0.00    +0.000 C 
ATOM     18  O   UNL     1       8.011   5.485  13.700  0.00  0.00    +0.000 OA
ENDBRANCH  11  18
ENDBRANCH   1  14
BRANCH   3  19
ATOM     19  C   UNL     1       2.331   6.843  19.428  0.00  0.00    +0.000 C 
ATOM     20  O   UNL     1       2.616   7.816  18.747  0.00  0.00    +0.000 OA
ATOM     21  N   UNL     1       1.860   6.905  20.733  0.00  0.00    +0.000 N 
ATOM     22  H   UNL     1       1.413   6.082  21.120  0.00  0.00    +0.000 HD
BRANCH  21  23
ATOM     23  C   UNL     1       1.581   8.162  21.399  0.00  0.00    +0.000 C 
BRANCH  23  24
ATOM     24  C   UNL     1       0.388   8.847  20.731  0.00  0.00    +0.000 C 
BRANCH  24  25
ATOM     25  C   UNL     1       0.565  10.359  20.709  0.00  0.00    +0.000 C 
BRANCH  25  26
ATOM     26  N   UNL     1      -0.533  11.017  21.396  0.00  0.00    +0.000 N 
ATOM     27  C   UNL     1      -1.483  11.859  20.717  0.00  0.00    +0.000 C 
ATOM     28  C   UNL     1      -2.116  12.653  21.841  0.00  0.00    +0.000 C 
ATOM     29  C   UNL     1      -2.019  11.728  23.050  0.00  0.00    +0.000 C 
ATOM     30  C   UNL     1      -0.779  10.921  22.756  0.00  0.00    +0.000 C 
ATOM     31  O   UNL     1      -0.143  10.274  23.571  0.00  0.00    +0.000 OA
ENDBRANCH  25  26
ENDBRANCH  24  25
ENDBRANCH  23  24
ENDBRANCH  21  23
ENDBRANCH   3  19
TORSDOF 7
ENDMDL
MODEL 3
REMARK VINA RESULT:      -8.5      0.792      1.295
REMARK  Name = 
REMARK  8 active torsions:
REMARK  status: ('A' for Active; 'I' for Inactive)
REMARK    1  A    between atoms: C_1  and  O_2
REMARK    2  A    between atoms: O_2  and  C_3
REMARK    3  A    between atoms: C_6  and  C_7
REMARK    4  A    between atoms: C_9  and  C_10
REMARK    5  A    between atoms: N_12  and  C_13
REMARK    6  A    between atoms: C_13  and  C_14
REMARK    7  A    between atoms: C_14  and  C_15
REMARK    8  A    between atoms: C_15  and  N_16
REMARK                            x       y       z     vdW  Elec       q    Type
REMARK                         _______ _______ _______ _____ _____    ______ ____
ROOT
ATOM      1  C   UNL     1       2.664   6.578  18.941  0.00  0.00    +0.000 A 
ATOM      2  C   UNL     1       3.760   6.231  19.697  0.00  0.00    +0.000 A 
ATOM      3  C   UNL     1       4.429   5.064  19.396  0.00  0.00    +0.000 A 
ATOM      4  C   UNL     1       3.717   4.030  18.838  0.00  0.00    +0.000 A 
ATOM      5  C   UNL     1       4.139   2.695  18.992  0.00  0.00    +0.000 A 
ATOM      6  C   UNL     1       3.362   1.670  18.510  0.00  0.00    +0.000 A 
ATOM      7  C   UNL     1       2.196   1.973  17.814  0.00  0.00    +0.000 A 
ATOM      8  C   UNL     1       1.798   3.312  17.640  0.00  0.00    +0.000 A 
ATOM      9  C   UNL     1       2.514   4.367  18.187  0.00  0.00    +0.000 A 
ATOM     10  N   UNL     1       2.071   5.656  18.131  0.00  0.00    +0.000 NA
ENDROOT
BRANCH   1  14
ATOM     11  C   UNL     1       0.656  10.385  19.036  0.00  0.00    +0.000 A 
ATOM     12  C   UNL     1       0.671   9.582  20.163  0.00  0.00    +0.000 A 
ATOM     13  C   UNL     1       1.409   8.392  20.165  0.00  0.00    +0.000 A 
ATOM     14  C   UNL     1       2.117   7.952  19.020  0.00  0.00    +0.000 A 
ATOM     15  C   UNL     1       2.166   8.835  17.928  0.00  0.00    +0.000 A 
ATOM     16  C   UNL     1       1.431  10.032  17.933  0.00  0.00    +0.000 A 
BRANCH  11  18
ATOM     17  C   UNL     1      -1.556  11.186  19.315  0.00  0.00    +0.000 C 
ATOM     18  O   UNL     1      -0.181  11.468  19.116  0.00  0.00    +0.000 OA
ENDBRANCH  11  18
ENDBRANCH   1  14
BRANCH   3  19
ATOM     19  C   UNL     1       5.819   5.227  18.862  0.00  0.00    +0.000 C 
ATOM     20  O   UNL     1       6.672   4.371  19.045  0.00  0.00    +0.000 OA
ATOM     21  N   UNL     1       5.999   6.365  18.086  0.00  0.00    +0.000 N 
ATOM     22  H   UNL     1       5.176   6.873  17.786  0.00  0.00    +0.000 HD
BRANCH  21  23
ATOM     23  C   UNL     1       7.216   6.611  17.339  0.00  0.00    +0.000 C 
BRANCH  23  24
ATOM     24  C   UNL     1       6.977   6.329  15.854  0.00  0.00    +0.000 C 
BRANCH  24  25
ATOM     25  C   UNL     1       7.158   4.852  15.540  0.00  0.00    +0.000 C 
BRANCH  25  26
ATOM     26  N   UNL     1       6.979   4.600  14.120  0.00  0.00    +0.000 N 
ATOM     27  C   UNL     1       5.920   3.774  13.604  0.00  0.00    +0.000 C 
ATOM     28  C   UNL     1       6.388   3.437  12.203  0.00  0.00    +0.000 C 
ATOM     29  C   UNL     1       7.250   4.630  11.803  0.00  0.00    +0.000 C 
ATOM     30  C   UNL     1       7.798   5.107  13.124  0.00  0.00    +0.000 C 
ATOM     31  O   UNL     1       8.763   5.837  13.271  0.00  0.00    +0.000 OA
ENDBRANCH  25  26
ENDBRANCH  24  25
ENDBRANCH  23  24
ENDBRANCH  21  23
ENDBRANCH   3  19
TORSDOF 7
ENDMDL
MODEL 4
REMARK VINA RESULT:      -8.5      2.576      8.091
REMARK  Name = 
REMARK  8 active torsions:
REMARK  status: ('A' for Active; 'I' for Inactive)
REMARK    1  A    between atoms: C_1  and  O_2
REMARK    2  A    between atoms: O_2  and  C_3
REMARK    3  A    between atoms: C_6  and  C_7
REMARK    4  A    between atoms: C_9  and  C_10
REMARK    5  A    between atoms: N_12  and  C_13
REMARK    6  A    between atoms: C_13  and  C_14
REMARK    7  A    between atoms: C_14  and  C_15
REMARK    8  A    between atoms: C_15  and  N_16
REMARK                            x       y       z     vdW  Elec       q    Type
REMARK                         _______ _______ _______ _____ _____    ______ ____
ROOT
ATOM      1  C   UNL     1       4.297   4.472  17.711  0.00  0.00    +0.000 A 
ATOM      2  C   UNL     1       3.133   5.186  17.541  0.00  0.00    +0.000 A 
ATOM      3  C   UNL     1       2.313   5.384  18.630  0.00  0.00    +0.000 A 
ATOM      4  C   UNL     1       2.310   4.436  19.626  0.00  0.00    +0.000 A 
ATOM      5  C   UNL     1       1.186   4.262  20.457  0.00  0.00    +0.000 A 
ATOM      6  C   UNL     1       1.166   3.246  21.380  0.00  0.00    +0.000 A 
ATOM      7  C   UNL     1       2.291   2.441  21.526  0.00  0.00    +0.000 A 
ATOM      8  C   UNL     1       3.421   2.641  20.710  0.00  0.00    +0.000 A 
ATOM      9  C   UNL     1       3.443   3.602  19.710  0.00  0.00    +0.000 A 
ATOM     10  N   UNL     1       4.482   3.721  18.834  0.00  0.00    +0.000 NA
ENDROOT
BRANCH   1  14
ATOM     11  C   UNL     1       7.198   5.013  14.576  0.00  0.00    +0.000 A 
ATOM     12  C   UNL     1       7.504   5.380  15.874  0.00  0.00    +0.000 A 
ATOM     13  C   UNL     1       6.602   5.112  16.910  0.00  0.00    +0.000 A 
ATOM     14  C   UNL     1       5.345   4.506  16.666  0.00  0.00    +0.000 A 
ATOM     15  C   UNL     1       5.104   4.054  15.358  0.00  0.00    +0.000 A 
ATOM     16  C   UNL     1       6.016   4.318  14.322  0.00  0.00    +0.000 A 
BRANCH  11  18
ATOM     17  C   UNL     1       7.732   5.243  12.280  0.00  0.00    +0.000 C 
ATOM     18  O   UNL     1       8.108   5.419  13.635  0.00  0.00    +0.000 OA
ENDBRANCH  11  18
ENDBRANCH   1  14
BRANCH   3  19
ATOM     19  C   UNL     1       2.196   6.798  19.112  0.00  0.00    +0.000 C 
ATOM     20  O   UNL     1       2.411   7.089  20.279  0.00  0.00    +0.000 OA
ATOM     21  N   UNL     1       1.923   7.717  18.108  0.00  0.00    +0.000 N 
ATOM     22  H   UNL     1       2.014   7.415  17.145  0.00  0.00    +0.000 HD
BRANCH  21  23
ATOM     23  C   UNL     1       1.944   9.148  18.338  0.00  0.00    +0.000 C 
BRANCH  23  24
ATOM     24  C   UNL     1       0.692   9.567  19.111  0.00  0.00    +0.000 C 
BRANCH  24  25
ATOM     25  C   UNL     1       0.211  10.942  18.673  0.00  0.00    +0.000 C 
BRANCH  25  26
ATOM     26  N   UNL     1      -1.174  10.890  18.238  0.00  0.00    +0.000 N 
ATOM     27  C   UNL     1      -1.658   9.914  17.297  0.00  0.00    +0.000 C 
ATOM     28  C   UNL     1      -2.966  10.508  16.816  0.00  0.00    +0.000 C 
ATOM     29  C   UNL     1      -3.450  11.345  17.995  0.00  0.00    +0.000 C 
ATOM     30  C   UNL     1      -2.164  11.763  18.661  0.00  0.00    +0.000 C 
ATOM     31  O   UNL     1      -2.039  12.679  19.456  0.00  0.00    +0.000 OA
ENDBRANCH  25  26
ENDBRANCH  24  25
ENDBRANCH  23  24
ENDBRANCH  21  23
ENDBRANCH   3  19
TORSDOF 7
ENDMDL
MODEL 5
REMARK VINA RESULT:      -8.4      2.550      8.185
REMARK  Name = 
REMARK  8 active torsions:
REMARK  status: ('A' for Active; 'I' for Inactive)
REMARK    1  A    between atoms: C_1  and  O_2
REMARK    2  A    between atoms: O_2  and  C_3
REMARK    3  A    between atoms: C_6  and  C_7
REMARK    4  A    between atoms: C_9  and  C_10
REMARK    5  A    between atoms: N_12  and  C_13
REMARK    6  A    between atoms: C_13  and  C_14
REMARK    7  A    between atoms: C_14  and  C_15
REMARK    8  A    between atoms: C_15  and  N_16
REMARK                            x       y       z     vdW  Elec       q    Type
REMARK                         _______ _______ _______ _____ _____    ______ ____
ROOT
ATOM      1  C   UNL     1       4.280   4.400  17.729  0.00  0.00    +0.000 A 
ATOM      2  C   UNL     1       3.099   5.084  17.552  0.00  0.00    +0.000 A 
ATOM      3  C   UNL     1       2.278   5.279  18.641  0.00  0.00    +0.000 A 
ATOM      4  C   UNL     1       2.299   4.346  19.649  0.00  0.00    +0.000 A 
ATOM      5  C   UNL     1       1.181   4.159  20.486  0.00  0.00    +0.000 A 
ATOM      6  C   UNL     1       1.187   3.157  21.424  0.00  0.00    +0.000 A 
ATOM      7  C   UNL     1       2.330   2.379  21.578  0.00  0.00    +0.000 A 
ATOM      8  C   UNL     1       3.453   2.593  20.756  0.00  0.00    +0.000 A 
ATOM      9  C   UNL     1       3.450   3.540  19.743  0.00  0.00    +0.000 A 
ATOM     10  N   UNL     1       4.484   3.669  18.862  0.00  0.00    +0.000 NA
ENDROOT
BRANCH   1  14
ATOM     11  C   UNL     1       7.194   4.978  14.614  0.00  0.00    +0.000 A 
ATOM     12  C   UNL     1       7.526   5.245  15.930  0.00  0.00    +0.000 A 
ATOM     13  C   UNL     1       6.614   4.961  16.953  0.00  0.00    +0.000 A 
ATOM     14  C   UNL     1       5.324   4.442  16.681  0.00  0.00    +0.000 A 
ATOM     15  C   UNL     1       5.054   4.087  15.348  0.00  0.00    +0.000 A 
ATOM     16  C   UNL     1       5.975   4.366  14.325  0.00  0.00    +0.000 A 
BRANCH  11  18
ATOM     17  C   UNL     1       7.757   5.262  12.331  0.00  0.00    +0.000 C 
ATOM     18  O   UNL     1       8.123   5.392  13.694  0.00  0.00    +0.000 OA
ENDBRANCH  11  18
ENDBRANCH   1  14
BRANCH   3  19
ATOM     19  C   UNL     1       2.130   6.697  19.102  0.00  0.00    +0.000 C 
ATOM     20  O   UNL     1       2.047   6.971  20.290  0.00  0.00    +0.000 OA
ATOM     21  N   UNL     1       2.192   7.635  18.080  0.00  0.00    +0.000 N 
ATOM     22  H   UNL     1       2.515   7.329  17.169  0.00  0.00    +0.000 HD
BRANCH  21  23
ATOM     23  C   UNL     1       2.245   9.060  18.336  0.00  0.00    +0.000 C 
BRANCH  23  24
ATOM     24  C   UNL     1       0.874   9.685  18.069  0.00  0.00    +0.000 C 
BRANCH  24  25
ATOM     25  C   UNL     1       0.069   9.811  19.354  0.00  0.00    +0.000 C 
BRANCH  25  26
ATOM     26  N   UNL     1      -1.015  10.764  19.192  0.00  0.00    +0.000 N 
ATOM     27  C   UNL     1      -1.037  12.038  19.862  0.00  0.00    +0.000 C 
ATOM     28  C   UNL     1      -2.491  12.458  19.771  0.00  0.00    +0.000 C 
ATOM     29  C   UNL     1      -2.990  11.792  18.493  0.00  0.00    +0.000 C 
ATOM     30  C   UNL     1      -2.134  10.555  18.402  0.00  0.00    +0.000 C 
ATOM     31  O   UNL     1      -2.374   9.573  17.721  0.00  0.00    +0.000 OA
ENDBRANCH  25  26
ENDBRANCH  24  25
ENDBRANCH  23  24
ENDBRANCH  21  23
ENDBRANCH   3  19
TORSDOF 7
ENDMDL
MODEL 6
REMARK VINA RESULT:      -8.3      2.117      8.081
REMARK  Name = 
REMARK  8 active torsions:
REMARK  status: ('A' for Active; 'I' for Inactive)
REMARK    1  A    between atoms: C_1  and  O_2
REMARK    2  A    between atoms: O_2  and  C_3
REMARK    3  A    between atoms: C_6  and  C_7
REMARK    4  A    between atoms: C_9  and  C_10
REMARK    5  A    between atoms: N_12  and  C_13
REMARK    6  A    between atoms: C_13  and  C_14
REMARK    7  A    between atoms: C_14  and  C_15
REMARK    8  A    between atoms: C_15  and  N_16
REMARK                            x       y       z     vdW  Elec       q    Type
REMARK                         _______ _______ _______ _____ _____    ______ ____
ROOT
ATOM      1  C   UNL     1       4.370   4.417  17.690  0.00  0.00    +0.000 A 
ATOM      2  C   UNL     1       3.191   5.096  17.484  0.00  0.00    +0.000 A 
ATOM      3  C   UNL     1       2.347   5.295  18.555  0.00  0.00    +0.000 A 
ATOM      4  C   UNL     1       2.350   4.368  19.570  0.00  0.00    +0.000 A 
ATOM      5  C   UNL     1       1.217   4.182  20.385  0.00  0.00    +0.000 A 
ATOM      6  C   UNL     1       1.207   3.185  21.329  0.00  0.00    +0.000 A 
ATOM      7  C   UNL     1       2.349   2.412  21.510  0.00  0.00    +0.000 A 
ATOM      8  C   UNL     1       3.488   2.625  20.710  0.00  0.00    +0.000 A 
ATOM      9  C   UNL     1       3.503   3.566  19.692  0.00  0.00    +0.000 A 
ATOM     10  N   UNL     1       4.554   3.694  18.831  0.00  0.00    +0.000 NA
ENDROOT
BRANCH   1  14
ATOM     11  C   UNL     1       7.285   4.951  14.567  0.00  0.00    +0.000 A 
ATOM     12  C   UNL     1       7.526   5.454  15.832  0.00  0.00    +0.000 A 
ATOM     13  C   UNL     1       6.627   5.193  16.873  0.00  0.00    +0.000 A 
ATOM     14  C   UNL     1       5.435   4.457  16.663  0.00  0.00    +0.000 A 
ATOM     15  C   UNL     1       5.268   3.875  15.395  0.00  0.00    +0.000 A 
ATOM     16  C   UNL     1       6.176   4.131  14.355  0.00  0.00    +0.000 A 
BRANCH  11  18
ATOM     17  C   UNL     1       7.705   5.362  12.272  0.00  0.00    +0.000 C 
ATOM     18  O   UNL     1       8.177   5.356  13.608  0.00  0.00    +0.000 OA
ENDBRANCH  11  18
ENDBRANCH   1  14
BRANCH   3  19
ATOM     19  C   UNL     1       2.184   6.715  19.005  0.00  0.00    +0.000 C 
ATOM     20  O   UNL     1       2.126   7.000  20.192  0.00  0.00    +0.000 OA
ATOM     21  N   UNL     1       2.205   7.642  17.972  0.00  0.00    +0.000 N 
ATOM     22  H   UNL     1       2.511   7.332  17.057  0.00  0.00    +0.000 HD
BRANCH  21  23
ATOM     23  C   UNL     1       2.239   9.071  18.211  0.00  0.00    +0.000 C 
BRANCH  23  24
ATOM     24  C   UNL     1       0.830   9.652  18.071  0.00  0.00    +0.000 C 
BRANCH  24  25
ATOM     25  C   UNL     1       0.255  10.028  19.429  0.00  0.00    +0.000 C 
BRANCH  25  26
ATOM     26  N   UNL     1       0.632  11.383  19.792  0.00  0.00    +0.000 N 
ATOM     27  C   UNL     1       1.097  12.346  18.828  0.00  0.00    +0.000 C 
ATOM     28  C   UNL     1       1.780  13.396  19.681  0.00  0.00    +0.000 C 
ATOM     29  C   UNL     1       1.041  13.329  21.014  0.00  0.00    +0.000 C 
ATOM     30  C   UNL     1       0.600  11.889  21.082  0.00  0.00    +0.000 C 
ATOM     31  O   UNL     1       0.245  11.301  22.089  0.00  0.00    +0.000 OA
ENDBRANCH  25  26
ENDBRANCH  24  25
ENDBRANCH  23  24
ENDBRANCH  21  23
ENDBRANCH   3  19
TORSDOF 7
ENDMDL
MODEL 7
REMARK VINA RESULT:      -8.3      4.112      7.468
REMARK  Name = 
REMARK  8 active torsions:
REMARK  status: ('A' for Active; 'I' for Inactive)
REMARK    1  A    between atoms: C_1  and  O_2
REMARK    2  A    between atoms: O_2  and  C_3
REMARK    3  A    between atoms: C_6  and  C_7
REMARK    4  A    between atoms: C_9  and  C_10
REMARK    5  A    between atoms: N_12  and  C_13
REMARK    6  A    between atoms: C_13  and  C_14
REMARK    7  A    between atoms: C_14  and  C_15
REMARK    8  A    between atoms: C_15  and  N_16
REMARK                            x       y       z     vdW  Elec       q    Type
REMARK                         _______ _______ _______ _____ _____    ______ ____
ROOT
ATOM      1  C   UNL     1       5.056   3.727  16.692  0.00  0.00    +0.000 A 
ATOM      2  C   UNL     1       6.109   4.514  17.096  0.00  0.00    +0.000 A 
ATOM      3  C   UNL     1       6.722   5.327  16.167  0.00  0.00    +0.000 A 
ATOM      4  C   UNL     1       6.725   4.928  14.852  0.00  0.00    +0.000 A 
ATOM      5  C   UNL     1       7.729   5.364  13.965  0.00  0.00    +0.000 A 
ATOM      6  C   UNL     1       7.770   4.877  12.681  0.00  0.00    +0.000 A 
ATOM      7  C   UNL     1       6.772   4.006  12.256  0.00  0.00    +0.000 A 
ATOM      8  C   UNL     1       5.756   3.599  13.141  0.00  0.00    +0.000 A 
ATOM      9  C   UNL     1       5.733   4.004  14.467  0.00  0.00    +0.000 A 
ATOM     10  N   UNL     1       4.827   3.517  15.363  0.00  0.00    +0.000 NA
ENDROOT
BRANCH   1  14
ATOM     11  C   UNL     1       2.373   2.316  19.748  0.00  0.00    +0.000 A 
ATOM     12  C   UNL     1       1.908   2.525  18.462  0.00  0.00    +0.000 A 
ATOM     13  C   UNL     1       2.800   2.885  17.445  0.00  0.00    +0.000 A 
ATOM     14  C   UNL     1       4.179   3.090  17.700  0.00  0.00    +0.000 A 
ATOM     15  C   UNL     1       4.637   2.773  18.990  0.00  0.00    +0.000 A 
ATOM     16  C   UNL     1       3.740   2.403  20.006  0.00  0.00    +0.000 A 
BRANCH  11  18
ATOM     17  C   UNL     1       1.269   3.018  21.723  0.00  0.00    +0.000 C 
ATOM     18  O   UNL     1       1.395   2.069  20.678  0.00  0.00    +0.000 OA
ENDBRANCH  11  18
ENDBRANCH   1  14
BRANCH   3  19
ATOM     19  C   UNL     1       6.550   6.801  16.374  0.00  0.00    +0.000 C 
ATOM     20  O   UNL     1       5.595   7.400  15.901  0.00  0.00    +0.000 OA
ATOM     21  N   UNL     1       7.503   7.371  17.208  0.00  0.00    +0.000 N 
ATOM     22  H   UNL     1       8.097   6.752  17.748  0.00  0.00    +0.000 HD
BRANCH  21  23
ATOM     23  C   UNL     1       7.410   8.740  17.671  0.00  0.00    +0.000 C 
BRANCH  23  24
ATOM     24  C   UNL     1       8.720   9.147  18.350  0.00  0.00    +0.000 C 
BRANCH  24  25
ATOM     25  C   UNL     1       9.036  10.614  18.098  0.00  0.00    +0.000 C 
BRANCH  25  26
ATOM     26  N   UNL     1       9.894  11.144  19.144  0.00  0.00    +0.000 N 
ATOM     27  C   UNL     1       9.477  11.234  20.519  0.00  0.00    +0.000 C 
ATOM     28  C   UNL     1      10.456  12.224  21.118  0.00  0.00    +0.000 C 
ATOM     29  C   UNL     1      11.719  12.050  20.281  0.00  0.00    +0.000 C 
ATOM     30  C   UNL     1      11.177  11.623  18.940  0.00  0.00    +0.000 C 
ATOM     31  O   UNL     1      11.784  11.663  17.883  0.00  0.00    +0.000 OA
ENDBRANCH  25  26
ENDBRANCH  24  25
ENDBRANCH  23  24
ENDBRANCH  21  23
ENDBRANCH   3  19
TORSDOF 7
ENDMDL
MODEL 8
REMARK VINA RESULT:      -8.3      2.232      8.269
REMARK  Name = 
REMARK  8 active torsions:
REMARK  status: ('A' for Active; 'I' for Inactive)
REMARK    1  A    between atoms: C_1  and  O_2
REMARK    2  A    between atoms: O_2  and  C_3
REMARK    3  A    between atoms: C_6  and  C_7
REMARK    4  A    between atoms: C_9  and  C_10
REMARK    5  A    between atoms: N_12  and  C_13
REMARK    6  A    between atoms: C_13  and  C_14
REMARK    7  A    between atoms: C_14  and  C_15
REMARK    8  A    between atoms: C_15  and  N_16
REMARK                            x       y       z     vdW  Elec       q    Type
REMARK                         _______ _______ _______ _____ _____    ______ ____
ROOT
ATOM      1  C   UNL     1       4.297   4.437  17.719  0.00  0.00    +0.000 A 
ATOM      2  C   UNL     1       3.125   5.134  17.537  0.00  0.00    +0.000 A 
ATOM      3  C   UNL     1       2.302   5.337  18.623  0.00  0.00    +0.000 A 
ATOM      4  C   UNL     1       2.310   4.405  19.633  0.00  0.00    +0.000 A 
ATOM      5  C   UNL     1       1.188   4.229  20.466  0.00  0.00    +0.000 A 
ATOM      6  C   UNL     1       1.180   3.227  21.405  0.00  0.00    +0.000 A 
ATOM      7  C   UNL     1       2.315   2.438  21.563  0.00  0.00    +0.000 A 
ATOM      8  C   UNL     1       3.443   2.640  20.744  0.00  0.00    +0.000 A 
ATOM      9  C   UNL     1       3.453   3.587  19.731  0.00  0.00    +0.000 A 
ATOM     10  N   UNL     1       4.491   3.705  18.853  0.00  0.00    +0.000 NA
ENDROOT
BRANCH   1  14
ATOM     11  C   UNL     1       7.202   4.972  14.586  0.00  0.00    +0.000 A 
ATOM     12  C   UNL     1       7.511   5.331  15.886  0.00  0.00    +0.000 A 
ATOM     13  C   UNL     1       6.607   5.064  16.920  0.00  0.00    +0.000 A 
ATOM     14  C   UNL     1       5.345   4.468  16.674  0.00  0.00    +0.000 A 
ATOM     15  C   UNL     1       5.102   4.024  15.363  0.00  0.00    +0.000 A 
ATOM     16  C   UNL     1       6.015   4.286  14.329  0.00  0.00    +0.000 A 
BRANCH  11  18
ATOM     17  C   UNL     1       7.714   5.264  12.292  0.00  0.00    +0.000 C 
ATOM     18  O   UNL     1       8.115   5.376  13.647  0.00  0.00    +0.000 OA
ENDBRANCH  11  18
ENDBRANCH   1  14
BRANCH   3  19
ATOM     19  C   UNL     1       2.166   6.757  19.084  0.00  0.00    +0.000 C 
ATOM     20  O   UNL     1       2.198   7.043  20.271  0.00  0.00    +0.000 OA
ATOM     21  N   UNL     1       2.101   7.683  18.051  0.00  0.00    +0.000 N 
ATOM     22  H   UNL     1       2.337   7.374  17.116  0.00  0.00    +0.000 HD
BRANCH  21  23
ATOM     23  C   UNL     1       2.145   9.112  18.287  0.00  0.00    +0.000 C 
BRANCH  23  24
ATOM     24  C   UNL     1       0.731   9.692  18.216  0.00  0.00    +0.000 C 
BRANCH  24  25
ATOM     25  C   UNL     1       0.159   9.915  19.609  0.00  0.00    +0.000 C 
BRANCH  25  26
ATOM     26  N   UNL     1       0.008  11.333  19.884  0.00  0.00    +0.000 N 
ATOM     27  C   UNL     1       1.019  12.107  20.556  0.00  0.00    +0.000 C 
ATOM     28  C   UNL     1       0.269  13.341  21.014  0.00  0.00    +0.000 C 
ATOM     29  C   UNL     1      -0.844  13.503  19.985  0.00  0.00    +0.000 C 
ATOM     30  C   UNL     1      -1.107  12.084  19.548  0.00  0.00    +0.000 C 
ATOM     31  O   UNL     1      -2.106  11.692  18.970  0.00  0.00    +0.000 OA
ENDBRANCH  25  26
ENDBRANCH  24  25
ENDBRANCH  23  24
ENDBRANCH  21  23
ENDBRANCH   3  19
TORSDOF 7
ENDMDL
MODEL 9
REMARK VINA RESULT:      -8.2      0.947      1.478
REMARK  Name = 
REMARK  8 active torsions:
REMARK  status: ('A' for Active; 'I' for Inactive)
REMARK    1  A    between atoms: C_1  and  O_2
REMARK    2  A    between atoms: O_2  and  C_3
REMARK    3  A    between atoms: C_6  and  C_7
REMARK    4  A    between atoms: C_9  and  C_10
REMARK    5  A    between atoms: N_12  and  C_13
REMARK    6  A    between atoms: C_13  and  C_14
REMARK    7  A    between atoms: C_14  and  C_15
REMARK    8  A    between atoms: C_15  and  N_16
REMARK                            x       y       z     vdW  Elec       q    Type
REMARK                         _______ _______ _______ _____ _____    ______ ____
ROOT
ATOM      1  C   UNL     1       2.606   6.572  19.006  0.00  0.00    +0.000 A 
ATOM      2  C   UNL     1       3.655   6.237  19.832  0.00  0.00    +0.000 A 
ATOM      3  C   UNL     1       4.380   5.100  19.551  0.00  0.00    +0.000 A 
ATOM      4  C   UNL     1       3.745   4.060  18.917  0.00  0.00    +0.000 A 
ATOM      5  C   UNL     1       4.196   2.734  19.068  0.00  0.00    +0.000 A 
ATOM      6  C   UNL     1       3.490   1.700  18.505  0.00  0.00    +0.000 A 
ATOM      7  C   UNL     1       2.368   1.987  17.734  0.00  0.00    +0.000 A 
ATOM      8  C   UNL     1       1.941   3.318  17.564  0.00  0.00    +0.000 A 
ATOM      9  C   UNL     1       2.582   4.378  18.188  0.00  0.00    +0.000 A 
ATOM     10  N   UNL     1       2.102   5.654  18.132  0.00  0.00    +0.000 NA
ENDROOT
BRANCH   1  14
ATOM     11  C   UNL     1       0.457  10.300  19.133  0.00  0.00    +0.000 A 
ATOM     12  C   UNL     1       0.612   9.551  20.285  0.00  0.00    +0.000 A 
ATOM     13  C   UNL     1       1.397   8.391  20.267  0.00  0.00    +0.000 A 
ATOM     14  C   UNL     1       2.011   7.926  19.079  0.00  0.00    +0.000 A 
ATOM     15  C   UNL     1       1.919   8.758  17.951  0.00  0.00    +0.000 A 
ATOM     16  C   UNL     1       1.138   9.926  17.975  0.00  0.00    +0.000 A 
BRANCH  11  18
ATOM     17  C   UNL     1       0.151  12.649  19.153  0.00  0.00    +0.000 C 
ATOM     18  O   UNL     1      -0.414  11.352  19.247  0.00  0.00    +0.000 OA
ENDBRANCH  11  18
ENDBRANCH   1  14
BRANCH   3  19
ATOM     19  C   UNL     1       5.800   5.319  19.125  0.00  0.00    +0.000 C 
ATOM     20  O   UNL     1       6.734   5.004  19.848  0.00  0.00    +0.000 OA
ATOM     21  N   UNL     1       5.935   5.808  17.832  0.00  0.00    +0.000 N 
ATOM     22  H   UNL     1       5.121   5.796  17.230  0.00  0.00    +0.000 HD
BRANCH  21  23
ATOM     23  C   UNL     1       7.221   5.921  17.175  0.00  0.00    +0.000 C 
BRANCH  23  24
ATOM     24  C   UNL     1       7.427   4.731  16.235  0.00  0.00    +0.000 C 
BRANCH  24  25
ATOM     25  C   UNL     1       6.277   4.607  15.247  0.00  0.00    +0.000 C 
BRANCH  25  26
ATOM     26  N   UNL     1       6.772   4.549  13.882  0.00  0.00    +0.000 N 
ATOM     27  C   UNL     1       7.856   5.373  13.413  0.00  0.00    +0.000 C 
ATOM     28  C   UNL     1       7.714   5.314  11.905  0.00  0.00    +0.000 C 
ATOM     29  C   UNL     1       7.072   3.955  11.646  0.00  0.00    +0.000 C 
ATOM     30  C   UNL     1       6.261   3.722  12.895  0.00  0.00    +0.000 C 
ATOM     31  O   UNL     1       5.351   2.920  13.012  0.00  0.00    +0.000 OA
ENDBRANCH  25  26
ENDBRANCH  24  25
ENDBRANCH  23  24
ENDBRANCH  21  23
ENDBRANCH   3  19
TORSDOF 7
ENDMDL
