MODEL 1
REMARK VINA RESULT:      -7.7      0.000      0.000
REMARK  Name = 
REMARK  8 active torsions:
REMARK  status: ('A' for Active; 'I' for Inactive)
REMARK    1  A    between atoms: C_1  and  C_2
REMARK    2  A    between atoms: C_2  and  N_3
REMARK    3  A    between atoms: C_8  and  C_9
REMARK    4  A    between atoms: C_9  and  C_10
REMARK    5  A    between atoms: C_9  and  C_11
REMARK    6  A    between atoms: C_9  and  C_12
REMARK    7  A    between atoms: N_17  and  C_18
REMARK    8  A    between atoms: C_22  and  C_23
REMARK                            x       y       z     vdW  Elec       q    Type
REMARK                         _______ _______ _______ _____ _____    ______ ____
ROOT
ATOM      1  N   UNL     1       3.118   1.961  19.931  0.00  0.00    +0.000 NA
ATOM      2  C   UNL     1       2.786   2.398  21.315  0.00  0.00    +0.000 C 
ATOM      3  C   UNL     1       2.302   3.862  21.435  0.00  0.00    +0.000 C 
ATOM      4  C   UNL     1       3.031   4.696  20.435  0.00  0.00    +0.000 A 
ATOM      5  C   UNL     1       3.955   4.228  19.536  0.00  0.00    +0.000 A 
ATOM      6  C   UNL     1       4.357   5.370  18.789  0.00  0.00    +0.000 A 
ATOM      7  N   UNL     1       3.708   6.477  19.228  0.00  0.00    +0.000 NA
ATOM      8  N   UNL     1       2.762   5.999  20.107  0.00  0.00    +0.000 N 
ATOM      9  C   UNL     1       1.621   6.749  20.495  0.00  0.00    +0.000 C 
ATOM     10  O   UNL     1       0.597   6.149  20.799  0.00  0.00    +0.000 OA
ATOM     11  N   UNL     1       1.884   8.101  20.563  0.00  0.00    +0.000 N 
ATOM     12  C   UNL     1       4.276   2.765  19.439  0.00  0.00    +0.000 C 
ATOM     13  H   UNL     1       2.846   8.377  20.387  0.00  0.00    +0.000 HD
ENDROOT
BRANCH  11  14
ATOM     14  C   UNL     1       0.962   9.076  21.021  0.00  0.00    +0.000 A 
ATOM     15  C   UNL     1       0.664   9.269  22.375  0.00  0.00    +0.000 A 
ATOM     16  C   UNL     1      -0.267  10.230  22.781  0.00  0.00    +0.000 A 
ATOM     17  C   UNL     1      -0.909  11.019  21.833  0.00  0.00    +0.000 A 
ATOM     18  C   UNL     1      -0.624  10.856  20.470  0.00  0.00    +0.000 A 
ATOM     19  C   UNL     1       0.315   9.878  20.074  0.00  0.00    +0.000 A 
BRANCH  18  20
ATOM     20  C   UNL     1      -1.312  11.713  19.438  0.00  0.00    +0.000 C 
ATOM     21  F   UNL     1      -0.505  12.064  18.394  0.00  0.00    +0.000 F 
ATOM     22  F   UNL     1      -2.390  11.097  18.880  0.00  0.00    +0.000 F 
ATOM     23  F   UNL     1      -1.775  12.881  19.957  0.00  0.00    +0.000 F 
ENDBRANCH  18  20
ENDBRANCH  11  14
BRANCH   6  24
ATOM     24  C   UNL     1       5.342   5.423  17.614  0.00  0.00    +0.000 C 
ATOM     25  C   UNL     1       4.824   4.560  16.441  0.00  0.00    +0.000 C 
ATOM     26  C   UNL     1       5.547   6.859  17.098  0.00  0.00    +0.000 C 
ATOM     27  C   UNL     1       6.742   4.887  18.008  0.00  0.00    +0.000 C 
ENDBRANCH   6  24
BRANCH   1  29
ATOM     28  C   UNL     1       2.378   2.094  17.509  0.00  0.00    +0.000 C 
ATOM     29  C   UNL     1       1.987   2.083  18.979  0.00  0.00    +0.000 C 
ENDBRANCH   1  29
TORSDOF 4
ENDMDL
MODEL 2
REMARK VINA RESULT:      -7.7      0.079      1.103
REMARK  Name = 
REMARK  8 active torsions:
REMARK  status: ('A' for Active; 'I' for Inactive)
REMARK    1  A    between atoms: C_1  and  C_2
REMARK    2  A    between atoms: C_2  and  N_3
REMARK    3  A    between atoms: C_8  and  C_9
REMARK    4  A    between atoms: C_9  and  C_10
REMARK    5  A    between atoms: C_9  and  C_11
REMARK    6  A    between atoms: C_9  and  C_12
REMARK    7  A    between atoms: N_17  and  C_18
REMARK    8  A    between atoms: C_22  and  C_23
REMARK                            x       y       z     vdW  Elec       q    Type
REMARK                         _______ _______ _______ _____ _____    ______ ____
ROOT
ATOM      1  N   UNL     1       3.104   1.987  19.912  0.00  0.00    +0.000 NA
ATOM      2  C   UNL     1       2.757   2.415  21.294  0.00  0.00    +0.000 C 
ATOM      3  C   UNL     1       2.277   3.881  21.419  0.00  0.00    +0.000 C 
ATOM      4  C   UNL     1       3.020   4.719  20.433  0.00  0.00    +0.000 A 
ATOM      5  C   UNL     1       3.953   4.253  19.541  0.00  0.00    +0.000 A 
ATOM      6  C   UNL     1       4.367   5.399  18.807  0.00  0.00    +0.000 A 
ATOM      7  N   UNL     1       3.717   6.506  19.246  0.00  0.00    +0.000 NA
ATOM      8  N   UNL     1       2.759   6.024  20.110  0.00  0.00    +0.000 N 
ATOM      9  C   UNL     1       1.616   6.776  20.491  0.00  0.00    +0.000 C 
ATOM     10  O   UNL     1       0.588   6.177  20.780  0.00  0.00    +0.000 OA
ATOM     11  N   UNL     1       1.883   8.126  20.571  0.00  0.00    +0.000 N 
ATOM     12  C   UNL     1       4.270   2.790  19.438  0.00  0.00    +0.000 C 
ATOM     13  H   UNL     1       2.848   8.400  20.407  0.00  0.00    +0.000 HD
ENDROOT
BRANCH  11  14
ATOM     14  C   UNL     1       0.960   9.101  21.025  0.00  0.00    +0.000 A 
ATOM     15  C   UNL     1       0.630   9.272  22.375  0.00  0.00    +0.000 A 
ATOM     16  C   UNL     1      -0.301  10.234  22.776  0.00  0.00    +0.000 A 
ATOM     17  C   UNL     1      -0.912  11.047  21.828  0.00  0.00    +0.000 A 
ATOM     18  C   UNL     1      -0.596  10.907  20.470  0.00  0.00    +0.000 A 
ATOM     19  C   UNL     1       0.344   9.928  20.078  0.00  0.00    +0.000 A 
BRANCH  18  20
ATOM     20  C   UNL     1      -1.251  11.790  19.439  0.00  0.00    +0.000 C 
ATOM     21  F   UNL     1      -2.416  11.278  18.942  0.00  0.00    +0.000 F 
ATOM     22  F   UNL     1      -1.569  13.020  19.928  0.00  0.00    +0.000 F 
ATOM     23  F   UNL     1      -0.454  12.009  18.360  0.00  0.00    +0.000 F 
ENDBRANCH  18  20
ENDBRANCH  11  14
BRANCH   6  24
ATOM     24  C   UNL     1       5.365   5.457  17.644  0.00  0.00    +0.000 C 
ATOM     25  C   UNL     1       6.756   4.962  18.104  0.00  0.00    +0.000 C 
ATOM     26  C   UNL     1       4.917   4.587  16.455  0.00  0.00    +0.000 C 
ATOM     27  C   UNL     1       5.538   6.899  17.101  0.00  0.00    +0.000 C 
ENDBRANCH   6  24
BRANCH   1  29
ATOM     28  C   UNL     1       2.393   2.153  17.483  0.00  0.00    +0.000 C 
ATOM     29  C   UNL     1       1.984   2.119  18.948  0.00  0.00    +0.000 C 
ENDBRANCH   1  29
TORSDOF 4
ENDMDL
MODEL 3
REMARK VINA RESULT:      -7.4      2.431      4.159
REMARK  Name = 
REMARK  8 active torsions:
REMARK  status: ('A' for Active; 'I' for Inactive)
REMARK    1  A    between atoms: C_1  and  C_2
REMARK    2  A    between atoms: C_2  and  N_3
REMARK    3  A    between atoms: C_8  and  C_9
REMARK    4  A    between atoms: C_9  and  C_10
REMARK    5  A    between atoms: C_9  and  C_11
REMARK    6  A    between atoms: C_9  and  C_12
REMARK    7  A    between atoms: N_17  and  C_18
REMARK    8  A    between atoms: C_22  and  C_23
REMARK                            x       y       z     vdW  Elec       q    Type
REMARK                         _______ _______ _______ _____ _____    ______ ____
ROOT
ATOM      1  N   UNL     1       6.288   4.876  17.406  0.00  0.00    +0.000 NA
ATOM      2  C   UNL     1       5.966   5.812  16.295  0.00  0.00    +0.000 C 
ATOM      3  C   UNL     1       4.786   6.773  16.576  0.00  0.00    +0.000 C 
ATOM      4  C   UNL     1       3.770   6.062  17.406  0.00  0.00    +0.000 A 
ATOM      5  C   UNL     1       3.885   4.774  17.869  0.00  0.00    +0.000 A 
ATOM      6  C   UNL     1       2.698   4.543  18.619  0.00  0.00    +0.000 A 
ATOM      7  N   UNL     1       1.902   5.641  18.598  0.00  0.00    +0.000 NA
ATOM      8  N   UNL     1       2.674   6.618  18.009  0.00  0.00    +0.000 N 
ATOM      9  C   UNL     1       2.394   8.004  18.138  0.00  0.00    +0.000 C 
ATOM     10  O   UNL     1       3.324   8.799  18.090  0.00  0.00    +0.000 OA
ATOM     11  N   UNL     1       1.040   8.258  18.208  0.00  0.00    +0.000 N 
ATOM     12  C   UNL     1       5.123   3.965  17.620  0.00  0.00    +0.000 C 
ATOM     13  H   UNL     1       0.430   7.453  18.104  0.00  0.00    +0.000 HD
ENDROOT
BRANCH  11  14
ATOM     14  C   UNL     1       0.468   9.555  18.237  0.00  0.00    +0.000 A 
ATOM     15  C   UNL     1       1.158  10.686  18.689  0.00  0.00    +0.000 A 
ATOM     16  C   UNL     1       0.548  11.943  18.719  0.00  0.00    +0.000 A 
ATOM     17  C   UNL     1      -0.765  12.088  18.285  0.00  0.00    +0.000 A 
ATOM     18  C   UNL     1      -1.480  10.977  17.816  0.00  0.00    +0.000 A 
ATOM     19  C   UNL     1      -0.852   9.711  17.797  0.00  0.00    +0.000 A 
BRANCH  18  20
ATOM     20  C   UNL     1      -2.902  11.129  17.339  0.00  0.00    +0.000 C 
ATOM     21  F   UNL     1      -3.623   9.971  17.396  0.00  0.00    +0.000 F 
ATOM     22  F   UNL     1      -3.605  12.037  18.070  0.00  0.00    +0.000 F 
ATOM     23  F   UNL     1      -2.975  11.548  16.048  0.00  0.00    +0.000 F 
ENDBRANCH  18  20
ENDBRANCH  11  14
BRANCH   6  24
ATOM     24  C   UNL     1       2.316   3.282  19.403  0.00  0.00    +0.000 C 
ATOM     25  C   UNL     1       2.018   2.116  18.432  0.00  0.00    +0.000 C 
ATOM     26  C   UNL     1       3.436   2.835  20.359  0.00  0.00    +0.000 C 
ATOM     27  C   UNL     1       1.051   3.503  20.271  0.00  0.00    +0.000 C 
ENDBRANCH   6  24
BRANCH   1  29
ATOM     28  C   UNL     1       7.860   6.445  18.630  0.00  0.00    +0.000 C 
ATOM     29  C   UNL     1       6.627   5.556  18.680  0.00  0.00    +0.000 C 
ENDBRANCH   1  29
TORSDOF 4
ENDMDL
MODEL 4
REMARK VINA RESULT:      -7.4      1.448      3.477
REMARK  Name = 
REMARK  8 active torsions:
REMARK  status: ('A' for Active; 'I' for Inactive)
REMARK    1  A    between atoms: C_1  and  C_2
REMARK    2  A    between atoms: C_2  and  N_3
REMARK    3  A    between atoms: C_8  and  C_9
REMARK    4  A    between atoms: C_9  and  C_10
REMARK    5  A    between atoms: C_9  and  C_11
REMARK    6  A    between atoms: C_9  and  C_12
REMARK    7  A    between atoms: N_17  and  C_18
REMARK    8  A    between atoms: C_22  and  C_23
REMARK                            x       y       z     vdW  Elec       q    Type
REMARK                         _______ _______ _______ _____ _____    ______ ____
ROOT
ATOM      1  N   UNL     1       5.281   5.262  17.494  0.00  0.00    +0.000 NA
ATOM      2  C   UNL     1       4.553   6.371  16.821  0.00  0.00    +0.000 C 
ATOM      3  C   UNL     1       3.522   7.107  17.710  0.00  0.00    +0.000 C 
ATOM      4  C   UNL     1       2.894   6.122  18.638  0.00  0.00    +0.000 A 
ATOM      5  C   UNL     1       3.207   4.787  18.708  0.00  0.00    +0.000 A 
ATOM      6  C   UNL     1       2.375   4.266  19.737  0.00  0.00    +0.000 A 
ATOM      7  N   UNL     1       1.591   5.243  20.256  0.00  0.00    +0.000 NA
ATOM      8  N   UNL     1       2.069   6.406  19.694  0.00  0.00    +0.000 N 
ATOM      9  C   UNL     1       1.810   7.690  20.242  0.00  0.00    +0.000 C 
ATOM     10  O   UNL     1       2.636   8.579  20.073  0.00  0.00    +0.000 OA
ATOM     11  N   UNL     1       0.564   7.766  20.827  0.00  0.00    +0.000 N 
ATOM     12  C   UNL     1       4.299   4.198  17.864  0.00  0.00    +0.000 C 
ATOM     13  H   UNL     1      -0.017   6.936  20.746  0.00  0.00    +0.000 HD
ENDROOT
BRANCH  11  14
ATOM     14  C   UNL     1      -0.000   8.952  21.362  0.00  0.00    +0.000 A 
ATOM     15  C   UNL     1      -0.211   9.148  22.732  0.00  0.00    +0.000 A 
ATOM     16  C   UNL     1      -0.789  10.326  23.213  0.00  0.00    +0.000 A 
ATOM     17  C   UNL     1      -1.157  11.332  22.327  0.00  0.00    +0.000 A 
ATOM     18  C   UNL     1      -0.950  11.169  20.950  0.00  0.00    +0.000 A 
ATOM     19  C   UNL     1      -0.369   9.972  20.477  0.00  0.00    +0.000 A 
BRANCH  18  20
ATOM     20  C   UNL     1      -1.342  12.259  19.985  0.00  0.00    +0.000 C 
ATOM     21  F   UNL     1      -1.219  11.897  18.674  0.00  0.00    +0.000 F 
ATOM     22  F   UNL     1      -2.636  12.654  20.138  0.00  0.00    +0.000 F 
ATOM     23  F   UNL     1      -0.587  13.380  20.132  0.00  0.00    +0.000 F 
ENDBRANCH  18  20
ENDBRANCH  11  14
BRANCH   6  24
ATOM     24  C   UNL     1       2.339   2.830  20.275  0.00  0.00    +0.000 C 
ATOM     25  C   UNL     1       1.440   2.750  21.531  0.00  0.00    +0.000 C 
ATOM     26  C   UNL     1       1.793   1.837  19.233  0.00  0.00    +0.000 C 
ATOM     27  C   UNL     1       3.749   2.326  20.675  0.00  0.00    +0.000 C 
ENDBRANCH   6  24
BRANCH   1  29
ATOM     28  C   UNL     1       7.477   6.091  18.453  0.00  0.00    +0.000 C 
ATOM     29  C   UNL     1       6.032   5.687  18.701  0.00  0.00    +0.000 C 
ENDBRANCH   1  29
TORSDOF 4
ENDMDL
MODEL 5
REMARK VINA RESULT:      -7.4      2.413      4.119
REMARK  Name = 
REMARK  8 active torsions:
REMARK  status: ('A' for Active; 'I' for Inactive)
REMARK    1  A    between atoms: C_1  and  C_2
REMARK    2  A    between atoms: C_2  and  N_3
REMARK    3  A    between atoms: C_8  and  C_9
REMARK    4  A    between atoms: C_9  and  C_10
REMARK    5  A    between atoms: C_9  and  C_11
REMARK    6  A    between atoms: C_9  and  C_12
REMARK    7  A    between atoms: N_17  and  C_18
REMARK    8  A    between atoms: C_22  and  C_23
REMARK                            x       y       z     vdW  Elec       q    Type
REMARK                         _______ _______ _______ _____ _____    ______ ____
ROOT
ATOM      1  N   UNL     1       6.419   4.926  17.186  0.00  0.00    +0.000 NA
ATOM      2  C   UNL     1       6.065   5.884  16.105  0.00  0.00    +0.000 C 
ATOM      3  C   UNL     1       4.877   6.821  16.430  0.00  0.00    +0.000 C 
ATOM      4  C   UNL     1       3.886   6.075  17.259  0.00  0.00    +0.000 A 
ATOM      5  C   UNL     1       4.027   4.778  17.687  0.00  0.00    +0.000 A 
ATOM      6  C   UNL     1       2.856   4.512  18.451  0.00  0.00    +0.000 A 
ATOM      7  N   UNL     1       2.045   5.598  18.472  0.00  0.00    +0.000 NA
ATOM      8  N   UNL     1       2.792   6.601  17.895  0.00  0.00    +0.000 N 
ATOM      9  C   UNL     1       2.496   7.979  18.064  0.00  0.00    +0.000 C 
ATOM     10  O   UNL     1       3.414   8.788  18.019  0.00  0.00    +0.000 OA
ATOM     11  N   UNL     1       1.140   8.212  18.163  0.00  0.00    +0.000 N 
ATOM     12  C   UNL     1       5.271   3.993  17.396  0.00  0.00    +0.000 C 
ATOM     13  H   UNL     1       0.539   7.401  18.049  0.00  0.00    +0.000 HD
ENDROOT
BRANCH  11  14
ATOM     14  C   UNL     1       0.551   9.500  18.234  0.00  0.00    +0.000 A 
ATOM     15  C   UNL     1       1.211  10.615  18.764  0.00  0.00    +0.000 A 
ATOM     16  C   UNL     1       0.584  11.862  18.833  0.00  0.00    +0.000 A 
ATOM     17  C   UNL     1      -0.715  12.013  18.362  0.00  0.00    +0.000 A 
ATOM     18  C   UNL     1      -1.400  10.918  17.816  0.00  0.00    +0.000 A 
ATOM     19  C   UNL     1      -0.755   9.662  17.757  0.00  0.00    +0.000 A 
BRANCH  18  20
ATOM     20  C   UNL     1      -2.806  11.077  17.298  0.00  0.00    +0.000 C 
ATOM     21  F   UNL     1      -2.867  11.362  15.964  0.00  0.00    +0.000 F 
ATOM     22  F   UNL     1      -3.558   9.956  17.470  0.00  0.00    +0.000 F 
ATOM     23  F   UNL     1      -3.480  12.080  17.922  0.00  0.00    +0.000 F 
ENDBRANCH  18  20
ENDBRANCH  11  14
BRANCH   6  24
ATOM     24  C   UNL     1       2.505   3.226  19.210  0.00  0.00    +0.000 C 
ATOM     25  C   UNL     1       1.232   3.437  20.063  0.00  0.00    +0.000 C 
ATOM     26  C   UNL     1       2.251   2.044  18.256  0.00  0.00    +0.000 C 
ATOM     27  C   UNL     1       3.643   2.790  20.166  0.00  0.00    +0.000 C 
ENDBRANCH   6  24
BRANCH   1  29
ATOM     28  C   UNL     1       7.849   6.648  18.378  0.00  0.00    +0.000 C 
ATOM     29  C   UNL     1       6.771   5.579  18.471  0.00  0.00    +0.000 C 
ENDBRANCH   1  29
TORSDOF 4
ENDMDL
MODEL 6
REMARK VINA RESULT:      -7.4      1.431      3.561
REMARK  Name = 
REMARK  8 active torsions:
REMARK  status: ('A' for Active; 'I' for Inactive)
REMARK    1  A    between atoms: C_1  and  C_2
REMARK    2  A    between atoms: C_2  and  N_3
REMARK    3  A    between atoms: C_8  and  C_9
REMARK    4  A    between atoms: C_9  and  C_10
REMARK    5  A    between atoms: C_9  and  C_11
REMARK    6  A    between atoms: C_9  and  C_12
REMARK    7  A    between atoms: N_17  and  C_18
REMARK    8  A    between atoms: C_22  and  C_23
REMARK                            x       y       z     vdW  Elec       q    Type
REMARK                         _______ _______ _______ _____ _____    ______ ____
ROOT
ATOM      1  N   UNL     1       5.320   5.187  17.568  0.00  0.00    +0.000 NA
ATOM      2  C   UNL     1       4.617   6.306  16.885  0.00  0.00    +0.000 C 
ATOM      3  C   UNL     1       3.582   7.053  17.759  0.00  0.00    +0.000 C 
ATOM      4  C   UNL     1       2.927   6.075  18.675  0.00  0.00    +0.000 A 
ATOM      5  C   UNL     1       3.223   4.736  18.749  0.00  0.00    +0.000 A 
ATOM      6  C   UNL     1       2.369   4.223  19.764  0.00  0.00    +0.000 A 
ATOM      7  N   UNL     1       1.588   5.209  20.272  0.00  0.00    +0.000 NA
ATOM      8  N   UNL     1       2.090   6.367  19.719  0.00  0.00    +0.000 N 
ATOM      9  C   UNL     1       1.838   7.654  20.265  0.00  0.00    +0.000 C 
ATOM     10  O   UNL     1       2.677   8.532  20.110  0.00  0.00    +0.000 OA
ATOM     11  N   UNL     1       0.584   7.744  20.831  0.00  0.00    +0.000 N 
ATOM     12  C   UNL     1       4.320   4.135  17.921  0.00  0.00    +0.000 C 
ATOM     13  H   UNL     1      -0.006   6.922  20.740  0.00  0.00    +0.000 HD
ENDROOT
BRANCH  11  14
ATOM     14  C   UNL     1       0.026   8.936  21.359  0.00  0.00    +0.000 A 
ATOM     15  C   UNL     1      -0.187   9.140  22.727  0.00  0.00    +0.000 A 
ATOM     16  C   UNL     1      -0.759  10.323  23.202  0.00  0.00    +0.000 A 
ATOM     17  C   UNL     1      -1.118  11.328  22.310  0.00  0.00    +0.000 A 
ATOM     18  C   UNL     1      -0.908  11.158  20.934  0.00  0.00    +0.000 A 
ATOM     19  C   UNL     1      -0.333   9.954  20.468  0.00  0.00    +0.000 A 
BRANCH  18  20
ATOM     20  C   UNL     1      -1.289  12.246  19.963  0.00  0.00    +0.000 C 
ATOM     21  F   UNL     1      -1.875  13.328  20.558  0.00  0.00    +0.000 F 
ATOM     22  F   UNL     1      -0.220  12.736  19.279  0.00  0.00    +0.000 F 
ATOM     23  F   UNL     1      -2.172  11.818  19.023  0.00  0.00    +0.000 F 
ENDBRANCH  18  20
ENDBRANCH  11  14
BRANCH   6  24
ATOM     24  C   UNL     1       2.306   2.787  20.299  0.00  0.00    +0.000 C 
ATOM     25  C   UNL     1       3.718   2.303  20.703  0.00  0.00    +0.000 C 
ATOM     26  C   UNL     1       1.390   2.670  21.531  0.00  0.00    +0.000 C 
ATOM     27  C   UNL     1       1.757   1.799  19.239  0.00  0.00    +0.000 C 
ENDBRANCH   6  24
BRANCH   1  29
ATOM     28  C   UNL     1       7.467   6.122  18.544  0.00  0.00    +0.000 C 
ATOM     29  C   UNL     1       6.058   5.601  18.787  0.00  0.00    +0.000 C 
ENDBRANCH   1  29
TORSDOF 4
ENDMDL
MODEL 7
REMARK VINA RESULT:      -7.3      2.424      4.136
REMARK  Name = 
REMARK  8 active torsions:
REMARK  status: ('A' for Active; 'I' for Inactive)
REMARK    1  A    between atoms: C_1  and  C_2
REMARK    2  A    between atoms: C_2  and  N_3
REMARK    3  A    between atoms: C_8  and  C_9
REMARK    4  A    between atoms: C_9  and  C_10
REMARK    5  A    between atoms: C_9  and  C_11
REMARK    6  A    between atoms: C_9  and  C_12
REMARK    7  A    between atoms: N_17  and  C_18
REMARK    8  A    between atoms: C_22  and  C_23
REMARK                            x       y       z     vdW  Elec       q    Type
REMARK                         _______ _______ _______ _____ _____    ______ ____
ROOT
ATOM      1  N   UNL     1       6.266   4.895  17.333  0.00  0.00    +0.000 NA
ATOM      2  C   UNL     1       5.942   5.853  16.241  0.00  0.00    +0.000 C 
ATOM      3  C   UNL     1       4.782   6.827  16.554  0.00  0.00    +0.000 C 
ATOM      4  C   UNL     1       3.767   6.119  17.388  0.00  0.00    +0.000 A 
ATOM      5  C   UNL     1       3.870   4.823  17.830  0.00  0.00    +0.000 A 
ATOM      6  C   UNL     1       2.690   4.599  18.594  0.00  0.00    +0.000 A 
ATOM      7  N   UNL     1       1.911   5.708  18.602  0.00  0.00    +0.000 NA
ATOM      8  N   UNL     1       2.689   6.683  18.016  0.00  0.00    +0.000 N 
ATOM      9  C   UNL     1       2.432   8.071  18.170  0.00  0.00    +0.000 C 
ATOM     10  O   UNL     1       3.373   8.852  18.119  0.00  0.00    +0.000 OA
ATOM     11  N   UNL     1       1.084   8.344  18.263  0.00  0.00    +0.000 N 
ATOM     12  C   UNL     1       5.091   3.998  17.550  0.00  0.00    +0.000 C 
ATOM     13  H   UNL     1       0.459   7.550  18.157  0.00  0.00    +0.000 HD
ENDROOT
BRANCH  11  14
ATOM     14  C   UNL     1       0.532   9.649  18.320  0.00  0.00    +0.000 A 
ATOM     15  C   UNL     1       1.283  10.783  18.652  0.00  0.00    +0.000 A 
ATOM     16  C   UNL     1       0.693  12.048  18.715  0.00  0.00    +0.000 A 
ATOM     17  C   UNL     1      -0.661  12.199  18.437  0.00  0.00    +0.000 A 
ATOM     18  C   UNL     1      -1.438  11.084  18.091  0.00  0.00    +0.000 A 
ATOM     19  C   UNL     1      -0.829   9.810  18.036  0.00  0.00    +0.000 A 
BRANCH  18  20
ATOM     20  C   UNL     1      -2.905  11.241  17.783  0.00  0.00    +0.000 C 
ATOM     21  F   UNL     1      -3.542  12.132  18.599  0.00  0.00    +0.000 F 
ATOM     22  F   UNL     1      -3.129  11.680  16.514  0.00  0.00    +0.000 F 
ATOM     23  F   UNL     1      -3.590  10.074  17.903  0.00  0.00    +0.000 F 
ENDBRANCH  18  20
ENDBRANCH  11  14
BRANCH   6  24
ATOM     24  C   UNL     1       2.300   3.332  19.365  0.00  0.00    +0.000 C 
ATOM     25  C   UNL     1       3.451   2.897  20.301  0.00  0.00    +0.000 C 
ATOM     26  C   UNL     1       1.039   3.544  20.223  0.00  0.00    +0.000 C 
ATOM     27  C   UNL     1       1.997   2.146  18.413  0.00  0.00    +0.000 C 
ENDBRANCH   6  24
BRANCH   1  29
ATOM     28  C   UNL     1       7.832   6.486  18.537  0.00  0.00    +0.000 C 
ATOM     29  C   UNL     1       6.634   5.551  18.612  0.00  0.00    +0.000 C 
ENDBRANCH   1  29
TORSDOF 4
ENDMDL
MODEL 8
REMARK VINA RESULT:      -7.1      1.519      2.219
REMARK  Name = 
REMARK  8 active torsions:
REMARK  status: ('A' for Active; 'I' for Inactive)
REMARK    1  A    between atoms: C_1  and  C_2
REMARK    2  A    between atoms: C_2  and  N_3
REMARK    3  A    between atoms: C_8  and  C_9
REMARK    4  A    between atoms: C_9  and  C_10
REMARK    5  A    between atoms: C_9  and  C_11
REMARK    6  A    between atoms: C_9  and  C_12
REMARK    7  A    between atoms: N_17  and  C_18
REMARK    8  A    between atoms: C_22  and  C_23
REMARK                            x       y       z     vdW  Elec       q    Type
REMARK                         _______ _______ _______ _____ _____    ______ ____
ROOT
ATOM      1  N   UNL     1       3.261   2.194  20.166  0.00  0.00    +0.000 NA
ATOM      2  C   UNL     1       2.851   2.872  21.426  0.00  0.00    +0.000 C 
ATOM      3  C   UNL     1       2.343   4.322  21.249  0.00  0.00    +0.000 C 
ATOM      4  C   UNL     1       3.112   4.973  20.149  0.00  0.00    +0.000 A 
ATOM      5  C   UNL     1       4.089   4.367  19.398  0.00  0.00    +0.000 A 
ATOM      6  C   UNL     1       4.514   5.361  18.473  0.00  0.00    +0.000 A 
ATOM      7  N   UNL     1       3.829   6.515  18.666  0.00  0.00    +0.000 NA
ATOM      8  N   UNL     1       2.843   6.186  19.571  0.00  0.00    +0.000 N 
ATOM      9  C   UNL     1       1.674   6.969  19.757  0.00  0.00    +0.000 C 
ATOM     10  O   UNL     1       0.644   6.413  20.117  0.00  0.00    +0.000 OA
ATOM     11  N   UNL     1       1.916   8.316  19.585  0.00  0.00    +0.000 N 
ATOM     12  C   UNL     1       4.433   2.920  19.590  0.00  0.00    +0.000 C 
ATOM     13  H   UNL     1       2.882   8.576  19.408  0.00  0.00    +0.000 HD
ENDROOT
BRANCH  11  14
ATOM     14  C   UNL     1       0.958   9.337  19.809  0.00  0.00    +0.000 A 
ATOM     15  C   UNL     1       0.387  10.089  18.775  0.00  0.00    +0.000 A 
ATOM     16  C   UNL     1      -0.539  11.101  19.043  0.00  0.00    +0.000 A 
ATOM     17  C   UNL     1      -0.915  11.370  20.355  0.00  0.00    +0.000 A 
ATOM     18  C   UNL     1      -0.368  10.627  21.411  0.00  0.00    +0.000 A 
ATOM     19  C   UNL     1       0.571   9.611  21.126  0.00  0.00    +0.000 A 
BRANCH  18  20
ATOM     20  C   UNL     1      -0.776  10.909  22.834  0.00  0.00    +0.000 C 
ATOM     21  F   UNL     1      -0.505  12.187  23.236  0.00  0.00    +0.000 F 
ATOM     22  F   UNL     1      -2.110  10.733  23.041  0.00  0.00    +0.000 F 
ATOM     23  F   UNL     1      -0.148  10.099  23.726  0.00  0.00    +0.000 F 
ENDBRANCH  18  20
ENDBRANCH  11  14
BRANCH   6  24
ATOM     24  C   UNL     1       5.558   5.219  17.358  0.00  0.00    +0.000 C 
ATOM     25  C   UNL     1       6.939   4.868  17.959  0.00  0.00    +0.000 C 
ATOM     26  C   UNL     1       5.180   4.117  16.351  0.00  0.00    +0.000 C 
ATOM     27  C   UNL     1       5.719   6.529  16.546  0.00  0.00    +0.000 C 
ENDBRANCH   6  24
BRANCH   1  29
ATOM     28  C   UNL     1       2.649   1.883  17.725  0.00  0.00    +0.000 C 
ATOM     29  C   UNL     1       2.180   2.113  19.154  0.00  0.00    +0.000 C 
ENDBRANCH   1  29
TORSDOF 4
ENDMDL
MODEL 9
REMARK VINA RESULT:      -7.1      2.701      4.314
REMARK  Name = 
REMARK  8 active torsions:
REMARK  status: ('A' for Active; 'I' for Inactive)
REMARK    1  A    between atoms: C_1  and  C_2
REMARK    2  A    between atoms: C_2  and  N_3
REMARK    3  A    between atoms: C_8  and  C_9
REMARK    4  A    between atoms: C_9  and  C_10
REMARK    5  A    between atoms: C_9  and  C_11
REMARK    6  A    between atoms: C_9  and  C_12
REMARK    7  A    between atoms: N_17  and  C_18
REMARK    8  A    between atoms: C_22  and  C_23
REMARK                            x       y       z     vdW  Elec       q    Type
REMARK                         _______ _______ _______ _____ _____    ______ ____
ROOT
ATOM      1  N   UNL     1       6.120   4.766  17.386  0.00  0.00    +0.000 NA
ATOM      2  C   UNL     1       5.840   5.729  16.287  0.00  0.00    +0.000 C 
ATOM      3  C   UNL     1       4.731   6.764  16.595  0.00  0.00    +0.000 C 
ATOM      4  C   UNL     1       3.686   6.115  17.440  0.00  0.00    +0.000 A 
ATOM      5  C   UNL     1       3.725   4.820  17.893  0.00  0.00    +0.000 A 
ATOM      6  C   UNL     1       2.539   4.663  18.663  0.00  0.00    +0.000 A 
ATOM      7  N   UNL     1       1.817   5.811  18.665  0.00  0.00    +0.000 NA
ATOM      8  N   UNL     1       2.641   6.739  18.067  0.00  0.00    +0.000 N 
ATOM      9  C   UNL     1       2.455   8.140  18.210  0.00  0.00    +0.000 C 
ATOM     10  O   UNL     1       3.435   8.872  18.148  0.00  0.00    +0.000 OA
ATOM     11  N   UNL     1       1.123   8.482  18.306  0.00  0.00    +0.000 N 
ATOM     12  C   UNL     1       4.902   3.932  17.615  0.00  0.00    +0.000 C 
ATOM     13  H   UNL     1       0.459   7.719  18.209  0.00  0.00    +0.000 HD
ENDROOT
BRANCH  11  14
ATOM     14  C   UNL     1       0.639   9.814  18.354  0.00  0.00    +0.000 A 
ATOM     15  C   UNL     1      -0.709  10.144  18.172  0.00  0.00    +0.000 A 
ATOM     16  C   UNL     1      -1.140  11.473  18.208  0.00  0.00    +0.000 A 
ATOM     17  C   UNL     1      -0.224  12.494  18.436  0.00  0.00    +0.000 A 
ATOM     18  C   UNL     1       1.132  12.195  18.631  0.00  0.00    +0.000 A 
ATOM     19  C   UNL     1       1.554  10.847  18.587  0.00  0.00    +0.000 A 
BRANCH  18  20
ATOM     20  C   UNL     1       2.128  13.297  18.884  0.00  0.00    +0.000 C 
ATOM     21  F   UNL     1       3.237  13.223  18.089  0.00  0.00    +0.000 F 
ATOM     22  F   UNL     1       1.605  14.536  18.670  0.00  0.00    +0.000 F 
ATOM     23  F   UNL     1       2.589  13.299  20.162  0.00  0.00    +0.000 F 
ENDBRANCH  18  20
ENDBRANCH  11  14
BRANCH   6  24
ATOM     24  C   UNL     1       2.088   3.424  19.447  0.00  0.00    +0.000 C 
ATOM     25  C   UNL     1       1.668   2.297  18.475  0.00  0.00    +0.000 C 
ATOM     26  C   UNL     1       3.204   2.879  20.357  0.00  0.00    +0.000 C 
ATOM     27  C   UNL     1       0.875   3.729  20.363  0.00  0.00    +0.000 C 
ENDBRANCH   6  24
BRANCH   1  29
ATOM     28  C   UNL     1       7.784   6.266  18.575  0.00  0.00    +0.000 C 
ATOM     29  C   UNL     1       6.526   5.413  18.657  0.00  0.00    +0.000 C 
ENDBRANCH   1  29
TORSDOF 4
ENDMDL
