MODEL 1
REMARK VINA RESULT:      -8.8      0.000      0.000
REMARK  Name = 
REMARK  4 active torsions:
REMARK  status: ('A' for Active; 'I' for Inactive)
REMARK    1  A    between atoms: C_2  and  C_17
REMARK    2  A    between atoms: N_3  and  C_4
REMARK    3  A    between atoms: C_4  and  C_5
REMARK    4  A    between atoms: C_10  and  C_11
REMARK                            x       y       z     vdW  Elec       q    Type
REMARK                         _______ _______ _______ _____ _____    ______ ____
ROOT
ATOM      1  C   UNL     1       3.078   6.297  18.111  0.00  0.00    +0.000 C 
ENDROOT
BRANCH   1   2
ATOM      2  C   UNL     1       2.798   4.814  18.148  0.00  0.00    +0.000 A 
ATOM      3  C   UNL     1       1.564   4.327  18.625  0.00  0.00    +0.000 A 
ATOM      4  C   UNL     1       1.269   2.972  18.585  0.00  0.00    +0.000 A 
ATOM      5  C   UNL     1       2.218   2.123  18.062  0.00  0.00    +0.000 A 
ATOM      6  N   UNL     1       3.422   2.537  17.613  0.00  0.00    +0.000 NA
ATOM      7  C   UNL     1       3.729   3.865  17.671  0.00  0.00    +0.000 A 
BRANCH   7   8
ATOM      8  C   UNL     1       5.096   4.159  17.157  0.00  0.00    +0.000 A 
ATOM      9  C   UNL     1       6.152   4.399  18.052  0.00  0.00    +0.000 A 
ATOM     10  C   UNL     1       7.424   4.670  17.566  0.00  0.00    +0.000 A 
ATOM     11  N   UNL     1       7.737   4.697  16.256  0.00  0.00    +0.000 NA
ATOM     12  C   UNL     1       6.719   4.506  15.399  0.00  0.00    +0.000 A 
ATOM     13  C   UNL     1       5.407   4.277  15.796  0.00  0.00    +0.000 A 
ENDBRANCH   7   8
ENDBRANCH   1   2
BRANCH   1  16
ATOM     14  O   UNL     1       2.085   8.894  17.695  0.00  0.00    +0.000 OA
ATOM     15  C   UNL     1       1.912   8.355  18.783  0.00  0.00    +0.000 C 
ATOM     16  N   UNL     1       2.362   7.087  19.096  0.00  0.00    +0.000 N 
ATOM     17  H   UNL     1       2.041   6.620  19.933  0.00  0.00    +0.000 HD
BRANCH  15  18
ATOM     18  C   UNL     1       1.156   9.073  19.832  0.00  0.00    +0.000 A 
ATOM     19  C   UNL     1       1.183   8.551  21.132  0.00  0.00    +0.000 A 
ATOM     20  C   UNL     1       0.456   9.169  22.148  0.00  0.00    +0.000 A 
ATOM     21  C   UNL     1      -0.313  10.300  21.869  0.00  0.00    +0.000 A 
ATOM     22 CL   UNL     1      -1.199  11.011  23.169  0.00  0.00    +0.000 Cl
ATOM     23  C   UNL     1      -0.354  10.815  20.565  0.00  0.00    +0.000 A 
ATOM     24 CL   UNL     1      -1.305  12.192  20.141  0.00  0.00    +0.000 Cl
ATOM     25  C   UNL     1       0.383  10.201  19.547  0.00  0.00    +0.000 A 
ENDBRANCH  15  18
ENDBRANCH   1  16
TORSDOF 4
ENDMDL
MODEL 2
REMARK VINA RESULT:      -8.8      0.670      1.444
REMARK  Name = 
REMARK  4 active torsions:
REMARK  status: ('A' for Active; 'I' for Inactive)
REMARK    1  A    between atoms: C_2  and  C_17
REMARK    2  A    between atoms: N_3  and  C_4
REMARK    3  A    between atoms: C_4  and  C_5
REMARK    4  A    between atoms: C_10  and  C_11
REMARK                            x       y       z     vdW  Elec       q    Type
REMARK                         _______ _______ _______ _____ _____    ______ ____
ROOT
ATOM      1  C   UNL     1       3.092   6.456  17.945  0.00  0.00    +0.000 C 
ENDROOT
BRANCH   1   2
ATOM      2  C   UNL     1       2.785   4.980  18.036  0.00  0.00    +0.000 A 
ATOM      3  C   UNL     1       1.545   4.533  18.534  0.00  0.00    +0.000 A 
ATOM      4  C   UNL     1       1.226   3.183  18.544  0.00  0.00    +0.000 A 
ATOM      5  C   UNL     1       2.157   2.299  18.049  0.00  0.00    +0.000 A 
ATOM      6  N   UNL     1       3.366   2.675  17.582  0.00  0.00    +0.000 NA
ATOM      7  C   UNL     1       3.698   3.998  17.590  0.00  0.00    +0.000 A 
BRANCH   7   8
ATOM      8  C   UNL     1       5.068   4.248  17.062  0.00  0.00    +0.000 A 
ATOM      9  C   UNL     1       6.134   4.489  17.944  0.00  0.00    +0.000 A 
ATOM     10  C   UNL     1       7.409   4.720  17.445  0.00  0.00    +0.000 A 
ATOM     11  N   UNL     1       7.715   4.705  16.133  0.00  0.00    +0.000 NA
ATOM     12  C   UNL     1       6.687   4.514  15.287  0.00  0.00    +0.000 A 
ATOM     13  C   UNL     1       5.374   4.325  15.696  0.00  0.00    +0.000 A 
ENDBRANCH   7   8
ENDBRANCH   1   2
BRANCH   1  16
ATOM     14  O   UNL     1       2.211   9.051  17.321  0.00  0.00    +0.000 OA
ATOM     15  C   UNL     1       1.922   8.568  18.410  0.00  0.00    +0.000 C 
ATOM     16  N   UNL     1       2.307   7.307  18.821  0.00  0.00    +0.000 N 
ATOM     17  H   UNL     1       1.897   6.887  19.644  0.00  0.00    +0.000 HD
BRANCH  15  18
ATOM     18  C   UNL     1       1.090   9.351  19.349  0.00  0.00    +0.000 A 
ATOM     19  C   UNL     1       0.444  10.492  18.858  0.00  0.00    +0.000 A 
ATOM     20  C   UNL     1      -0.320  11.285  19.712  0.00  0.00    +0.000 A 
ATOM     21  C   UNL     1      -0.431  10.951  21.063  0.00  0.00    +0.000 A 
ATOM     22 CL   UNL     1      -1.383  11.980  22.071  0.00  0.00    +0.000 Cl
ATOM     23  C   UNL     1       0.228   9.818  21.561  0.00  0.00    +0.000 A 
ATOM     24 CL   UNL     1       0.160   9.360  23.225  0.00  0.00    +0.000 Cl
ATOM     25  C   UNL     1       0.988   9.016  20.702  0.00  0.00    +0.000 A 
ENDBRANCH  15  18
ENDBRANCH   1  16
TORSDOF 4
ENDMDL
MODEL 3
REMARK VINA RESULT:      -8.5      1.454      3.526
REMARK  Name = 
REMARK  4 active torsions:
REMARK  status: ('A' for Active; 'I' for Inactive)
REMARK    1  A    between atoms: C_2  and  C_17
REMARK    2  A    between atoms: N_3  and  C_4
REMARK    3  A    between atoms: C_4  and  C_5
REMARK    4  A    between atoms: C_10  and  C_11
REMARK                            x       y       z     vdW  Elec       q    Type
REMARK                         _______ _______ _______ _____ _____    ______ ____
ROOT
ATOM      1  C   UNL     1       3.689   6.739  17.319  0.00  0.00    +0.000 C 
ENDROOT
BRANCH   1   2
ATOM      2  C   UNL     1       5.065   6.215  17.651  0.00  0.00    +0.000 A 
ATOM      3  C   UNL     1       6.211   6.999  17.409  0.00  0.00    +0.000 A 
ATOM      4  C   UNL     1       7.471   6.556  17.788  0.00  0.00    +0.000 A 
ATOM      5  C   UNL     1       7.561   5.331  18.407  0.00  0.00    +0.000 A 
ATOM      6  N   UNL     1       6.498   4.533  18.641  0.00  0.00    +0.000 NA
ATOM      7  C   UNL     1       5.259   4.950  18.251  0.00  0.00    +0.000 A 
BRANCH   7   8
ATOM      8  C   UNL     1       4.196   3.955  18.561  0.00  0.00    +0.000 A 
ATOM      9  C   UNL     1       3.762   3.052  17.576  0.00  0.00    +0.000 A 
ATOM     10  C   UNL     1       2.772   2.124  17.872  0.00  0.00    +0.000 A 
ATOM     11  N   UNL     1       2.194   2.006  19.083  0.00  0.00    +0.000 NA
ATOM     12  C   UNL     1       2.580   2.896  20.014  0.00  0.00    +0.000 A 
ATOM     13  C   UNL     1       3.527   3.887  19.791  0.00  0.00    +0.000 A 
ENDBRANCH   7   8
ENDBRANCH   1   2
BRANCH   1  16
ATOM     14  O   UNL     1       2.093   9.051  17.215  0.00  0.00    +0.000 OA
ATOM     15  C   UNL     1       2.192   8.440  18.273  0.00  0.00    +0.000 C 
ATOM     16  N   UNL     1       2.952   7.299  18.437  0.00  0.00    +0.000 N 
ATOM     17  H   UNL     1       2.859   6.734  19.270  0.00  0.00    +0.000 HD
BRANCH  15  18
ATOM     18  C   UNL     1       1.441   8.917  19.455  0.00  0.00    +0.000 A 
ATOM     19  C   UNL     1       1.581   8.203  20.652  0.00  0.00    +0.000 A 
ATOM     20  C   UNL     1       0.866   8.589  21.784  0.00  0.00    +0.000 A 
ATOM     21  C   UNL     1      -0.005   9.678  21.722  0.00  0.00    +0.000 A 
ATOM     22 CL   UNL     1      -0.872  10.098  23.156  0.00  0.00    +0.000 Cl
ATOM     23  C   UNL     1      -0.160  10.384  20.521  0.00  0.00    +0.000 A 
ATOM     24 CL   UNL     1      -1.240  11.722  20.363  0.00  0.00    +0.000 Cl
ATOM     25  C   UNL     1       0.566  10.003  19.387  0.00  0.00    +0.000 A 
ENDBRANCH  15  18
ENDBRANCH   1  16
TORSDOF 4
ENDMDL
MODEL 4
REMARK VINA RESULT:      -8.5      0.782      1.223
REMARK  Name = 
REMARK  4 active torsions:
REMARK  status: ('A' for Active; 'I' for Inactive)
REMARK    1  A    between atoms: C_2  and  C_17
REMARK    2  A    between atoms: N_3  and  C_4
REMARK    3  A    between atoms: C_4  and  C_5
REMARK    4  A    between atoms: C_10  and  C_11
REMARK                            x       y       z     vdW  Elec       q    Type
REMARK                         _______ _______ _______ _____ _____    ______ ____
ROOT
ATOM      1  C   UNL     1       3.116   6.302  19.120  0.00  0.00    +0.000 C 
ENDROOT
BRANCH   1   2
ATOM      2  C   UNL     1       2.790   4.830  19.193  0.00  0.00    +0.000 A 
ATOM      3  C   UNL     1       1.620   4.384  19.840  0.00  0.00    +0.000 A 
ATOM      4  C   UNL     1       1.273   3.041  19.840  0.00  0.00    +0.000 A 
ATOM      5  C   UNL     1       2.105   2.163  19.185  0.00  0.00    +0.000 A 
ATOM      6  N   UNL     1       3.247   2.536  18.569  0.00  0.00    +0.000 NA
ATOM      7  C   UNL     1       3.608   3.852  18.585  0.00  0.00    +0.000 A 
BRANCH   7   8
ATOM      8  C   UNL     1       4.897   4.100  17.882  0.00  0.00    +0.000 A 
ATOM      9  C   UNL     1       5.001   3.882  16.498  0.00  0.00    +0.000 A 
ATOM     10  C   UNL     1       6.205   4.119  15.847  0.00  0.00    +0.000 A 
ATOM     11  N   UNL     1       7.312   4.580  16.461  0.00  0.00    +0.000 NA
ATOM     12  C   UNL     1       7.223   4.751  17.792  0.00  0.00    +0.000 A 
ATOM     13  C   UNL     1       6.076   4.493  18.530  0.00  0.00    +0.000 A 
ENDBRANCH   7   8
ENDBRANCH   1   2
BRANCH   1  16
ATOM     14  O   UNL     1       2.003   8.763  18.338  0.00  0.00    +0.000 OA
ATOM     15  C   UNL     1       1.801   8.350  19.474  0.00  0.00    +0.000 C 
ATOM     16  N   UNL     1       2.304   7.160  19.964  0.00  0.00    +0.000 N 
ATOM     17  H   UNL     1       1.964   6.779  20.836  0.00  0.00    +0.000 HD
BRANCH  15  18
ATOM     18  C   UNL     1       0.949   9.141  20.390  0.00  0.00    +0.000 A 
ATOM     19  C   UNL     1       0.848   8.717  21.721  0.00  0.00    +0.000 A 
ATOM     20  C   UNL     1       0.029   9.405  22.613  0.00  0.00    +0.000 A 
ATOM     21  C   UNL     1      -0.706  10.510  22.178  0.00  0.00    +0.000 A 
ATOM     22 CL   UNL     1      -1.712  11.312  23.330  0.00  0.00    +0.000 Cl
ATOM     23  C   UNL     1      -0.619  10.926  20.841  0.00  0.00    +0.000 A 
ATOM     24 CL   UNL     1      -1.520  12.264  20.225  0.00  0.00    +0.000 Cl
ATOM     25  C   UNL     1       0.211  10.241  19.947  0.00  0.00    +0.000 A 
ENDBRANCH  15  18
ENDBRANCH   1  16
TORSDOF 4
ENDMDL
MODEL 5
REMARK VINA RESULT:      -8.3      2.354      4.261
REMARK  Name = 
REMARK  4 active torsions:
REMARK  status: ('A' for Active; 'I' for Inactive)
REMARK    1  A    between atoms: C_2  and  C_17
REMARK    2  A    between atoms: N_3  and  C_4
REMARK    3  A    between atoms: C_4  and  C_5
REMARK    4  A    between atoms: C_10  and  C_11
REMARK                            x       y       z     vdW  Elec       q    Type
REMARK                         _______ _______ _______ _____ _____    ______ ____
ROOT
ATOM      1  C   UNL     1       4.656   4.017  16.760  0.00  0.00    +0.000 C 
ENDROOT
BRANCH   1   2
ATOM      2  C   UNL     1       5.572   4.209  15.575  0.00  0.00    +0.000 A 
ATOM      3  C   UNL     1       5.266   3.625  14.330  0.00  0.00    +0.000 A 
ATOM      4  C   UNL     1       6.060   3.864  13.217  0.00  0.00    +0.000 A 
ATOM      5  C   UNL     1       7.149   4.691  13.370  0.00  0.00    +0.000 A 
ATOM      6  N   UNL     1       7.497   5.255  14.546  0.00  0.00    +0.000 NA
ATOM      7  C   UNL     1       6.736   5.006  15.651  0.00  0.00    +0.000 A 
BRANCH   7   8
ATOM      8  C   UNL     1       7.257   5.684  16.870  0.00  0.00    +0.000 A 
ATOM      9  C   UNL     1       7.619   4.930  17.999  0.00  0.00    +0.000 A 
ATOM     10  C   UNL     1       8.107   5.567  19.132  0.00  0.00    +0.000 A 
ATOM     11  N   UNL     1       8.288   6.899  19.223  0.00  0.00    +0.000 NA
ATOM     12  C   UNL     1       7.905   7.624  18.158  0.00  0.00    +0.000 A 
ATOM     13  C   UNL     1       7.362   7.075  17.003  0.00  0.00    +0.000 A 
ENDBRANCH   7   8
ENDBRANCH   1   2
BRANCH   1  16
ATOM     14  O   UNL     1       4.405   5.141  19.325  0.00  0.00    +0.000 OA
ATOM     15  C   UNL     1       3.783   5.636  18.392  0.00  0.00    +0.000 C 
ATOM     16  N   UNL     1       3.828   5.161  17.096  0.00  0.00    +0.000 N 
ATOM     17  H   UNL     1       3.446   5.706  16.335  0.00  0.00    +0.000 HD
BRANCH  15  18
ATOM     18  C   UNL     1       2.945   6.830  18.636  0.00  0.00    +0.000 A 
ATOM     19  C   UNL     1       2.860   7.789  17.619  0.00  0.00    +0.000 A 
ATOM     20  C   UNL     1       2.115   8.951  17.813  0.00  0.00    +0.000 A 
ATOM     21  C   UNL     1       1.464   9.168  19.030  0.00  0.00    +0.000 A 
ATOM     22 CL   UNL     1       0.568  10.632  19.212  0.00  0.00    +0.000 Cl
ATOM     23  C   UNL     1       1.562   8.217  20.055  0.00  0.00    +0.000 A 
ATOM     24 CL   UNL     1       0.809   8.432  21.595  0.00  0.00    +0.000 Cl
ATOM     25  C   UNL     1       2.302   7.046  19.857  0.00  0.00    +0.000 A 
ENDBRANCH  15  18
ENDBRANCH   1  16
TORSDOF 4
ENDMDL
MODEL 6
REMARK VINA RESULT:      -8.2      1.265      2.078
REMARK  Name = 
REMARK  4 active torsions:
REMARK  status: ('A' for Active; 'I' for Inactive)
REMARK    1  A    between atoms: C_2  and  C_17
REMARK    2  A    between atoms: N_3  and  C_4
REMARK    3  A    between atoms: C_4  and  C_5
REMARK    4  A    between atoms: C_10  and  C_11
REMARK                            x       y       z     vdW  Elec       q    Type
REMARK                         _______ _______ _______ _____ _____    ______ ____
ROOT
ATOM      1  C   UNL     1       3.079   6.588  18.811  0.00  0.00    +0.000 C 
ENDROOT
BRANCH   1   2
ATOM      2  C   UNL     1       3.069   5.226  19.461  0.00  0.00    +0.000 A 
ATOM      3  C   UNL     1       2.069   4.882  20.392  0.00  0.00    +0.000 A 
ATOM      4  C   UNL     1       2.007   3.605  20.932  0.00  0.00    +0.000 A 
ATOM      5  C   UNL     1       2.950   2.689  20.525  0.00  0.00    +0.000 A 
ATOM      6  N   UNL     1       3.940   2.976  19.655  0.00  0.00    +0.000 NA
ATOM      7  C   UNL     1       4.024   4.235  19.137  0.00  0.00    +0.000 A 
BRANCH   7   8
ATOM      8  C   UNL     1       5.176   4.398  18.209  0.00  0.00    +0.000 A 
ATOM      9  C   UNL     1       5.081   3.959  16.878  0.00  0.00    +0.000 A 
ATOM     10  C   UNL     1       6.158   4.117  16.016  0.00  0.00    +0.000 A 
ATOM     11  N   UNL     1       7.320   4.701  16.368  0.00  0.00    +0.000 NA
ATOM     12  C   UNL     1       7.426   5.085  17.652  0.00  0.00    +0.000 A 
ATOM     13  C   UNL     1       6.418   4.922  18.593  0.00  0.00    +0.000 A 
ENDBRANCH   7   8
ENDBRANCH   1   2
BRANCH   1  16
ATOM     14  O   UNL     1       2.088   8.883  17.523  0.00  0.00    +0.000 OA
ATOM     15  C   UNL     1       1.762   8.660  18.684  0.00  0.00    +0.000 C 
ATOM     16  N   UNL     1       2.194   7.569  19.411  0.00  0.00    +0.000 N 
ATOM     17  H   UNL     1       1.758   7.334  20.293  0.00  0.00    +0.000 HD
BRANCH  15  18
ATOM     18  C   UNL     1       0.828   9.587  19.361  0.00  0.00    +0.000 A 
ATOM     19  C   UNL     1       0.273  10.627  18.605  0.00  0.00    +0.000 A 
ATOM     20  C   UNL     1      -0.581  11.549  19.206  0.00  0.00    +0.000 A 
ATOM     21  C   UNL     1      -0.874  11.447  20.568  0.00  0.00    +0.000 A 
ATOM     22 CL   UNL     1      -1.930  12.627  21.255  0.00  0.00    +0.000 Cl
ATOM     23  C   UNL     1      -0.306  10.416  21.330  0.00  0.00    +0.000 A 
ATOM     24 CL   UNL     1      -0.599  10.244  23.024  0.00  0.00    +0.000 Cl
ATOM     25  C   UNL     1       0.544   9.484  20.725  0.00  0.00    +0.000 A 
ENDBRANCH  15  18
ENDBRANCH   1  16
TORSDOF 4
ENDMDL
MODEL 7
REMARK VINA RESULT:      -8.2      1.545      2.106
REMARK  Name = 
REMARK  4 active torsions:
REMARK  status: ('A' for Active; 'I' for Inactive)
REMARK    1  A    between atoms: C_2  and  C_17
REMARK    2  A    between atoms: N_3  and  C_4
REMARK    3  A    between atoms: C_4  and  C_5
REMARK    4  A    between atoms: C_10  and  C_11
REMARK                            x       y       z     vdW  Elec       q    Type
REMARK                         _______ _______ _______ _____ _____    ______ ____
ROOT
ATOM      1  C   UNL     1       3.056   6.846  18.878  0.00  0.00    +0.000 C 
ENDROOT
BRANCH   1   2
ATOM      2  C   UNL     1       2.985   5.505  19.568  0.00  0.00    +0.000 A 
ATOM      3  C   UNL     1       1.924   5.205  20.446  0.00  0.00    +0.000 A 
ATOM      4  C   UNL     1       1.808   3.946  21.020  0.00  0.00    +0.000 A 
ATOM      5  C   UNL     1       2.759   3.005  20.700  0.00  0.00    +0.000 A 
ATOM      6  N   UNL     1       3.805   3.250  19.884  0.00  0.00    +0.000 NA
ATOM      7  C   UNL     1       3.940   4.491  19.334  0.00  0.00    +0.000 A 
BRANCH   7   8
ATOM      8  C   UNL     1       5.150   4.608  18.474  0.00  0.00    +0.000 A 
ATOM      9  C   UNL     1       6.352   5.105  19.007  0.00  0.00    +0.000 A 
ATOM     10  C   UNL     1       7.477   5.209  18.200  0.00  0.00    +0.000 A 
ATOM     11  N   UNL     1       7.510   4.834  16.907  0.00  0.00    +0.000 NA
ATOM     12  C   UNL     1       6.351   4.396  16.387  0.00  0.00    +0.000 A 
ATOM     13  C   UNL     1       5.166   4.305  17.106  0.00  0.00    +0.000 A 
ENDBRANCH   7   8
ENDBRANCH   1   2
BRANCH   1  16
ATOM     14  O   UNL     1       2.235   9.050  17.339  0.00  0.00    +0.000 OA
ATOM     15  C   UNL     1       1.696   8.842  18.420  0.00  0.00    +0.000 C 
ATOM     16  N   UNL     1       2.025   7.794  19.257  0.00  0.00    +0.000 N 
ATOM     17  H   UNL     1       1.436   7.561  20.045  0.00  0.00    +0.000 HD
BRANCH  15  18
ATOM     18  C   UNL     1       0.606   9.736  18.867  0.00  0.00    +0.000 A 
ATOM     19  C   UNL     1      -0.432  10.005  17.966  0.00  0.00    +0.000 A 
ATOM     20  C   UNL     1      -1.463  10.872  18.326  0.00  0.00    +0.000 A 
ATOM     21  C   UNL     1      -1.454  11.486  19.579  0.00  0.00    +0.000 A 
ATOM     22 CL   UNL     1      -2.753  12.558  19.959  0.00  0.00    +0.000 Cl
ATOM     23  C   UNL     1      -0.407  11.231  20.477  0.00  0.00    +0.000 A 
ATOM     24 CL   UNL     1      -0.314  11.977  22.032  0.00  0.00    +0.000 Cl
ATOM     25  C   UNL     1       0.623  10.354  20.120  0.00  0.00    +0.000 A 
ENDBRANCH  15  18
ENDBRANCH   1  16
TORSDOF 4
ENDMDL
MODEL 8
REMARK VINA RESULT:      -8.2      2.856      4.868
REMARK  Name = 
REMARK  4 active torsions:
REMARK  status: ('A' for Active; 'I' for Inactive)
REMARK    1  A    between atoms: C_2  and  C_17
REMARK    2  A    between atoms: N_3  and  C_4
REMARK    3  A    between atoms: C_4  and  C_5
REMARK    4  A    between atoms: C_10  and  C_11
REMARK                            x       y       z     vdW  Elec       q    Type
REMARK                         _______ _______ _______ _____ _____    ______ ____
ROOT
ATOM      1  C   UNL     1       5.018   3.440  15.680  0.00  0.00    +0.000 C 
ENDROOT
BRANCH   1   2
ATOM      2  C   UNL     1       6.007   3.981  14.676  0.00  0.00    +0.000 A 
ATOM      3  C   UNL     1       5.926   3.615  13.317  0.00  0.00    +0.000 A 
ATOM      4  C   UNL     1       6.780   4.171  12.376  0.00  0.00    +0.000 A 
ATOM      5  C   UNL     1       7.704   5.092  12.814  0.00  0.00    +0.000 A 
ATOM      6  N   UNL     1       7.837   5.459  14.106  0.00  0.00    +0.000 NA
ATOM      7  C   UNL     1       7.017   4.899  15.041  0.00  0.00    +0.000 A 
BRANCH   7   8
ATOM      8  C   UNL     1       7.299   5.391  16.418  0.00  0.00    +0.000 A 
ATOM      9  C   UNL     1       7.704   4.494  17.421  0.00  0.00    +0.000 A 
ATOM     10  C   UNL     1       7.968   4.959  18.703  0.00  0.00    +0.000 A 
ATOM     11  N   UNL     1       7.883   6.255  19.062  0.00  0.00    +0.000 NA
ATOM     12  C   UNL     1       7.457   7.107  18.113  0.00  0.00    +0.000 A 
ATOM     13  C   UNL     1       7.125   6.722  16.821  0.00  0.00    +0.000 A 
ENDBRANCH   7   8
ENDBRANCH   1   2
BRANCH   1  16
ATOM     14  O   UNL     1       4.518   3.326  18.444  0.00  0.00    +0.000 OA
ATOM     15  C   UNL     1       4.112   4.289  17.802  0.00  0.00    +0.000 C 
ATOM     16  N   UNL     1       4.297   4.442  16.442  0.00  0.00    +0.000 N 
ATOM     17  H   UNL     1       4.106   5.329  15.994  0.00  0.00    +0.000 HD
BRANCH  15  18
ATOM     18  C   UNL     1       3.402   5.379  18.506  0.00  0.00    +0.000 A 
ATOM     19  C   UNL     1       2.859   5.100  19.767  0.00  0.00    +0.000 A 
ATOM     20  C   UNL     1       2.148   6.081  20.455  0.00  0.00    +0.000 A 
ATOM     21  C   UNL     1       1.962   7.340  19.881  0.00  0.00    +0.000 A 
ATOM     22 CL   UNL     1       1.061   8.508  20.779  0.00  0.00    +0.000 Cl
ATOM     23  C   UNL     1       2.490   7.616  18.611  0.00  0.00    +0.000 A 
ATOM     24 CL   UNL     1       2.274   9.140  17.828  0.00  0.00    +0.000 Cl
ATOM     25  C   UNL     1       3.213   6.635  17.925  0.00  0.00    +0.000 A 
ENDBRANCH  15  18
ENDBRANCH   1  16
TORSDOF 4
ENDMDL
MODEL 9
REMARK VINA RESULT:      -8.2      1.375      1.510
REMARK  Name = 
REMARK  4 active torsions:
REMARK  status: ('A' for Active; 'I' for Inactive)
REMARK    1  A    between atoms: C_2  and  C_17
REMARK    2  A    between atoms: N_3  and  C_4
REMARK    3  A    between atoms: C_4  and  C_5
REMARK    4  A    between atoms: C_10  and  C_11
REMARK                            x       y       z     vdW  Elec       q    Type
REMARK                         _______ _______ _______ _____ _____    ______ ____
ROOT
ATOM      1  C   UNL     1       3.048   6.521  18.632  0.00  0.00    +0.000 C 
ENDROOT
BRANCH   1   2
ATOM      2  C   UNL     1       3.088   5.215  19.389  0.00  0.00    +0.000 A 
ATOM      3  C   UNL     1       2.124   4.926  20.376  0.00  0.00    +0.000 A 
ATOM      4  C   UNL     1       2.107   3.695  21.016  0.00  0.00    +0.000 A 
ATOM      5  C   UNL     1       3.058   2.769  20.654  0.00  0.00    +0.000 A 
ATOM      6  N   UNL     1       4.015   3.006  19.732  0.00  0.00    +0.000 NA
ATOM      7  C   UNL     1       4.054   4.221  19.114  0.00  0.00    +0.000 A 
BRANCH   7   8
ATOM      8  C   UNL     1       5.175   4.333  18.140  0.00  0.00    +0.000 A 
ATOM      9  C   UNL     1       6.421   4.835  18.549  0.00  0.00    +0.000 A 
ATOM     10  C   UNL     1       7.463   4.934  17.637  0.00  0.00    +0.000 A 
ATOM     11  N   UNL     1       7.371   4.549  16.349  0.00  0.00    +0.000 NA
ATOM     12  C   UNL     1       6.167   4.106  15.947  0.00  0.00    +0.000 A 
ATOM     13  C   UNL     1       5.058   4.019  16.779  0.00  0.00    +0.000 A 
ENDBRANCH   7   8
ENDBRANCH   1   2
BRANCH   1  16
ATOM     14  O   UNL     1       2.225   8.886  17.353  0.00  0.00    +0.000 OA
ATOM     15  C   UNL     1       1.889   8.686  18.515  0.00  0.00    +0.000 C 
ATOM     16  N   UNL     1       2.241   7.564  19.239  0.00  0.00    +0.000 N 
ATOM     17  H   UNL     1       1.794   7.361  20.123  0.00  0.00    +0.000 HD
BRANCH  15  18
ATOM     18  C   UNL     1       1.031   9.679  19.199  0.00  0.00    +0.000 A 
ATOM     19  C   UNL     1       0.540   9.356  20.470  0.00  0.00    +0.000 A 
ATOM     20  C   UNL     1      -0.303  10.240  21.139  0.00  0.00    +0.000 A 
ATOM     21  C   UNL     1      -0.672  11.445  20.537  0.00  0.00    +0.000 A 
ATOM     22 CL   UNL     1      -1.729  12.492  21.414  0.00  0.00    +0.000 Cl
ATOM     23  C   UNL     1      -0.195  11.764  19.258  0.00  0.00    +0.000 A 
ATOM     24 CL   UNL     1      -0.631  13.221  18.440  0.00  0.00    +0.000 Cl
ATOM     25  C   UNL     1       0.660  10.880  18.589  0.00  0.00    +0.000 A 
ENDBRANCH  15  18
ENDBRANCH   1  16
TORSDOF 4
ENDMDL
