MODEL 1
REMARK VINA RESULT:      -8.3      0.000      0.000
REMARK  Name = 
REMARK  9 active torsions:
REMARK  status: ('A' for Active; 'I' for Inactive)
REMARK    1  A    between atoms: C_2  and  C_3
REMARK    2  A    between atoms: C_2  and  C_28
REMARK    3  A    between atoms: C_3  and  N_4
REMARK    4  A    between atoms: N_7  and  C_8
REMARK    5  A    between atoms: C_8  and  C_9
REMARK    6  A    between atoms: C_9  and  O_10
REMARK    7  A    between atoms: O_10  and  C_11
REMARK    8  A    between atoms: C_11  and  C_12
REMARK    9  A    between atoms: C_11  and  C_19
REMARK                            x       y       z     vdW  Elec       q    Type
REMARK                         _______ _______ _______ _____ _____    ______ ____
ROOT
ATOM      1  C   UNL     1       1.871   8.036  18.593  0.00  0.00    +0.000 C 
ENDROOT
BRANCH   1   2
ATOM      2  C   UNL     1       1.467   8.783  19.879  0.00  0.00    +0.000 C 
BRANCH   2   6
ATOM      3  N   UNL     1       0.484  11.993  21.639  0.00  0.00    +0.000 NA
ATOM      4  C   UNL     1       0.116  10.611  22.008  0.00  0.00    +0.000 C 
ATOM      5  C   UNL     1      -0.534   9.823  20.854  0.00  0.00    +0.000 C 
ATOM      6  N   UNL     1       0.333   9.702  19.662  0.00  0.00    +0.000 NA
ATOM      7  C   UNL     1       0.791  11.052  19.266  0.00  0.00    +0.000 C 
ATOM      8  C   UNL     1       1.325  11.950  20.417  0.00  0.00    +0.000 C 
BRANCH   3   9
ATOM      9  C   UNL     1      -0.694  12.863  21.425  0.00  0.00    +0.000 C 
BRANCH   9  11
ATOM     10  O   UNL     1      -0.800  13.598  23.705  0.00  0.00    +0.000 OA
ATOM     11  C   UNL     1      -1.434  13.246  22.704  0.00  0.00    +0.000 C 
BRANCH  11  12
ATOM     12  C   UNL     1      -2.925  13.177  22.794  0.00  0.00    +0.000 A 
ATOM     13  C   UNL     1      -3.619  13.153  24.007  0.00  0.00    +0.000 A 
ATOM     14  C   UNL     1      -5.003  12.954  24.027  0.00  0.00    +0.000 A 
ATOM     15  C   UNL     1      -5.706  12.813  22.832  0.00  0.00    +0.000 A 
ATOM     16  C   UNL     1      -5.032  12.882  21.615  0.00  0.00    +0.000 A 
ATOM     17  C   UNL     1      -3.647  13.056  21.596  0.00  0.00    +0.000 A 
ENDBRANCH  11  12
ENDBRANCH   9  11
ENDBRANCH   3   9
ENDBRANCH   2   6
ENDBRANCH   1   2
BRANCH   1  18
ATOM     18  O   UNL     1       2.962   7.136  18.724  0.00  0.00    +0.000 OA
BRANCH  18  19
ATOM     19  C   UNL     1       2.913   5.912  17.981  0.00  0.00    +0.000 C 
BRANCH  19  20
ATOM     20  C   UNL     1       4.196   5.487  17.264  0.00  0.00    +0.000 A 
ATOM     21  C   UNL     1       4.348   4.223  16.672  0.00  0.00    +0.000 A 
ATOM     22  C   UNL     1       5.494   3.908  15.933  0.00  0.00    +0.000 A 
ATOM     23  C   UNL     1       6.500   4.857  15.787  0.00  0.00    +0.000 A 
ATOM     24  F   UNL     1       7.578   4.571  15.043  0.00  0.00    +0.000 F 
ATOM     25  C   UNL     1       6.396   6.102  16.390  0.00  0.00    +0.000 A 
ATOM     26  C   UNL     1       5.249   6.418  17.127  0.00  0.00    +0.000 A 
ENDBRANCH  19  20
BRANCH  19  27
ATOM     27  C   UNL     1       2.441   4.893  19.010  0.00  0.00    +0.000 A 
ATOM     28  C   UNL     1       1.433   3.972  18.681  0.00  0.00    +0.000 A 
ATOM     29  C   UNL     1       0.877   3.148  19.665  0.00  0.00    +0.000 A 
ATOM     30  C   UNL     1       1.336   3.237  20.974  0.00  0.00    +0.000 A 
ATOM     31  F   UNL     1       0.771   2.479  21.924  0.00  0.00    +0.000 F 
ATOM     32  C   UNL     1       2.353   4.115  21.317  0.00  0.00    +0.000 A 
ATOM     33  C   UNL     1       2.902   4.941  20.340  0.00  0.00    +0.000 A 
ENDBRANCH  19  27
ENDBRANCH  18  19
ENDBRANCH   1  18
TORSDOF 9
ENDMDL
MODEL 2
REMARK VINA RESULT:      -8.3      2.292      2.903
REMARK  Name = 
REMARK  9 active torsions:
REMARK  status: ('A' for Active; 'I' for Inactive)
REMARK    1  A    between atoms: C_2  and  C_3
REMARK    2  A    between atoms: C_2  and  C_28
REMARK    3  A    between atoms: C_3  and  N_4
REMARK    4  A    between atoms: N_7  and  C_8
REMARK    5  A    between atoms: C_8  and  C_9
REMARK    6  A    between atoms: C_9  and  O_10
REMARK    7  A    between atoms: O_10  and  C_11
REMARK    8  A    between atoms: C_11  and  C_12
REMARK    9  A    between atoms: C_11  and  C_19
REMARK                            x       y       z     vdW  Elec       q    Type
REMARK                         _______ _______ _______ _____ _____    ______ ____
ROOT
ATOM      1  C   UNL     1       2.229   8.391  18.077  0.00  0.00    +0.000 C 
ENDROOT
BRANCH   1   2
ATOM      2  C   UNL     1       1.361   9.305  18.964  0.00  0.00    +0.000 C 
BRANCH   2   6
ATOM      3  N   UNL     1      -1.898  11.163  19.497  0.00  0.00    +0.000 NA
ATOM      4  C   UNL     1      -1.687   9.907  18.750  0.00  0.00    +0.000 C 
ATOM      5  C   UNL     1      -0.599  10.017  17.665  0.00  0.00    +0.000 C 
ATOM      6  N   UNL     1       0.728  10.395  18.197  0.00  0.00    +0.000 NA
ATOM      7  C   UNL     1       0.584  11.623  19.011  0.00  0.00    +0.000 C 
ATOM      8  C   UNL     1      -0.592  11.627  20.026  0.00  0.00    +0.000 C 
BRANCH   3   9
ATOM      9  C   UNL     1      -2.527  12.221  18.674  0.00  0.00    +0.000 C 
BRANCH   9  11
ATOM     10  O   UNL     1      -3.926  11.691  16.800  0.00  0.00    +0.000 OA
ATOM     11  C   UNL     1      -3.848  11.814  18.028  0.00  0.00    +0.000 C 
BRANCH  11  12
ATOM     12  C   UNL     1      -5.079  11.585  18.846  0.00  0.00    +0.000 A 
ATOM     13  C   UNL     1      -5.397  12.341  19.978  0.00  0.00    +0.000 A 
ATOM     14  C   UNL     1      -6.490  11.993  20.777  0.00  0.00    +0.000 A 
ATOM     15  C   UNL     1      -7.293  10.908  20.428  0.00  0.00    +0.000 A 
ATOM     16  C   UNL     1      -7.015  10.177  19.276  0.00  0.00    +0.000 A 
ATOM     17  C   UNL     1      -5.908  10.509  18.493  0.00  0.00    +0.000 A 
ENDBRANCH  11  12
ENDBRANCH   9  11
ENDBRANCH   3   9
ENDBRANCH   2   6
ENDBRANCH   1   2
BRANCH   1  18
ATOM     18  O   UNL     1       2.834   7.290  18.738  0.00  0.00    +0.000 OA
BRANCH  18  19
ATOM     19  C   UNL     1       2.792   6.014  18.088  0.00  0.00    +0.000 C 
BRANCH  19  20
ATOM     20  C   UNL     1       4.104   5.497  17.493  0.00  0.00    +0.000 A 
ATOM     21  C   UNL     1       4.192   4.278  16.801  0.00  0.00    +0.000 A 
ATOM     22  C   UNL     1       5.383   3.889  16.179  0.00  0.00    +0.000 A 
ATOM     23  C   UNL     1       6.499   4.716  16.252  0.00  0.00    +0.000 A 
ATOM     24  F   UNL     1       7.627   4.364  15.620  0.00  0.00    +0.000 F 
ATOM     25  C   UNL     1       6.454   5.910  16.958  0.00  0.00    +0.000 A 
ATOM     26  C   UNL     1       5.262   6.300  17.579  0.00  0.00    +0.000 A 
ENDBRANCH  19  20
BRANCH  19  27
ATOM     27  C   UNL     1       2.219   5.091  19.157  0.00  0.00    +0.000 A 
ATOM     28  C   UNL     1       2.664   5.187  20.485  0.00  0.00    +0.000 A 
ATOM     29  C   UNL     1       2.271   4.238  21.434  0.00  0.00    +0.000 A 
ATOM     30  C   UNL     1       1.425   3.201  21.059  0.00  0.00    +0.000 A 
ATOM     31  F   UNL     1       1.085   2.267  21.959  0.00  0.00    +0.000 F 
ATOM     32  C   UNL     1       0.946   3.104  19.761  0.00  0.00    +0.000 A 
ATOM     33  C   UNL     1       1.342   4.044  18.813  0.00  0.00    +0.000 A 
ENDBRANCH  19  27
ENDBRANCH  18  19
ENDBRANCH   1  18
TORSDOF 9
ENDMDL
MODEL 3
REMARK VINA RESULT:      -8.2      1.101      1.958
REMARK  Name = 
REMARK  9 active torsions:
REMARK  status: ('A' for Active; 'I' for Inactive)
REMARK    1  A    between atoms: C_2  and  C_3
REMARK    2  A    between atoms: C_2  and  C_28
REMARK    3  A    between atoms: C_3  and  N_4
REMARK    4  A    between atoms: N_7  and  C_8
REMARK    5  A    between atoms: C_8  and  C_9
REMARK    6  A    between atoms: C_9  and  O_10
REMARK    7  A    between atoms: O_10  and  C_11
REMARK    8  A    between atoms: C_11  and  C_12
REMARK    9  A    between atoms: C_11  and  C_19
REMARK                            x       y       z     vdW  Elec       q    Type
REMARK                         _______ _______ _______ _____ _____    ______ ____
ROOT
ATOM      1  C   UNL     1       2.285   8.570  17.837  0.00  0.00    +0.000 C 
ENDROOT
BRANCH   1   2
ATOM      2  C   UNL     1       0.939   9.261  18.128  0.00  0.00    +0.000 C 
BRANCH   2   6
ATOM      3  N   UNL     1      -1.210  10.885  20.794  0.00  0.00    +0.000 NA
ATOM      4  C   UNL     1      -1.328  11.026  19.329  0.00  0.00    +0.000 C 
ATOM      5  C   UNL     1      -0.016  11.464  18.650  0.00  0.00    +0.000 C 
ATOM      6  N   UNL     1       1.104  10.523  18.872  0.00  0.00    +0.000 NA
ATOM      7  C   UNL     1       1.247  10.286  20.326  0.00  0.00    +0.000 C 
ATOM      8  C   UNL     1      -0.070   9.983  21.094  0.00  0.00    +0.000 C 
BRANCH   3   9
ATOM      9  C   UNL     1      -1.036  12.183  21.484  0.00  0.00    +0.000 C 
BRANCH   9  11
ATOM     10  O   UNL     1      -2.271  14.055  20.636  0.00  0.00    +0.000 OA
ATOM     11  C   UNL     1      -2.256  13.098  21.418  0.00  0.00    +0.000 C 
BRANCH  11  12
ATOM     12  C   UNL     1      -3.439  12.887  22.308  0.00  0.00    +0.000 A 
ATOM     13  C   UNL     1      -4.756  13.111  21.896  0.00  0.00    +0.000 A 
ATOM     14  C   UNL     1      -5.808  13.024  22.812  0.00  0.00    +0.000 A 
ATOM     15  C   UNL     1      -5.554  12.678  24.138  0.00  0.00    +0.000 A 
ATOM     16  C   UNL     1      -4.251  12.406  24.549  0.00  0.00    +0.000 A 
ATOM     17  C   UNL     1      -3.198  12.517  23.640  0.00  0.00    +0.000 A 
ENDBRANCH  11  12
ENDBRANCH   9  11
ENDBRANCH   3   9
ENDBRANCH   2   6
ENDBRANCH   1   2
BRANCH   1  18
ATOM     18  O   UNL     1       2.581   7.439  18.643  0.00  0.00    +0.000 OA
BRANCH  18  19
ATOM     19  C   UNL     1       2.648   6.159  18.003  0.00  0.00    +0.000 C 
BRANCH  19  20
ATOM     20  C   UNL     1       4.007   5.738  17.440  0.00  0.00    +0.000 A 
ATOM     21  C   UNL     1       5.158   6.533  17.567  0.00  0.00    +0.000 A 
ATOM     22  C   UNL     1       6.404   6.067  17.134  0.00  0.00    +0.000 A 
ATOM     23  C   UNL     1       6.506   4.804  16.563  0.00  0.00    +0.000 A 
ATOM     24  F   UNL     1       7.707   4.340  16.189  0.00  0.00    +0.000 F 
ATOM     25  C   UNL     1       5.382   4.009  16.391  0.00  0.00    +0.000 A 
ATOM     26  C   UNL     1       4.135   4.473  16.826  0.00  0.00    +0.000 A 
ENDBRANCH  19  20
BRANCH  19  27
ATOM     27  C   UNL     1       2.123   5.203  19.067  0.00  0.00    +0.000 A 
ATOM     28  C   UNL     1       2.548   5.327  20.400  0.00  0.00    +0.000 A 
ATOM     29  C   UNL     1       2.205   4.356  21.346  0.00  0.00    +0.000 A 
ATOM     30  C   UNL     1       1.429   3.268  20.963  0.00  0.00    +0.000 A 
ATOM     31  F   UNL     1       1.140   2.316  21.861  0.00  0.00    +0.000 F 
ATOM     32  C   UNL     1       0.970   3.141  19.661  0.00  0.00    +0.000 A 
ATOM     33  C   UNL     1       1.317   4.104  18.716  0.00  0.00    +0.000 A 
ENDBRANCH  19  27
ENDBRANCH  18  19
ENDBRANCH   1  18
TORSDOF 9
ENDMDL
MODEL 4
REMARK VINA RESULT:      -8.2      0.894      1.620
REMARK  Name = 
REMARK  9 active torsions:
REMARK  status: ('A' for Active; 'I' for Inactive)
REMARK    1  A    between atoms: C_2  and  C_3
REMARK    2  A    between atoms: C_2  and  C_28
REMARK    3  A    between atoms: C_3  and  N_4
REMARK    4  A    between atoms: N_7  and  C_8
REMARK    5  A    between atoms: C_8  and  C_9
REMARK    6  A    between atoms: C_9  and  O_10
REMARK    7  A    between atoms: O_10  and  C_11
REMARK    8  A    between atoms: C_11  and  C_12
REMARK    9  A    between atoms: C_11  and  C_19
REMARK                            x       y       z     vdW  Elec       q    Type
REMARK                         _______ _______ _______ _____ _____    ______ ____
ROOT
ATOM      1  C   UNL     1       1.602   8.228  18.764  0.00  0.00    +0.000 C 
ENDROOT
BRANCH   1   2
ATOM      2  C   UNL     1       1.418   9.079  20.035  0.00  0.00    +0.000 C 
BRANCH   2   6
ATOM      3  N   UNL     1      -0.226  11.028  22.838  0.00  0.00    +0.000 NA
ATOM      4  C   UNL     1       0.275   9.640  22.877  0.00  0.00    +0.000 C 
ATOM      5  C   UNL     1      -0.302   8.751  21.759  0.00  0.00    +0.000 C 
ATOM      6  N   UNL     1      -0.001   9.247  20.398  0.00  0.00    +0.000 NA
ATOM      7  C   UNL     1      -0.427  10.661  20.301  0.00  0.00    +0.000 C 
ATOM      8  C   UNL     1       0.004  11.578  21.480  0.00  0.00    +0.000 C 
BRANCH   3   9
ATOM      9  C   UNL     1      -1.658  11.132  23.202  0.00  0.00    +0.000 C 
BRANCH   9  11
ATOM     10  O   UNL     1      -1.663  13.500  23.577  0.00  0.00    +0.000 OA
ATOM     11  C   UNL     1      -2.242  12.535  23.065  0.00  0.00    +0.000 C 
BRANCH  11  12
ATOM     12  C   UNL     1      -3.529  12.778  22.344  0.00  0.00    +0.000 A 
ATOM     13  C   UNL     1      -4.758  12.912  22.996  0.00  0.00    +0.000 A 
ATOM     14  C   UNL     1      -5.943  13.004  22.260  0.00  0.00    +0.000 A 
ATOM     15  C   UNL     1      -5.903  12.999  20.867  0.00  0.00    +0.000 A 
ATOM     16  C   UNL     1      -4.680  12.914  20.205  0.00  0.00    +0.000 A 
ATOM     17  C   UNL     1      -3.499  12.797  20.941  0.00  0.00    +0.000 A 
ENDBRANCH  11  12
ENDBRANCH   9  11
ENDBRANCH   3   9
ENDBRANCH   2   6
ENDBRANCH   1   2
BRANCH   1  18
ATOM     18  O   UNL     1       2.824   7.509  18.678  0.00  0.00    +0.000 OA
BRANCH  18  19
ATOM     19  C   UNL     1       2.812   6.247  18.001  0.00  0.00    +0.000 C 
BRANCH  19  20
ATOM     20  C   UNL     1       4.140   5.767  17.410  0.00  0.00    +0.000 A 
ATOM     21  C   UNL     1       5.307   6.547  17.441  0.00  0.00    +0.000 A 
ATOM     22  C   UNL     1       6.527   6.033  16.987  0.00  0.00    +0.000 A 
ATOM     23  C   UNL     1       6.585   4.735  16.492  0.00  0.00    +0.000 A 
ATOM     24  F   UNL     1       7.762   4.228  16.098  0.00  0.00    +0.000 F 
ATOM     25  C   UNL     1       5.442   3.952  16.415  0.00  0.00    +0.000 A 
ATOM     26  C   UNL     1       4.223   4.465  16.871  0.00  0.00    +0.000 A 
ENDBRANCH  19  20
BRANCH  19  27
ATOM     27  C   UNL     1       2.245   5.291  19.044  0.00  0.00    +0.000 A 
ATOM     28  C   UNL     1       2.741   5.304  20.357  0.00  0.00    +0.000 A 
ATOM     29  C   UNL     1       2.348   4.322  21.273  0.00  0.00    +0.000 A 
ATOM     30  C   UNL     1       1.453   3.335  20.878  0.00  0.00    +0.000 A 
ATOM     31  F   UNL     1       1.113   2.369  21.743  0.00  0.00    +0.000 F 
ATOM     32  C   UNL     1       0.925   3.320  19.596  0.00  0.00    +0.000 A 
ATOM     33  C   UNL     1       1.320   4.293  18.681  0.00  0.00    +0.000 A 
ENDBRANCH  19  27
ENDBRANCH  18  19
ENDBRANCH   1  18
TORSDOF 9
ENDMDL
MODEL 5
REMARK VINA RESULT:      -8.2      1.576      2.044
REMARK  Name = 
REMARK  9 active torsions:
REMARK  status: ('A' for Active; 'I' for Inactive)
REMARK    1  A    between atoms: C_2  and  C_3
REMARK    2  A    between atoms: C_2  and  C_28
REMARK    3  A    between atoms: C_3  and  N_4
REMARK    4  A    between atoms: N_7  and  C_8
REMARK    5  A    between atoms: C_8  and  C_9
REMARK    6  A    between atoms: C_9  and  O_10
REMARK    7  A    between atoms: O_10  and  C_11
REMARK    8  A    between atoms: C_11  and  C_12
REMARK    9  A    between atoms: C_11  and  C_19
REMARK                            x       y       z     vdW  Elec       q    Type
REMARK                         _______ _______ _______ _____ _____    ______ ____
ROOT
ATOM      1  C   UNL     1       2.297   8.342  18.193  0.00  0.00    +0.000 C 
ENDROOT
BRANCH   1   2
ATOM      2  C   UNL     1       1.429   9.096  19.219  0.00  0.00    +0.000 C 
BRANCH   2   6
ATOM      3  N   UNL     1      -0.540  12.009  20.634  0.00  0.00    +0.000 NA
ATOM      4  C   UNL     1      -0.940  10.588  20.584  0.00  0.00    +0.000 C 
ATOM      5  C   UNL     1      -0.862   9.982  19.170  0.00  0.00    +0.000 C 
ATOM      6  N   UNL     1       0.492  10.038  18.578  0.00  0.00    +0.000 NA
ATOM      7  C   UNL     1       0.985  11.432  18.646  0.00  0.00    +0.000 C 
ATOM      8  C   UNL     1       0.800  12.148  20.014  0.00  0.00    +0.000 C 
BRANCH   3   9
ATOM      9  C   UNL     1      -1.513  12.903  19.967  0.00  0.00    +0.000 C 
BRANCH   9  11
ATOM     10  O   UNL     1      -3.117  13.171  21.729  0.00  0.00    +0.000 OA
ATOM     11  C   UNL     1      -2.922  12.848  20.552  0.00  0.00    +0.000 C 
BRANCH  11  12
ATOM     12  C   UNL     1      -4.087  12.378  19.740  0.00  0.00    +0.000 A 
ATOM     13  C   UNL     1      -5.413  12.485  20.170  0.00  0.00    +0.000 A 
ATOM     14  C   UNL     1      -6.446  11.908  19.426  0.00  0.00    +0.000 A 
ATOM     15  C   UNL     1      -6.163  11.251  18.230  0.00  0.00    +0.000 A 
ATOM     16  C   UNL     1      -4.852  11.179  17.767  0.00  0.00    +0.000 A 
ATOM     17  C   UNL     1      -3.817  11.734  18.522  0.00  0.00    +0.000 A 
ENDBRANCH  11  12
ENDBRANCH   9  11
ENDBRANCH   3   9
ENDBRANCH   2   6
ENDBRANCH   1   2
BRANCH   1  18
ATOM     18  O   UNL     1       2.997   7.212  18.694  0.00  0.00    +0.000 OA
BRANCH  18  19
ATOM     19  C   UNL     1       2.931   5.996  17.941  0.00  0.00    +0.000 C 
BRANCH  19  20
ATOM     20  C   UNL     1       4.206   5.563  17.214  0.00  0.00    +0.000 A 
ATOM     21  C   UNL     1       4.299   4.355  16.504  0.00  0.00    +0.000 A 
ATOM     22  C   UNL     1       5.444   4.042  15.763  0.00  0.00    +0.000 A 
ATOM     23  C   UNL     1       6.509   4.936  15.734  0.00  0.00    +0.000 A 
ATOM     24  F   UNL     1       7.588   4.657  14.990  0.00  0.00    +0.000 F 
ATOM     25  C   UNL     1       6.462   6.122  16.454  0.00  0.00    +0.000 A 
ATOM     26  C   UNL     1       5.316   6.435  17.193  0.00  0.00    +0.000 A 
ENDBRANCH  19  20
BRANCH  19  27
ATOM     27  C   UNL     1       2.451   4.972  18.963  0.00  0.00    +0.000 A 
ATOM     28  C   UNL     1       1.466   4.034  18.614  0.00  0.00    +0.000 A 
ATOM     29  C   UNL     1       0.901   3.205  19.589  0.00  0.00    +0.000 A 
ATOM     30  C   UNL     1       1.329   3.306  20.908  0.00  0.00    +0.000 A 
ATOM     31  F   UNL     1       0.755   2.542  21.847  0.00  0.00    +0.000 F 
ATOM     32  C   UNL     1       2.324   4.201  21.269  0.00  0.00    +0.000 A 
ATOM     33  C   UNL     1       2.882   5.032  20.302  0.00  0.00    +0.000 A 
ENDBRANCH  19  27
ENDBRANCH  18  19
ENDBRANCH   1  18
TORSDOF 9
ENDMDL
MODEL 6
REMARK VINA RESULT:      -8.1      1.179      4.289
REMARK  Name = 
REMARK  9 active torsions:
REMARK  status: ('A' for Active; 'I' for Inactive)
REMARK    1  A    between atoms: C_2  and  C_3
REMARK    2  A    between atoms: C_2  and  C_28
REMARK    3  A    between atoms: C_3  and  N_4
REMARK    4  A    between atoms: N_7  and  C_8
REMARK    5  A    between atoms: C_8  and  C_9
REMARK    6  A    between atoms: C_9  and  O_10
REMARK    7  A    between atoms: O_10  and  C_11
REMARK    8  A    between atoms: C_11  and  C_12
REMARK    9  A    between atoms: C_11  and  C_19
REMARK                            x       y       z     vdW  Elec       q    Type
REMARK                         _______ _______ _______ _____ _____    ______ ____
ROOT
ATOM      1  C   UNL     1       1.999   8.268  18.871  0.00  0.00    +0.000 C 
ENDROOT
BRANCH   1   2
ATOM      2  C   UNL     1       1.343   9.486  18.193  0.00  0.00    +0.000 C 
BRANCH   2   6
ATOM      3  N   UNL     1      -1.380  11.339  20.068  0.00  0.00    +0.000 NA
ATOM      4  C   UNL     1      -0.959  11.530  18.666  0.00  0.00    +0.000 C 
ATOM      5  C   UNL     1       0.552  11.790  18.512  0.00  0.00    +0.000 C 
ATOM      6  N   UNL     1       1.395  10.694  19.038  0.00  0.00    +0.000 NA
ATOM      7  C   UNL     1       0.988  10.405  20.431  0.00  0.00    +0.000 C 
ATOM      8  C   UNL     1      -0.542  10.276  20.675  0.00  0.00    +0.000 C 
BRANCH   3   9
ATOM      9  C   UNL     1      -1.297  12.582  20.867  0.00  0.00    +0.000 C 
BRANCH   9  11
ATOM     10  O   UNL     1      -0.935  12.207  23.208  0.00  0.00    +0.000 OA
ATOM     11  C   UNL     1      -1.759  12.431  22.314  0.00  0.00    +0.000 C 
BRANCH  11  12
ATOM     12  C   UNL     1      -3.206  12.518  22.684  0.00  0.00    +0.000 A 
ATOM     13  C   UNL     1      -4.217  12.797  21.760  0.00  0.00    +0.000 A 
ATOM     14  C   UNL     1      -5.532  12.996  22.190  0.00  0.00    +0.000 A 
ATOM     15  C   UNL     1      -5.850  12.885  23.542  0.00  0.00    +0.000 A 
ATOM     16  C   UNL     1      -4.860  12.561  24.467  0.00  0.00    +0.000 A 
ATOM     17  C   UNL     1      -3.542  12.386  24.040  0.00  0.00    +0.000 A 
ENDBRANCH  11  12
ENDBRANCH   9  11
ENDBRANCH   3   9
ENDBRANCH   2   6
ENDBRANCH   1   2
BRANCH   1  18
ATOM     18  O   UNL     1       3.059   7.660  18.148  0.00  0.00    +0.000 OA
BRANCH  18  19
ATOM     19  C   UNL     1       3.671   6.493  18.711  0.00  0.00    +0.000 C 
BRANCH  19  20
ATOM     20  C   UNL     1       2.752   5.307  19.010  0.00  0.00    +0.000 A 
ATOM     21  C   UNL     1       2.350   4.971  20.313  0.00  0.00    +0.000 A 
ATOM     22  C   UNL     1       1.424   3.946  20.538  0.00  0.00    +0.000 A 
ATOM     23  C   UNL     1       0.900   3.244  19.458  0.00  0.00    +0.000 A 
ATOM     24  F   UNL     1      -0.019   2.291  19.670  0.00  0.00    +0.000 F 
ATOM     25  C   UNL     1       1.304   3.528  18.161  0.00  0.00    +0.000 A 
ATOM     26  C   UNL     1       2.228   4.554  17.936  0.00  0.00    +0.000 A 
ENDBRANCH  19  20
BRANCH  19  27
ATOM     27  C   UNL     1       4.774   6.156  17.714  0.00  0.00    +0.000 A 
ATOM     28  C   UNL     1       4.670   6.575  16.378  0.00  0.00    +0.000 A 
ATOM     29  C   UNL     1       5.589   6.129  15.423  0.00  0.00    +0.000 A 
ATOM     30  C   UNL     1       6.616   5.273  15.805  0.00  0.00    +0.000 A 
ATOM     31  F   UNL     1       7.468   4.811  14.880  0.00  0.00    +0.000 F 
ATOM     32  C   UNL     1       6.757   4.872  17.125  0.00  0.00    +0.000 A 
ATOM     33  C   UNL     1       5.839   5.310  18.076  0.00  0.00    +0.000 A 
ENDBRANCH  19  27
ENDBRANCH  18  19
ENDBRANCH   1  18
TORSDOF 9
ENDMDL
MODEL 7
REMARK VINA RESULT:      -8.1      0.924      1.409
REMARK  Name = 
REMARK  9 active torsions:
REMARK  status: ('A' for Active; 'I' for Inactive)
REMARK    1  A    between atoms: C_2  and  C_3
REMARK    2  A    between atoms: C_2  and  C_28
REMARK    3  A    between atoms: C_3  and  N_4
REMARK    4  A    between atoms: N_7  and  C_8
REMARK    5  A    between atoms: C_8  and  C_9
REMARK    6  A    between atoms: C_9  and  O_10
REMARK    7  A    between atoms: O_10  and  C_11
REMARK    8  A    between atoms: C_11  and  C_12
REMARK    9  A    between atoms: C_11  and  C_19
REMARK                            x       y       z     vdW  Elec       q    Type
REMARK                         _______ _______ _______ _____ _____    ______ ____
ROOT
ATOM      1  C   UNL     1       1.870   8.071  18.492  0.00  0.00    +0.000 C 
ENDROOT
BRANCH   1   2
ATOM      2  C   UNL     1       1.329   8.846  19.708  0.00  0.00    +0.000 C 
BRANCH   2   6
ATOM      3  N   UNL     1      -1.549  11.213  20.401  0.00  0.00    +0.000 NA
ATOM      4  C   UNL     1      -1.347  10.360  19.213  0.00  0.00    +0.000 C 
ATOM      5  C   UNL     1       0.021  10.566  18.538  0.00  0.00    +0.000 C 
ATOM      6  N   UNL     1       1.167  10.286  19.431  0.00  0.00    +0.000 NA
ATOM      7  C   UNL     1       1.004  11.069  20.676  0.00  0.00    +0.000 C 
ATOM      8  C   UNL     1      -0.407  11.015  21.327  0.00  0.00    +0.000 C 
BRANCH   3   9
ATOM      9  C   UNL     1      -1.695  12.646  20.060  0.00  0.00    +0.000 C 
BRANCH   9  11
ATOM     10  O   UNL     1      -1.440  14.554  21.491  0.00  0.00    +0.000 OA
ATOM     11  C   UNL     1      -2.092  13.535  21.236  0.00  0.00    +0.000 C 
BRANCH  11  12
ATOM     12  C   UNL     1      -3.247  13.188  22.120  0.00  0.00    +0.000 A 
ATOM     13  C   UNL     1      -4.579  13.257  21.703  0.00  0.00    +0.000 A 
ATOM     14  C   UNL     1      -5.618  13.049  22.615  0.00  0.00    +0.000 A 
ATOM     15  C   UNL     1      -5.331  12.736  23.942  0.00  0.00    +0.000 A 
ATOM     16  C   UNL     1      -4.007  12.618  24.359  0.00  0.00    +0.000 A 
ATOM     17  C   UNL     1      -2.970  12.851  23.454  0.00  0.00    +0.000 A 
ENDBRANCH  11  12
ENDBRANCH   9  11
ENDBRANCH   3   9
ENDBRANCH   2   6
ENDBRANCH   1   2
BRANCH   1  18
ATOM     18  O   UNL     1       2.865   7.099  18.776  0.00  0.00    +0.000 OA
BRANCH  18  19
ATOM     19  C   UNL     1       2.834   5.873  18.036  0.00  0.00    +0.000 C 
BRANCH  19  20
ATOM     20  C   UNL     1       4.121   5.471  17.311  0.00  0.00    +0.000 A 
ATOM     21  C   UNL     1       4.313   4.190  16.766  0.00  0.00    +0.000 A 
ATOM     22  C   UNL     1       5.457   3.892  16.018  0.00  0.00    +0.000 A 
ATOM     23  C   UNL     1       6.422   4.874  15.816  0.00  0.00    +0.000 A 
ATOM     24  F   UNL     1       7.497   4.601  15.063  0.00  0.00    +0.000 F 
ATOM     25  C   UNL     1       6.278   6.137  16.371  0.00  0.00    +0.000 A 
ATOM     26  C   UNL     1       5.133   6.436  17.118  0.00  0.00    +0.000 A 
ENDBRANCH  19  20
BRANCH  19  27
ATOM     27  C   UNL     1       2.388   4.846  19.070  0.00  0.00    +0.000 A 
ATOM     28  C   UNL     1       1.393   3.909  18.751  0.00  0.00    +0.000 A 
ATOM     29  C   UNL     1       0.860   3.076  19.740  0.00  0.00    +0.000 A 
ATOM     30  C   UNL     1       1.329   3.174  21.045  0.00  0.00    +0.000 A 
ATOM     31  F   UNL     1       0.785   2.408  22.001  0.00  0.00    +0.000 F 
ATOM     32  C   UNL     1       2.334   4.070  21.378  0.00  0.00    +0.000 A 
ATOM     33  C   UNL     1       2.861   4.904  20.395  0.00  0.00    +0.000 A 
ENDBRANCH  19  27
ENDBRANCH  18  19
ENDBRANCH   1  18
TORSDOF 9
ENDMDL
MODEL 8
REMARK VINA RESULT:      -8.1      0.999      1.606
REMARK  Name = 
REMARK  9 active torsions:
REMARK  status: ('A' for Active; 'I' for Inactive)
REMARK    1  A    between atoms: C_2  and  C_3
REMARK    2  A    between atoms: C_2  and  C_28
REMARK    3  A    between atoms: C_3  and  N_4
REMARK    4  A    between atoms: N_7  and  C_8
REMARK    5  A    between atoms: C_8  and  C_9
REMARK    6  A    between atoms: C_9  and  O_10
REMARK    7  A    between atoms: O_10  and  C_11
REMARK    8  A    between atoms: C_11  and  C_12
REMARK    9  A    between atoms: C_11  and  C_19
REMARK                            x       y       z     vdW  Elec       q    Type
REMARK                         _______ _______ _______ _____ _____    ______ ____
ROOT
ATOM      1  C   UNL     1       1.797   8.097  19.438  0.00  0.00    +0.000 C 
ENDROOT
BRANCH   1   2
ATOM      2  C   UNL     1       1.149   8.182  20.833  0.00  0.00    +0.000 C 
BRANCH   2   6
ATOM      3  N   UNL     1      -1.216  10.881  22.052  0.00  0.00    +0.000 NA
ATOM      4  C   UNL     1      -0.631  10.734  20.705  0.00  0.00    +0.000 C 
ATOM      5  C   UNL     1       0.906  10.624  20.714  0.00  0.00    +0.000 C 
ATOM      6  N   UNL     1       1.409   9.473  21.496  0.00  0.00    +0.000 NA
ATOM      7  C   UNL     1       0.816   9.522  22.852  0.00  0.00    +0.000 C 
ATOM      8  C   UNL     1      -0.716   9.777  22.910  0.00  0.00    +0.000 C 
BRANCH   3   9
ATOM      9  C   UNL     1      -0.913  12.192  22.670  0.00  0.00    +0.000 C 
BRANCH   9  11
ATOM     10  O   UNL     1      -1.708  14.281  21.802  0.00  0.00    +0.000 OA
ATOM     11  C   UNL     1      -1.981  13.258  22.439  0.00  0.00    +0.000 C 
BRANCH  11  12
ATOM     12  C   UNL     1      -3.361  13.112  22.996  0.00  0.00    +0.000 A 
ATOM     13  C   UNL     1      -3.620  12.643  24.287  0.00  0.00    +0.000 A 
ATOM     14  C   UNL     1      -4.934  12.403  24.703  0.00  0.00    +0.000 A 
ATOM     15  C   UNL     1      -5.997  12.664  23.841  0.00  0.00    +0.000 A 
ATOM     16  C   UNL     1      -5.755  13.177  22.569  0.00  0.00    +0.000 A 
ATOM     17  C   UNL     1      -4.442  13.392  22.146  0.00  0.00    +0.000 A 
ENDBRANCH  11  12
ENDBRANCH   9  11
ENDBRANCH   3   9
ENDBRANCH   2   6
ENDBRANCH   1   2
BRANCH   1  18
ATOM     18  O   UNL     1       2.841   7.144  19.303  0.00  0.00    +0.000 OA
BRANCH  18  19
ATOM     19  C   UNL     1       2.623   6.031  18.428  0.00  0.00    +0.000 C 
BRANCH  19  20
ATOM     20  C   UNL     1       3.763   5.668  17.474  0.00  0.00    +0.000 A 
ATOM     21  C   UNL     1       4.628   6.630  16.928  0.00  0.00    +0.000 A 
ATOM     22  C   UNL     1       5.723   6.250  16.145  0.00  0.00    +0.000 A 
ATOM     23  C   UNL     1       5.956   4.902  15.897  0.00  0.00    +0.000 A 
ATOM     24  F   UNL     1       7.031   4.536  15.183  0.00  0.00    +0.000 F 
ATOM     25  C   UNL     1       5.100   3.929  16.393  0.00  0.00    +0.000 A 
ATOM     26  C   UNL     1       4.006   4.309  17.177  0.00  0.00    +0.000 A 
ENDBRANCH  19  20
BRANCH  19  27
ATOM     27  C   UNL     1       2.261   4.898  19.381  0.00  0.00    +0.000 A 
ATOM     28  C   UNL     1       1.248   3.987  19.042  0.00  0.00    +0.000 A 
ATOM     29  C   UNL     1       0.795   3.051  19.978  0.00  0.00    +0.000 A 
ATOM     30  C   UNL     1       1.362   3.019  21.247  0.00  0.00    +0.000 A 
ATOM     31  F   UNL     1       0.895   2.152  22.156  0.00  0.00    +0.000 F 
ATOM     32  C   UNL     1       2.386   3.887  21.594  0.00  0.00    +0.000 A 
ATOM     33  C   UNL     1       2.833   4.824  20.666  0.00  0.00    +0.000 A 
ENDBRANCH  19  27
ENDBRANCH  18  19
ENDBRANCH   1  18
TORSDOF 9
ENDMDL
MODEL 9
REMARK VINA RESULT:      -8.1      0.568      1.223
REMARK  Name = 
REMARK  9 active torsions:
REMARK  status: ('A' for Active; 'I' for Inactive)
REMARK    1  A    between atoms: C_2  and  C_3
REMARK    2  A    between atoms: C_2  and  C_28
REMARK    3  A    between atoms: C_3  and  N_4
REMARK    4  A    between atoms: N_7  and  C_8
REMARK    5  A    between atoms: C_8  and  C_9
REMARK    6  A    between atoms: C_9  and  O_10
REMARK    7  A    between atoms: O_10  and  C_11
REMARK    8  A    between atoms: C_11  and  C_12
REMARK    9  A    between atoms: C_11  and  C_19
REMARK                            x       y       z     vdW  Elec       q    Type
REMARK                         _______ _______ _______ _____ _____    ______ ____
ROOT
ATOM      1  C   UNL     1       1.714   8.183  18.551  0.00  0.00    +0.000 C 
ENDROOT
BRANCH   1   2
ATOM      2  C   UNL     1       1.672   9.343  19.564  0.00  0.00    +0.000 C 
BRANCH   2   6
ATOM      3  N   UNL     1       0.228  12.069  21.766  0.00  0.00    +0.000 NA
ATOM      4  C   UNL     1      -0.021  10.616  21.847  0.00  0.00    +0.000 C 
ATOM      5  C   UNL     1      -0.495  10.002  20.516  0.00  0.00    +0.000 C 
ATOM      6  N   UNL     1       0.468  10.182  19.408  0.00  0.00    +0.000 NA
ATOM      7  C   UNL     1       0.811  11.618  19.302  0.00  0.00    +0.000 C 
ATOM      8  C   UNL     1       1.159  12.329  20.640  0.00  0.00    +0.000 C 
BRANCH   3   9
ATOM      9  C   UNL     1      -1.015  12.856  21.600  0.00  0.00    +0.000 C 
BRANCH   9  11
ATOM     10  O   UNL     1      -0.896  13.795  23.803  0.00  0.00    +0.000 OA
ATOM     11  C   UNL     1      -1.625  13.352  22.909  0.00  0.00    +0.000 C 
BRANCH  11  12
ATOM     12  C   UNL     1      -3.098  13.287  23.157  0.00  0.00    +0.000 A 
ATOM     13  C   UNL     1      -4.022  14.105  22.500  0.00  0.00    +0.000 A 
ATOM     14  C   UNL     1      -5.369  14.091  22.871  0.00  0.00    +0.000 A 
ATOM     15  C   UNL     1      -5.808  13.233  23.878  0.00  0.00    +0.000 A 
ATOM     16  C   UNL     1      -4.905  12.379  24.508  0.00  0.00    +0.000 A 
ATOM     17  C   UNL     1      -3.555  12.412  24.154  0.00  0.00    +0.000 A 
ENDBRANCH  11  12
ENDBRANCH   9  11
ENDBRANCH   3   9
ENDBRANCH   2   6
ENDBRANCH   1   2
BRANCH   1  18
ATOM     18  O   UNL     1       2.849   7.334  18.637  0.00  0.00    +0.000 OA
BRANCH  18  19
ATOM     19  C   UNL     1       2.790   6.068  17.969  0.00  0.00    +0.000 C 
BRANCH  19  20
ATOM     20  C   UNL     1       4.089   5.557  17.343  0.00  0.00    +0.000 A 
ATOM     21  C   UNL     1       4.225   4.251  16.841  0.00  0.00    +0.000 A 
ATOM     22  C   UNL     1       5.391   3.853  16.179  0.00  0.00    +0.000 A 
ATOM     23  C   UNL     1       6.435   4.759  16.021  0.00  0.00    +0.000 A 
ATOM     24  F   UNL     1       7.535   4.390  15.349  0.00  0.00    +0.000 F 
ATOM     25  C   UNL     1       6.346   6.044  16.535  0.00  0.00    +0.000 A 
ATOM     26  C   UNL     1       5.178   6.443  17.196  0.00  0.00    +0.000 A 
ENDBRANCH  19  20
BRANCH  19  27
ATOM     27  C   UNL     1       2.233   5.131  19.034  0.00  0.00    +0.000 A 
ATOM     28  C   UNL     1       2.739   5.170  20.343  0.00  0.00    +0.000 A 
ATOM     29  C   UNL     1       2.356   4.204  21.280  0.00  0.00    +0.000 A 
ATOM     30  C   UNL     1       1.461   3.207  20.910  0.00  0.00    +0.000 A 
ATOM     31  F   UNL     1       1.130   2.256  21.796  0.00  0.00    +0.000 F 
ATOM     32  C   UNL     1       0.923   3.167  19.633  0.00  0.00    +0.000 A 
ATOM     33  C   UNL     1       1.309   4.124  18.697  0.00  0.00    +0.000 A 
ENDBRANCH  19  27
ENDBRANCH  18  19
ENDBRANCH   1  18
TORSDOF 9
ENDMDL
