MODEL 1
REMARK VINA RESULT:      -8.8      0.000      0.000
REMARK  Name = 
REMARK  8 active torsions:
REMARK  status: ('A' for Active; 'I' for Inactive)
REMARK    1  A    between atoms: C_1  and  C_2
REMARK    2  A    between atoms: C_2  and  C_3
REMARK    3  A    between atoms: C_5  and  C_6
REMARK    4  A    between atoms: C_9  and  C_10
REMARK    5  A    between atoms: C_21  and  O_22
REMARK    6  A    between atoms: O_22  and  C_23
REMARK    7  A    between atoms: C_23  and  C_24
REMARK    8  A    between atoms: C_27  and  C_28
REMARK                            x       y       z     vdW  Elec       q    Type
REMARK                         _______ _______ _______ _____ _____    ______ ____
ROOT
ATOM      1  C   UNL     1      -0.162  11.733  19.101  0.00  0.00    +0.000 A 
ATOM      2  C   UNL     1      -1.517  12.075  18.949  0.00  0.00    +0.000 A 
ATOM      3  C   UNL     1      -2.395  11.253  18.224  0.00  0.00    +0.000 A 
ATOM      4  C   UNL     1      -1.911  10.090  17.630  0.00  0.00    +0.000 A 
ATOM      5  C   UNL     1      -0.575   9.750  17.747  0.00  0.00    +0.000 A 
ATOM      6  C   UNL     1       0.324  10.554  18.485  0.00  0.00    +0.000 A 
ENDROOT
BRANCH   3   7
ATOM      7  C   UNL     1      -3.816  11.597  18.107  0.00  0.00    +0.000 A 
ATOM      8  N   UNL     1      -4.563  11.405  17.000  0.00  0.00    +0.000 NA
ATOM      9  O   UNL     1      -5.762  11.794  17.320  0.00  0.00    +0.000 OA
ATOM     10  C   UNL     1      -5.762  12.215  18.562  0.00  0.00    +0.000 A 
ATOM     11  N   UNL     1      -4.541  12.108  19.111  0.00  0.00    +0.000 NA
BRANCH  10  12
ATOM     12  C   UNL     1      -6.940  12.732  19.314  0.00  0.00    +0.000 C 
ATOM     13  C   UNL     1      -6.538  13.946  20.147  0.00  0.00    +0.000 C 
ATOM     14  C   UNL     1      -7.733  14.042  21.069  0.00  0.00    +0.000 C 
ATOM     15  C   UNL     1      -7.906  12.581  21.478  0.00  0.00    +0.000 C 
ATOM     16  N   UNL     1      -7.492  11.823  20.308  0.00  0.00    +0.000 N 
ATOM     17  C   UNL     1      -7.423  10.381  20.292  0.00  0.00    +0.000 C 
ATOM     18  N   UNL     1      -7.592   9.703  21.375  0.00  0.00    +0.000 NA
ATOM     19  N   UNL     1      -7.168   9.661  19.094  0.00  0.00    +0.000 N 
ATOM     20  H   UNL     1      -7.771  10.136  22.291  0.00  0.00    +0.000 HD
ATOM     21  H   UNL     1      -7.125  10.123  18.178  0.00  0.00    +0.000 HD
ATOM     22  H   UNL     1      -7.069   8.634  19.122  0.00  0.00    +0.000 HD
ENDBRANCH  10  12
ENDBRANCH   3   7
BRANCH   1  24
ATOM     23  C   UNL     1      -0.104  13.509  20.889  0.00  0.00    +0.000 C 
ATOM     24  C   UNL     1       0.714  12.646  19.930  0.00  0.00    +0.000 C 
ENDBRANCH   1  24
BRANCH   6  25
ATOM     25  O   UNL     1       1.641  10.204  18.596  0.00  0.00    +0.000 OA
BRANCH  25  26
ATOM     26  C   UNL     1       2.213   9.176  17.861  0.00  0.00    +0.000 C 
BRANCH  26  27
ATOM     27  C   UNL     1       2.213   7.880  18.610  0.00  0.00    +0.000 A 
ATOM     28  C   UNL     1       1.861   7.864  19.965  0.00  0.00    +0.000 A 
ATOM     29  C   UNL     1       1.788   6.654  20.657  0.00  0.00    +0.000 A 
ATOM     30  C   UNL     1       2.078   5.442  20.003  0.00  0.00    +0.000 A 
ATOM     31  C   UNL     1       2.440   5.468  18.646  0.00  0.00    +0.000 A 
ATOM     32  C   UNL     1       2.499   6.676  17.951  0.00  0.00    +0.000 A 
BRANCH  30  33
ATOM     33  C   UNL     1       2.005   4.121  20.722  0.00  0.00    +0.000 C 
ATOM     34  F   UNL     1       2.812   3.169  20.126  0.00  0.00    +0.000 F 
ATOM     35  F   UNL     1       2.413   4.287  22.033  0.00  0.00    +0.000 F 
ATOM     36  F   UNL     1       0.700   3.665  20.709  0.00  0.00    +0.000 F 
ENDBRANCH  30  33
ENDBRANCH  26  27
ENDBRANCH  25  26
ENDBRANCH   6  25
TORSDOF 7
ENDMDL
MODEL 2
REMARK VINA RESULT:      -8.6      6.039     10.478
REMARK  Name = 
REMARK  8 active torsions:
REMARK  status: ('A' for Active; 'I' for Inactive)
REMARK    1  A    between atoms: C_1  and  C_2
REMARK    2  A    between atoms: C_2  and  C_3
REMARK    3  A    between atoms: C_5  and  C_6
REMARK    4  A    between atoms: C_9  and  C_10
REMARK    5  A    between atoms: C_21  and  O_22
REMARK    6  A    between atoms: O_22  and  C_23
REMARK    7  A    between atoms: C_23  and  C_24
REMARK    8  A    between atoms: C_27  and  C_28
REMARK                            x       y       z     vdW  Elec       q    Type
REMARK                         _______ _______ _______ _____ _____    ______ ____
ROOT
ATOM      1  C   UNL     1       0.448   9.352  20.562  0.00  0.00    +0.000 A 
ATOM      2  C   UNL     1       1.183   8.154  20.584  0.00  0.00    +0.000 A 
ATOM      3  C   UNL     1       2.004   7.788  19.505  0.00  0.00    +0.000 A 
ATOM      4  C   UNL     1       2.077   8.615  18.388  0.00  0.00    +0.000 A 
ATOM      5  C   UNL     1       1.341   9.787  18.337  0.00  0.00    +0.000 A 
ATOM      6  C   UNL     1       0.520  10.183  19.417  0.00  0.00    +0.000 A 
ENDROOT
BRANCH   3   7
ATOM      7  C   UNL     1       2.799   6.557  19.556  0.00  0.00    +0.000 A 
ATOM      8  N   UNL     1       2.366   5.383  20.064  0.00  0.00    +0.000 NA
ATOM      9  O   UNL     1       3.343   4.545  19.880  0.00  0.00    +0.000 OA
ATOM     10  C   UNL     1       4.339   5.165  19.294  0.00  0.00    +0.000 A 
ATOM     11  N   UNL     1       4.041   6.454  19.063  0.00  0.00    +0.000 NA
BRANCH  10  12
ATOM     12  C   UNL     1       5.640   4.556  18.897  0.00  0.00    +0.000 C 
ATOM     13  C   UNL     1       6.788   5.496  19.255  0.00  0.00    +0.000 C 
ATOM     14  C   UNL     1       7.902   4.873  18.444  0.00  0.00    +0.000 C 
ATOM     15  C   UNL     1       7.200   4.642  17.109  0.00  0.00    +0.000 C 
ATOM     16  N   UNL     1       5.822   4.351  17.467  0.00  0.00    +0.000 N 
ATOM     17  C   UNL     1       4.782   4.147  16.486  0.00  0.00    +0.000 C 
ATOM     18  N   UNL     1       5.009   4.359  15.236  0.00  0.00    +0.000 NA
ATOM     19  N   UNL     1       3.482   3.711  16.857  0.00  0.00    +0.000 N 
ATOM     20  H   UNL     1       5.914   4.685  14.872  0.00  0.00    +0.000 HD
ATOM     21  H   UNL     1       3.255   3.424  17.818  0.00  0.00    +0.000 HD
ATOM     22  H   UNL     1       2.743   3.627  16.142  0.00  0.00    +0.000 HD
ENDBRANCH  10  12
ENDBRANCH   3   7
BRANCH   1  24
ATOM     23  C   UNL     1       0.362   9.416  23.081  0.00  0.00    +0.000 C 
ATOM     24  C   UNL     1      -0.383   9.701  21.777  0.00  0.00    +0.000 C 
ENDBRANCH   1  24
BRANCH   6  25
ATOM     25  O   UNL     1      -0.199  11.345  19.355  0.00  0.00    +0.000 OA
BRANCH  25  26
ATOM     26  C   UNL     1      -0.944  11.713  18.245  0.00  0.00    +0.000 C 
BRANCH  26  27
ATOM     27  C   UNL     1      -2.415  11.652  18.507  0.00  0.00    +0.000 A 
ATOM     28  C   UNL     1      -2.953  12.345  19.598  0.00  0.00    +0.000 A 
ATOM     29  C   UNL     1      -4.332  12.355  19.814  0.00  0.00    +0.000 A 
ATOM     30  C   UNL     1      -5.192  11.661  18.943  0.00  0.00    +0.000 A 
ATOM     31  C   UNL     1      -4.644  10.959  17.856  0.00  0.00    +0.000 A 
ATOM     32  C   UNL     1      -3.268  10.961  17.633  0.00  0.00    +0.000 A 
BRANCH  30  33
ATOM     33  C   UNL     1      -6.684  11.655  19.147  0.00  0.00    +0.000 C 
ATOM     34  F   UNL     1      -7.029  11.146  20.387  0.00  0.00    +0.000 F 
ATOM     35  F   UNL     1      -7.167  12.947  19.051  0.00  0.00    +0.000 F 
ATOM     36  F   UNL     1      -7.276  10.877  18.169  0.00  0.00    +0.000 F 
ENDBRANCH  30  33
ENDBRANCH  26  27
ENDBRANCH  25  26
ENDBRANCH   6  25
TORSDOF 7
ENDMDL
MODEL 3
REMARK VINA RESULT:      -8.6      4.510      7.156
REMARK  Name = 
REMARK  8 active torsions:
REMARK  status: ('A' for Active; 'I' for Inactive)
REMARK    1  A    between atoms: C_1  and  C_2
REMARK    2  A    between atoms: C_2  and  C_3
REMARK    3  A    between atoms: C_5  and  C_6
REMARK    4  A    between atoms: C_9  and  C_10
REMARK    5  A    between atoms: C_21  and  O_22
REMARK    6  A    between atoms: O_22  and  C_23
REMARK    7  A    between atoms: C_23  and  C_24
REMARK    8  A    between atoms: C_27  and  C_28
REMARK                            x       y       z     vdW  Elec       q    Type
REMARK                         _______ _______ _______ _____ _____    ______ ____
ROOT
ATOM      1  C   UNL     1       2.701   5.219  20.010  0.00  0.00    +0.000 A 
ATOM      2  C   UNL     1       1.894   6.242  20.538  0.00  0.00    +0.000 A 
ATOM      3  C   UNL     1       1.840   7.508  19.933  0.00  0.00    +0.000 A 
ATOM      4  C   UNL     1       2.612   7.761  18.803  0.00  0.00    +0.000 A 
ATOM      5  C   UNL     1       3.433   6.775  18.283  0.00  0.00    +0.000 A 
ATOM      6  C   UNL     1       3.493   5.489  18.866  0.00  0.00    +0.000 A 
ENDROOT
BRANCH   3   7
ATOM      7  C   UNL     1       0.961   8.554  20.467  0.00  0.00    +0.000 A 
ATOM      8  N   UNL     1      -0.013   8.347  21.378  0.00  0.00    +0.000 NA
ATOM      9  O   UNL     1      -0.519   9.521  21.616  0.00  0.00    +0.000 OA
ATOM     10  C   UNL     1       0.102  10.415  20.884  0.00  0.00    +0.000 A 
ATOM     11  N   UNL     1       1.059   9.848  20.134  0.00  0.00    +0.000 NA
BRANCH  10  12
ATOM     12  C   UNL     1      -0.170  11.880  20.872  0.00  0.00    +0.000 C 
ATOM     13  C   UNL     1      -0.652  12.334  22.247  0.00  0.00    +0.000 C 
ATOM     14  C   UNL     1      -1.208  13.696  21.897  0.00  0.00    +0.000 C 
ATOM     15  C   UNL     1      -2.001  13.372  20.633  0.00  0.00    +0.000 C 
ATOM     16  N   UNL     1      -1.248  12.307  19.992  0.00  0.00    +0.000 N 
ATOM     17  C   UNL     1      -1.697  11.642  18.792  0.00  0.00    +0.000 C 
ATOM     18  N   UNL     1      -2.870  11.873  18.313  0.00  0.00    +0.000 NA
ATOM     19  N   UNL     1      -0.871  10.715  18.100  0.00  0.00    +0.000 N 
ATOM     20  H   UNL     1      -3.542  12.519  18.748  0.00  0.00    +0.000 HD
ATOM     21  H   UNL     1       0.110  10.557  18.362  0.00  0.00    +0.000 HD
ATOM     22  H   UNL     1      -1.238  10.213  17.277  0.00  0.00    +0.000 HD
ENDBRANCH  10  12
ENDBRANCH   3   7
BRANCH   1  24
ATOM     23  C   UNL     1       1.254   3.341  20.865  0.00  0.00    +0.000 C 
ATOM     24  C   UNL     1       2.678   3.870  20.691  0.00  0.00    +0.000 C 
ENDBRANCH   1  24
BRANCH   6  25
ATOM     25  O   UNL     1       4.305   4.523  18.340  0.00  0.00    +0.000 OA
BRANCH  25  26
ATOM     26  C   UNL     1       5.620   4.762  17.971  0.00  0.00    +0.000 C 
BRANCH  26  27
ATOM     27  C   UNL     1       5.865   4.457  16.527  0.00  0.00    +0.000 A 
ATOM     28  C   UNL     1       4.950   3.667  15.821  0.00  0.00    +0.000 A 
ATOM     29  C   UNL     1       5.127   3.434  14.457  0.00  0.00    +0.000 A 
ATOM     30  C   UNL     1       6.233   3.984  13.781  0.00  0.00    +0.000 A 
ATOM     31  C   UNL     1       7.152   4.768  14.498  0.00  0.00    +0.000 A 
ATOM     32  C   UNL     1       6.966   5.012  15.858  0.00  0.00    +0.000 A 
BRANCH  30  33
ATOM     33  C   UNL     1       6.451   3.753  12.308  0.00  0.00    +0.000 C 
ATOM     34  F   UNL     1       7.382   4.632  11.785  0.00  0.00    +0.000 F 
ATOM     35  F   UNL     1       6.901   2.461  12.106  0.00  0.00    +0.000 F 
ATOM     36  F   UNL     1       5.254   3.926  11.637  0.00  0.00    +0.000 F 
ENDBRANCH  30  33
ENDBRANCH  26  27
ENDBRANCH  25  26
ENDBRANCH   6  25
TORSDOF 7
ENDMDL
MODEL 4
REMARK VINA RESULT:      -8.6      5.056      7.101
REMARK  Name = 
REMARK  8 active torsions:
REMARK  status: ('A' for Active; 'I' for Inactive)
REMARK    1  A    between atoms: C_1  and  C_2
REMARK    2  A    between atoms: C_2  and  C_3
REMARK    3  A    between atoms: C_5  and  C_6
REMARK    4  A    between atoms: C_9  and  C_10
REMARK    5  A    between atoms: C_21  and  O_22
REMARK    6  A    between atoms: O_22  and  C_23
REMARK    7  A    between atoms: C_23  and  C_24
REMARK    8  A    between atoms: C_27  and  C_28
REMARK                            x       y       z     vdW  Elec       q    Type
REMARK                         _______ _______ _______ _____ _____    ______ ____
ROOT
ATOM      1  C   UNL     1       2.643   6.109  19.673  0.00  0.00    +0.000 A 
ATOM      2  C   UNL     1       1.860   7.230  20.003  0.00  0.00    +0.000 A 
ATOM      3  C   UNL     1       1.841   8.368  19.182  0.00  0.00    +0.000 A 
ATOM      4  C   UNL     1       2.626   8.397  18.032  0.00  0.00    +0.000 A 
ATOM      5  C   UNL     1       3.424   7.314  17.704  0.00  0.00    +0.000 A 
ATOM      6  C   UNL     1       3.447   6.151  18.507  0.00  0.00    +0.000 A 
ENDROOT
BRANCH   3   7
ATOM      7  C   UNL     1       0.987   9.514  19.513  0.00  0.00    +0.000 A 
ATOM      8  N   UNL     1      -0.053   9.937  18.764  0.00  0.00    +0.000 NA
ATOM      9  O   UNL     1      -0.567  10.935  19.419  0.00  0.00    +0.000 OA
ATOM     10  C   UNL     1       0.122  11.132  20.518  0.00  0.00    +0.000 A 
ATOM     11  N   UNL     1       1.126  10.246  20.626  0.00  0.00    +0.000 NA
BRANCH  10  12
ATOM     12  C   UNL     1      -0.150  12.171  21.550  0.00  0.00    +0.000 C 
ATOM     13  C   UNL     1      -1.324  11.742  22.427  0.00  0.00    +0.000 C 
ATOM     14  C   UNL     1      -1.644  13.057  23.102  0.00  0.00    +0.000 C 
ATOM     15  C   UNL     1      -1.601  14.015  21.914  0.00  0.00    +0.000 C 
ATOM     16  N   UNL     1      -0.583  13.462  21.037  0.00  0.00    +0.000 N 
ATOM     17  C   UNL     1      -0.276  14.022  19.741  0.00  0.00    +0.000 C 
ATOM     18  N   UNL     1      -1.001  14.964  19.244  0.00  0.00    +0.000 NA
ATOM     19  N   UNL     1       0.827  13.561  18.973  0.00  0.00    +0.000 N 
ATOM     20  H   UNL     1      -1.824  15.356  19.721  0.00  0.00    +0.000 HD
ATOM     21  H   UNL     1       1.508  12.888  19.345  0.00  0.00    +0.000 HD
ATOM     22  H   UNL     1       0.990  13.941  18.027  0.00  0.00    +0.000 HD
ENDBRANCH  10  12
ENDBRANCH   3   7
BRANCH   1  24
ATOM     23  C   UNL     1       1.256   4.154  20.450  0.00  0.00    +0.000 C 
ATOM     24  C   UNL     1       2.581   4.904  20.583  0.00  0.00    +0.000 C 
ENDBRANCH   1  24
BRANCH   6  25
ATOM     25  O   UNL     1       4.237   5.087  18.169  0.00  0.00    +0.000 OA
BRANCH  25  26
ATOM     26  C   UNL     1       5.570   5.221  17.812  0.00  0.00    +0.000 C 
BRANCH  26  27
ATOM     27  C   UNL     1       5.821   4.789  16.401  0.00  0.00    +0.000 A 
ATOM     28  C   UNL     1       4.851   4.042  15.723  0.00  0.00    +0.000 A 
ATOM     29  C   UNL     1       5.041   3.693  14.385  0.00  0.00    +0.000 A 
ATOM     30  C   UNL     1       6.213   4.082  13.709  0.00  0.00    +0.000 A 
ATOM     31  C   UNL     1       7.186   4.824  14.399  0.00  0.00    +0.000 A 
ATOM     32  C   UNL     1       6.989   5.184  15.732  0.00  0.00    +0.000 A 
BRANCH  30  33
ATOM     33  C   UNL     1       6.445   3.724  12.265  0.00  0.00    +0.000 C 
ATOM     34  F   UNL     1       7.331   4.596  11.658  0.00  0.00    +0.000 F 
ATOM     35  F   UNL     1       6.962   2.444  12.185  0.00  0.00    +0.000 F 
ATOM     36  F   UNL     1       5.243   3.770  11.584  0.00  0.00    +0.000 F 
ENDBRANCH  30  33
ENDBRANCH  26  27
ENDBRANCH  25  26
ENDBRANCH   6  25
TORSDOF 7
ENDMDL
MODEL 5
REMARK VINA RESULT:      -8.5      6.301     10.755
REMARK  Name = 
REMARK  8 active torsions:
REMARK  status: ('A' for Active; 'I' for Inactive)
REMARK    1  A    between atoms: C_1  and  C_2
REMARK    2  A    between atoms: C_2  and  C_3
REMARK    3  A    between atoms: C_5  and  C_6
REMARK    4  A    between atoms: C_9  and  C_10
REMARK    5  A    between atoms: C_21  and  O_22
REMARK    6  A    between atoms: O_22  and  C_23
REMARK    7  A    between atoms: C_23  and  C_24
REMARK    8  A    between atoms: C_27  and  C_28
REMARK                            x       y       z     vdW  Elec       q    Type
REMARK                         _______ _______ _______ _____ _____    ______ ____
ROOT
ATOM      1  C   UNL     1       1.107   9.116  20.583  0.00  0.00    +0.000 A 
ATOM      2  C   UNL     1       1.889   8.091  20.022  0.00  0.00    +0.000 A 
ATOM      3  C   UNL     1       2.157   8.057  18.644  0.00  0.00    +0.000 A 
ATOM      4  C   UNL     1       1.623   9.042  17.817  0.00  0.00    +0.000 A 
ATOM      5  C   UNL     1       0.829  10.044  18.347  0.00  0.00    +0.000 A 
ATOM      6  C   UNL     1       0.559  10.108  19.733  0.00  0.00    +0.000 A 
ENDROOT
BRANCH   3   7
ATOM      7  C   UNL     1       3.010   7.008  18.075  0.00  0.00    +0.000 A 
ATOM      8  N   UNL     1       2.939   5.700  18.402  0.00  0.00    +0.000 NA
ATOM      9  O   UNL     1       3.821   5.108  17.652  0.00  0.00    +0.000 OA
ATOM     10  C   UNL     1       4.418   6.002  16.900  0.00  0.00    +0.000 A 
ATOM     11  N   UNL     1       3.934   7.232  17.131  0.00  0.00    +0.000 NA
BRANCH  10  12
ATOM     12  C   UNL     1       5.483   5.731  15.893  0.00  0.00    +0.000 C 
ATOM     13  C   UNL     1       4.977   4.734  14.853  0.00  0.00    +0.000 C 
ATOM     14  C   UNL     1       6.285   4.339  14.207  0.00  0.00    +0.000 C 
ATOM     15  C   UNL     1       7.164   4.119  15.436  0.00  0.00    +0.000 C 
ATOM     16  N   UNL     1       6.679   5.083  16.409  0.00  0.00    +0.000 N 
ATOM     17  C   UNL     1       7.188   5.160  17.758  0.00  0.00    +0.000 C 
ATOM     18  N   UNL     1       8.006   4.270  18.203  0.00  0.00    +0.000 NA
ATOM     19  N   UNL     1       6.811   6.209  18.638  0.00  0.00    +0.000 N 
ATOM     20  H   UNL     1       8.329   3.469  17.644  0.00  0.00    +0.000 HD
ATOM     21  H   UNL     1       6.246   7.009  18.324  0.00  0.00    +0.000 HD
ATOM     22  H   UNL     1       7.146   6.209  19.614  0.00  0.00    +0.000 HD
ENDBRANCH  10  12
ENDBRANCH   3   7
BRANCH   1  24
ATOM     23  C   UNL     1      -0.539   8.735  22.453  0.00  0.00    +0.000 C 
ATOM     24  C   UNL     1       0.894   9.112  22.080  0.00  0.00    +0.000 C 
ENDBRANCH   1  24
BRANCH   6  25
ATOM     25  O   UNL     1      -0.224  11.106  20.244  0.00  0.00    +0.000 OA
BRANCH  25  26
ATOM     26  C   UNL     1      -0.682  12.171  19.482  0.00  0.00    +0.000 C 
BRANCH  26  27
ATOM     27  C   UNL     1      -2.164  12.124  19.281  0.00  0.00    +0.000 A 
ATOM     28  C   UNL     1      -2.691  11.456  18.170  0.00  0.00    +0.000 A 
ATOM     29  C   UNL     1      -4.073  11.344  18.008  0.00  0.00    +0.000 A 
ATOM     30  C   UNL     1      -4.947  11.909  18.955  0.00  0.00    +0.000 A 
ATOM     31  C   UNL     1      -4.410  12.586  20.063  0.00  0.00    +0.000 A 
ATOM     32  C   UNL     1      -3.029  12.686  20.231  0.00  0.00    +0.000 A 
BRANCH  30  33
ATOM     33  C   UNL     1      -6.442  11.802  18.810  0.00  0.00    +0.000 C 
ATOM     34  F   UNL     1      -6.805  10.713  18.038  0.00  0.00    +0.000 F 
ATOM     35  F   UNL     1      -7.018  11.668  20.060  0.00  0.00    +0.000 F 
ATOM     36  F   UNL     1      -6.926  12.951  18.210  0.00  0.00    +0.000 F 
ENDBRANCH  30  33
ENDBRANCH  26  27
ENDBRANCH  25  26
ENDBRANCH   6  25
TORSDOF 7
ENDMDL
MODEL 6
REMARK VINA RESULT:      -8.5      4.909      7.357
REMARK  Name = 
REMARK  8 active torsions:
REMARK  status: ('A' for Active; 'I' for Inactive)
REMARK    1  A    between atoms: C_1  and  C_2
REMARK    2  A    between atoms: C_2  and  C_3
REMARK    3  A    between atoms: C_5  and  C_6
REMARK    4  A    between atoms: C_9  and  C_10
REMARK    5  A    between atoms: C_21  and  O_22
REMARK    6  A    between atoms: O_22  and  C_23
REMARK    7  A    between atoms: C_23  and  C_24
REMARK    8  A    between atoms: C_27  and  C_28
REMARK                            x       y       z     vdW  Elec       q    Type
REMARK                         _______ _______ _______ _____ _____    ______ ____
ROOT
ATOM      1  C   UNL     1       2.893   6.002  19.453  0.00  0.00    +0.000 A 
ATOM      2  C   UNL     1       2.050   7.119  19.596  0.00  0.00    +0.000 A 
ATOM      3  C   UNL     1       2.114   8.195  18.697  0.00  0.00    +0.000 A 
ATOM      4  C   UNL     1       3.040   8.166  17.657  0.00  0.00    +0.000 A 
ATOM      5  C   UNL     1       3.896   7.088  17.515  0.00  0.00    +0.000 A 
ATOM      6  C   UNL     1       3.840   5.986  18.399  0.00  0.00    +0.000 A 
ENDROOT
BRANCH   3   7
ATOM      7  C   UNL     1       1.200   9.334  18.830  0.00  0.00    +0.000 A 
ATOM      8  N   UNL     1       0.324   9.731  17.882  0.00  0.00    +0.000 NA
ATOM      9  O   UNL     1      -0.319  10.733  18.403  0.00  0.00    +0.000 OA
ATOM     10  C   UNL     1       0.137  10.957  19.613  0.00  0.00    +0.000 A 
ATOM     11  N   UNL     1       1.108  10.087  19.934  0.00  0.00    +0.000 NA
BRANCH  10  12
ATOM     12  C   UNL     1      -0.344  12.010  20.551  0.00  0.00    +0.000 C 
ATOM     13  C   UNL     1      -1.870  12.064  20.538  0.00  0.00    +0.000 C 
ATOM     14  C   UNL     1      -2.094  13.393  21.224  0.00  0.00    +0.000 C 
ATOM     15  C   UNL     1      -1.072  14.270  20.504  0.00  0.00    +0.000 C 
ATOM     16  N   UNL     1       0.032  13.373  20.204  0.00  0.00    +0.000 N 
ATOM     17  C   UNL     1       1.191  13.782  19.446  0.00  0.00    +0.000 C 
ATOM     18  N   UNL     1       1.229  14.936  18.876  0.00  0.00    +0.000 NA
ATOM     19  N   UNL     1       2.323  12.935  19.300  0.00  0.00    +0.000 N 
ATOM     20  H   UNL     1       0.455  15.613  18.917  0.00  0.00    +0.000 HD
ATOM     21  H   UNL     1       2.408  12.046  19.808  0.00  0.00    +0.000 HD
ATOM     22  H   UNL     1       3.114  13.230  18.707  0.00  0.00    +0.000 HD
ENDBRANCH  10  12
ENDBRANCH   3   7
BRANCH   1  24
ATOM     23  C   UNL     1       1.276   4.464  20.624  0.00  0.00    +0.000 C 
ATOM     24  C   UNL     1       2.739   4.863  20.434  0.00  0.00    +0.000 C 
ENDBRANCH   1  24
BRANCH   6  25
ATOM     25  O   UNL     1       4.689   4.925  18.245  0.00  0.00    +0.000 OA
BRANCH  25  26
ATOM     26  C   UNL     1       5.980   5.058  17.756  0.00  0.00    +0.000 C 
BRANCH  26  27
ATOM     27  C   UNL     1       6.067   4.734  16.297  0.00  0.00    +0.000 A 
ATOM     28  C   UNL     1       7.155   5.199  15.548  0.00  0.00    +0.000 A 
ATOM     29  C   UNL     1       7.285   4.845  14.205  0.00  0.00    +0.000 A 
ATOM     30  C   UNL     1       6.320   4.027  13.589  0.00  0.00    +0.000 A 
ATOM     31  C   UNL     1       5.226   3.573  14.344  0.00  0.00    +0.000 A 
ATOM     32  C   UNL     1       5.104   3.915  15.690  0.00  0.00    +0.000 A 
BRANCH  30  33
ATOM     33  C   UNL     1       6.435   3.626  12.142  0.00  0.00    +0.000 C 
ATOM     34  F   UNL     1       6.858   2.316  12.006  0.00  0.00    +0.000 F 
ATOM     35  F   UNL     1       5.202   3.756  11.528  0.00  0.00    +0.000 F 
ATOM     36  F   UNL     1       7.344   4.453  11.509  0.00  0.00    +0.000 F 
ENDBRANCH  30  33
ENDBRANCH  26  27
ENDBRANCH  25  26
ENDBRANCH   6  25
TORSDOF 7
ENDMDL
MODEL 7
REMARK VINA RESULT:      -8.4      4.271      6.960
REMARK  Name = 
REMARK  8 active torsions:
REMARK  status: ('A' for Active; 'I' for Inactive)
REMARK    1  A    between atoms: C_1  and  C_2
REMARK    2  A    between atoms: C_2  and  C_3
REMARK    3  A    between atoms: C_5  and  C_6
REMARK    4  A    between atoms: C_9  and  C_10
REMARK    5  A    between atoms: C_21  and  O_22
REMARK    6  A    between atoms: O_22  and  C_23
REMARK    7  A    between atoms: C_23  and  C_24
REMARK    8  A    between atoms: C_27  and  C_28
REMARK                            x       y       z     vdW  Elec       q    Type
REMARK                         _______ _______ _______ _____ _____    ______ ____
ROOT
ATOM      1  C   UNL     1       2.214   4.965  20.201  0.00  0.00    +0.000 A 
ATOM      2  C   UNL     1       1.919   6.311  20.482  0.00  0.00    +0.000 A 
ATOM      3  C   UNL     1       1.811   7.259  19.453  0.00  0.00    +0.000 A 
ATOM      4  C   UNL     1       2.019   6.865  18.133  0.00  0.00    +0.000 A 
ATOM      5  C   UNL     1       2.335   5.550  17.839  0.00  0.00    +0.000 A 
ATOM      6  C   UNL     1       2.434   4.575  18.857  0.00  0.00    +0.000 A 
ENDROOT
BRANCH   3   7
ATOM      7  C   UNL     1       1.461   8.651  19.753  0.00  0.00    +0.000 A 
ATOM      8  N   UNL     1       1.119   9.110  20.976  0.00  0.00    +0.000 NA
ATOM      9  O   UNL     1       0.931  10.387  20.826  0.00  0.00    +0.000 OA
ATOM     10  C   UNL     1       1.137  10.710  19.571  0.00  0.00    +0.000 A 
ATOM     11  N   UNL     1       1.481   9.635  18.844  0.00  0.00    +0.000 NA
BRANCH  10  12
ATOM     12  C   UNL     1       1.038  12.078  18.989  0.00  0.00    +0.000 C 
ATOM     13  C   UNL     1       1.581  13.107  19.977  0.00  0.00    +0.000 C 
ATOM     14  C   UNL     1       1.040  14.377  19.361  0.00  0.00    +0.000 C 
ATOM     15  C   UNL     1      -0.399  13.967  19.059  0.00  0.00    +0.000 C 
ATOM     16  N   UNL     1      -0.315  12.552  18.738  0.00  0.00    +0.000 N 
ATOM     17  C   UNL     1      -1.477  11.739  18.466  0.00  0.00    +0.000 C 
ATOM     18  N   UNL     1      -2.663  12.211  18.638  0.00  0.00    +0.000 NA
ATOM     19  N   UNL     1      -1.359  10.401  18.002  0.00  0.00    +0.000 N 
ATOM     20  H   UNL     1      -2.849  13.163  18.979  0.00  0.00    +0.000 HD
ATOM     21  H   UNL     1      -0.452   9.991  17.744  0.00  0.00    +0.000 HD
ATOM     22  H   UNL     1      -2.204   9.825  17.869  0.00  0.00    +0.000 HD
ENDBRANCH  10  12
ENDBRANCH   3   7
BRANCH   1  24
ATOM     23  C   UNL     1       1.179   2.929  21.267  0.00  0.00    +0.000 C 
ATOM     24  C   UNL     1       2.274   3.992  21.357  0.00  0.00    +0.000 C 
ENDBRANCH   1  24
BRANCH   6  25
ATOM     25  O   UNL     1       2.744   3.278  18.552  0.00  0.00    +0.000 OA
BRANCH  25  26
ATOM     26  C   UNL     1       4.044   2.841  18.349  0.00  0.00    +0.000 C 
BRANCH  26  27
ATOM     27  C   UNL     1       5.000   3.978  18.172  0.00  0.00    +0.000 A 
ATOM     28  C   UNL     1       5.239   4.489  16.890  0.00  0.00    +0.000 A 
ATOM     29  C   UNL     1       6.072   5.595  16.719  0.00  0.00    +0.000 A 
ATOM     30  C   UNL     1       6.687   6.200  17.831  0.00  0.00    +0.000 A 
ATOM     31  C   UNL     1       6.450   5.676  19.113  0.00  0.00    +0.000 A 
ATOM     32  C   UNL     1       5.606   4.580  19.285  0.00  0.00    +0.000 A 
BRANCH  30  33
ATOM     33  C   UNL     1       7.590   7.396  17.678  0.00  0.00    +0.000 C 
ATOM     34  F   UNL     1       8.229   7.403  16.451  0.00  0.00    +0.000 F 
ATOM     35  F   UNL     1       6.842   8.554  17.792  0.00  0.00    +0.000 F 
ATOM     36  F   UNL     1       8.547   7.377  18.676  0.00  0.00    +0.000 F 
ENDBRANCH  30  33
ENDBRANCH  26  27
ENDBRANCH  25  26
ENDBRANCH   6  25
TORSDOF 7
ENDMDL
MODEL 8
REMARK VINA RESULT:      -8.4      6.297     10.620
REMARK  Name = 
REMARK  8 active torsions:
REMARK  status: ('A' for Active; 'I' for Inactive)
REMARK    1  A    between atoms: C_1  and  C_2
REMARK    2  A    between atoms: C_2  and  C_3
REMARK    3  A    between atoms: C_5  and  C_6
REMARK    4  A    between atoms: C_9  and  C_10
REMARK    5  A    between atoms: C_21  and  O_22
REMARK    6  A    between atoms: O_22  and  C_23
REMARK    7  A    between atoms: C_23  and  C_24
REMARK    8  A    between atoms: C_27  and  C_28
REMARK                            x       y       z     vdW  Elec       q    Type
REMARK                         _______ _______ _______ _____ _____    ______ ____
ROOT
ATOM      1  C   UNL     1       0.317   9.029  20.737  0.00  0.00    +0.000 A 
ATOM      2  C   UNL     1       1.111   7.869  20.727  0.00  0.00    +0.000 A 
ATOM      3  C   UNL     1       1.967   7.586  19.651  0.00  0.00    +0.000 A 
ATOM      4  C   UNL     1       2.017   8.459  18.567  0.00  0.00    +0.000 A 
ATOM      5  C   UNL     1       1.224   9.593  18.547  0.00  0.00    +0.000 A 
ATOM      6  C   UNL     1       0.366   9.906  19.626  0.00  0.00    +0.000 A 
ENDROOT
BRANCH   3   7
ATOM      7  C   UNL     1       2.822   6.395  19.671  0.00  0.00    +0.000 A 
ATOM      8  N   UNL     1       2.469   5.205  20.200  0.00  0.00    +0.000 NA
ATOM      9  O   UNL     1       3.476   4.414  19.975  0.00  0.00    +0.000 OA
ATOM     10  C   UNL     1       4.414   5.078  19.344  0.00  0.00    +0.000 A 
ATOM     11  N   UNL     1       4.044   6.349  19.123  0.00  0.00    +0.000 NA
BRANCH  10  12
ATOM     12  C   UNL     1       5.724   4.530  18.891  0.00  0.00    +0.000 C 
ATOM     13  C   UNL     1       6.847   5.503  19.241  0.00  0.00    +0.000 C 
ATOM     14  C   UNL     1       7.958   4.945  18.380  0.00  0.00    +0.000 C 
ATOM     15  C   UNL     1       7.223   4.723  17.060  0.00  0.00    +0.000 C 
ATOM     16  N   UNL     1       5.869   4.369  17.452  0.00  0.00    +0.000 N 
ATOM     17  C   UNL     1       4.808   4.152  16.497  0.00  0.00    +0.000 C 
ATOM     18  N   UNL     1       4.987   4.405  15.247  0.00  0.00    +0.000 NA
ATOM     19  N   UNL     1       3.537   3.656  16.895  0.00  0.00    +0.000 N 
ATOM     20  H   UNL     1       5.868   4.775  14.865  0.00  0.00    +0.000 HD
ATOM     21  H   UNL     1       3.352   3.336  17.854  0.00  0.00    +0.000 HD
ATOM     22  H   UNL     1       2.780   3.563  16.200  0.00  0.00    +0.000 HD
ENDBRANCH  10  12
ENDBRANCH   3   7
BRANCH   1  24
ATOM     23  C   UNL     1       0.280   9.471  23.219  0.00  0.00    +0.000 C 
ATOM     24  C   UNL     1      -0.551   9.289  21.948  0.00  0.00    +0.000 C 
ENDBRANCH   1  24
BRANCH   6  25
ATOM     25  O   UNL     1      -0.409  11.033  19.595  0.00  0.00    +0.000 OA
BRANCH  25  26
ATOM     26  C   UNL     1      -0.081  12.193  20.280  0.00  0.00    +0.000 C 
BRANCH  26  27
ATOM     27  C   UNL     1      -1.135  12.581  21.268  0.00  0.00    +0.000 A 
ATOM     28  C   UNL     1      -2.486  12.474  20.918  0.00  0.00    +0.000 A 
ATOM     29  C   UNL     1      -3.480  12.764  21.854  0.00  0.00    +0.000 A 
ATOM     30  C   UNL     1      -3.132  13.176  23.154  0.00  0.00    +0.000 A 
ATOM     31  C   UNL     1      -1.774  13.291  23.495  0.00  0.00    +0.000 A 
ATOM     32  C   UNL     1      -0.782  12.988  22.564  0.00  0.00    +0.000 A 
BRANCH  30  33
ATOM     33  C   UNL     1      -4.181  13.494  24.187  0.00  0.00    +0.000 C 
ATOM     34  F   UNL     1      -4.055  14.786  24.665  0.00  0.00    +0.000 F 
ATOM     35  F   UNL     1      -5.438  13.353  23.626  0.00  0.00    +0.000 F 
ATOM     36  F   UNL     1      -4.058  12.616  25.248  0.00  0.00    +0.000 F 
ENDBRANCH  30  33
ENDBRANCH  26  27
ENDBRANCH  25  26
ENDBRANCH   6  25
TORSDOF 7
ENDMDL
MODEL 9
REMARK VINA RESULT:      -8.4      4.472      6.874
REMARK  Name = 
REMARK  8 active torsions:
REMARK  status: ('A' for Active; 'I' for Inactive)
REMARK    1  A    between atoms: C_1  and  C_2
REMARK    2  A    between atoms: C_2  and  C_3
REMARK    3  A    between atoms: C_5  and  C_6
REMARK    4  A    between atoms: C_9  and  C_10
REMARK    5  A    between atoms: C_21  and  O_22
REMARK    6  A    between atoms: O_22  and  C_23
REMARK    7  A    between atoms: C_23  and  C_24
REMARK    8  A    between atoms: C_27  and  C_28
REMARK                            x       y       z     vdW  Elec       q    Type
REMARK                         _______ _______ _______ _____ _____    ______ ____
ROOT
ATOM      1  C   UNL     1       2.770   5.954  19.658  0.00  0.00    +0.000 A 
ATOM      2  C   UNL     1       1.989   7.106  19.855  0.00  0.00    +0.000 A 
ATOM      3  C   UNL     1       2.044   8.182  18.954  0.00  0.00    +0.000 A 
ATOM      4  C   UNL     1       2.901   8.115  17.858  0.00  0.00    +0.000 A 
ATOM      5  C   UNL     1       3.697   7.000  17.661  0.00  0.00    +0.000 A 
ATOM      6  C   UNL     1       3.647   5.898  18.546  0.00  0.00    +0.000 A 
ENDROOT
BRANCH   3   7
ATOM      7  C   UNL     1       1.194   9.361  19.145  0.00  0.00    +0.000 A 
ATOM      8  N   UNL     1       0.537  10.002  18.155  0.00  0.00    +0.000 NA
ATOM      9  O   UNL     1      -0.130  10.952  18.742  0.00  0.00    +0.000 OA
ATOM     10  C   UNL     1       0.104  10.911  20.032  0.00  0.00    +0.000 A 
ATOM     11  N   UNL     1       0.942   9.910  20.342  0.00  0.00    +0.000 NA
BRANCH  10  12
ATOM     12  C   UNL     1      -0.479  11.820  21.058  0.00  0.00    +0.000 C 
ATOM     13  C   UNL     1      -0.624  11.083  22.387  0.00  0.00    +0.000 C 
ATOM     14  C   UNL     1      -1.548  12.032  23.117  0.00  0.00    +0.000 C 
ATOM     15  C   UNL     1      -2.584  12.323  22.034  0.00  0.00    +0.000 C 
ATOM     16  N   UNL     1      -1.835  12.276  20.790  0.00  0.00    +0.000 N 
ATOM     17  C   UNL     1      -2.457  12.418  19.494  0.00  0.00    +0.000 C 
ATOM     18  N   UNL     1      -3.739  12.452  19.381  0.00  0.00    +0.000 NA
ATOM     19  N   UNL     1      -1.686  12.525  18.305  0.00  0.00    +0.000 N 
ATOM     20  H   UNL     1      -4.380  12.372  20.182  0.00  0.00    +0.000 HD
ATOM     21  H   UNL     1      -0.661  12.609  18.324  0.00  0.00    +0.000 HD
ATOM     22  H   UNL     1      -2.156  12.570  17.388  0.00  0.00    +0.000 HD
ENDBRANCH  10  12
ENDBRANCH   3   7
BRANCH   1  24
ATOM     23  C   UNL     1       1.281   4.107  20.511  0.00  0.00    +0.000 C 
ATOM     24  C   UNL     1       2.627   4.819  20.646  0.00  0.00    +0.000 C 
ENDBRANCH   1  24
BRANCH   6  25
ATOM     25  O   UNL     1       4.435   4.801  18.338  0.00  0.00    +0.000 OA
BRANCH  25  26
ATOM     26  C   UNL     1       5.757   4.889  17.925  0.00  0.00    +0.000 C 
BRANCH  26  27
ATOM     27  C   UNL     1       5.907   4.638  16.458  0.00  0.00    +0.000 A 
ATOM     28  C   UNL     1       7.043   5.109  15.787  0.00  0.00    +0.000 A 
ATOM     29  C   UNL     1       7.230   4.820  14.435  0.00  0.00    +0.000 A 
ATOM     30  C   UNL     1       6.275   4.063  13.731  0.00  0.00    +0.000 A 
ATOM     31  C   UNL     1       5.134   3.602  14.408  0.00  0.00    +0.000 A 
ATOM     32  C   UNL     1       4.954   3.879  15.763  0.00  0.00    +0.000 A 
BRANCH  30  33
ATOM     33  C   UNL     1       6.451   3.733  12.272  0.00  0.00    +0.000 C 
ATOM     34  F   UNL     1       5.258   3.829  11.578  0.00  0.00    +0.000 F 
ATOM     35  F   UNL     1       7.361   4.609  11.708  0.00  0.00    +0.000 F 
ATOM     36  F   UNL     1       6.931   2.442  12.150  0.00  0.00    +0.000 F 
ENDBRANCH  30  33
ENDBRANCH  26  27
ENDBRANCH  25  26
ENDBRANCH   6  25
TORSDOF 7
ENDMDL
