MODEL 1
REMARK VINA RESULT:      -8.0      0.000      0.000
REMARK  Name = 
REMARK  8 active torsions:
REMARK  status: ('A' for Active; 'I' for Inactive)
REMARK    1  A    between atoms: C_1  and  C_2
REMARK    2  A    between atoms: C_2  and  C_4
REMARK    3  A    between atoms: C_5  and  C_6
REMARK    4  A    between atoms: C_9  and  C_10
REMARK    5  A    between atoms: C_15  and  C_16
REMARK    6  A    between atoms: C_16  and  C_17
REMARK    7  A    between atoms: C_16  and  C_18
REMARK    8  A    between atoms: C_16  and  C_19
REMARK                            x       y       z     vdW  Elec       q    Type
REMARK                         _______ _______ _______ _____ _____    ______ ____
ROOT
ATOM      1  C   UNL     1       5.847   4.199  15.749  0.00  0.00    +0.000 A 
ATOM      2  C   UNL     1       7.084   4.788  16.000  0.00  0.00    +0.000 A 
ATOM      3  N   UNL     1       7.489   5.225  17.218  0.00  0.00    +0.000 NA
ATOM      4  C   UNL     1       6.621   5.087  18.253  0.00  0.00    +0.000 A 
ATOM      5  C   UNL     1       7.101   5.553  19.597  0.00  0.00    +0.000 C 
ATOM      6  C   UNL     1       5.344   4.545  18.094  0.00  0.00    +0.000 A 
ATOM      7  C   UNL     1       4.959   4.076  16.830  0.00  0.00    +0.000 A 
ATOM      8  C   UNL     1       3.589   3.495  16.660  0.00  0.00    +0.000 C 
ATOM      9  O   UNL     1       3.040   3.119  17.913  0.00  0.00    +0.000 OA
ATOM     10  C   UNL     1       3.152   4.196  18.841  0.00  0.00    +0.000 C 
ATOM     11  O   UNL     1       4.519   4.462  19.185  0.00  0.00    +0.000 OA
ENDROOT
BRANCH  10  12
ATOM     12  C   UNL     1       2.332   3.835  20.113  0.00  0.00    +0.000 C 
ATOM     13  C   UNL     1       0.959   3.248  19.737  0.00  0.00    +0.000 C 
ATOM     14  C   UNL     1       3.093   2.806  20.967  0.00  0.00    +0.000 C 
ATOM     15  C   UNL     1       2.106   5.107  20.956  0.00  0.00    +0.000 C 
ENDBRANCH  10  12
BRANCH   1  17
ATOM     16  C   UNL     1       6.334   3.757  13.367  0.00  0.00    +0.000 C 
ATOM     17  C   UNL     1       5.482   3.729  14.406  0.00  0.00    +0.000 C 
BRANCH  16  19
ATOM     18  C   UNL     1       4.520   3.358  11.621  0.00  0.00    +0.000 C 
ATOM     19  C   UNL     1       5.935   3.115  12.082  0.00  0.00    +0.000 C 
ATOM     20  O   UNL     1       6.723   2.442  11.424  0.00  0.00    +0.000 OA
ENDBRANCH  16  19
ENDBRANCH   1  17
TORSDOF 3
ENDMDL
MODEL 2
REMARK VINA RESULT:      -7.8      0.648      1.256
REMARK  Name = 
REMARK  8 active torsions:
REMARK  status: ('A' for Active; 'I' for Inactive)
REMARK    1  A    between atoms: C_1  and  C_2
REMARK    2  A    between atoms: C_2  and  C_4
REMARK    3  A    between atoms: C_5  and  C_6
REMARK    4  A    between atoms: C_9  and  C_10
REMARK    5  A    between atoms: C_15  and  C_16
REMARK    6  A    between atoms: C_16  and  C_17
REMARK    7  A    between atoms: C_16  and  C_18
REMARK    8  A    between atoms: C_16  and  C_19
REMARK                            x       y       z     vdW  Elec       q    Type
REMARK                         _______ _______ _______ _____ _____    ______ ____
ROOT
ATOM      1  C   UNL     1       5.743   4.432  15.615  0.00  0.00    +0.000 A 
ATOM      2  C   UNL     1       6.987   5.013  15.854  0.00  0.00    +0.000 A 
ATOM      3  N   UNL     1       7.438   5.375  17.081  0.00  0.00    +0.000 NA
ATOM      4  C   UNL     1       6.612   5.167  18.137  0.00  0.00    +0.000 A 
ATOM      5  C   UNL     1       7.143   5.551  19.488  0.00  0.00    +0.000 C 
ATOM      6  C   UNL     1       5.332   4.627  17.995  0.00  0.00    +0.000 A 
ATOM      7  C   UNL     1       4.899   4.235  16.720  0.00  0.00    +0.000 A 
ATOM      8  C   UNL     1       3.527   3.657  16.567  0.00  0.00    +0.000 C 
ATOM      9  O   UNL     1       3.029   3.199  17.815  0.00  0.00    +0.000 OA
ATOM     10  C   UNL     1       3.173   4.217  18.803  0.00  0.00    +0.000 C 
ATOM     11  O   UNL     1       4.551   4.470  19.110  0.00  0.00    +0.000 OA
ENDROOT
BRANCH  10  12
ATOM     12  C   UNL     1       2.405   3.771  20.081  0.00  0.00    +0.000 C 
ATOM     13  C   UNL     1       2.224   4.949  21.057  0.00  0.00    +0.000 C 
ATOM     14  C   UNL     1       1.017   3.221  19.707  0.00  0.00    +0.000 C 
ATOM     15  C   UNL     1       3.200   2.660  20.797  0.00  0.00    +0.000 C 
ENDBRANCH  10  12
BRANCH   1  17
ATOM     16  C   UNL     1       6.190   3.588  13.336  0.00  0.00    +0.000 C 
ATOM     17  C   UNL     1       5.328   4.045  14.260  0.00  0.00    +0.000 C 
BRANCH  16  19
ATOM     18  C   UNL     1       6.508   2.043  11.334  0.00  0.00    +0.000 C 
ATOM     19  C   UNL     1       5.660   3.068  12.042  0.00  0.00    +0.000 C 
ATOM     20  O   UNL     1       4.581   3.439  11.590  0.00  0.00    +0.000 OA
ENDBRANCH  16  19
ENDBRANCH   1  17
TORSDOF 3
ENDMDL
MODEL 3
REMARK VINA RESULT:      -7.3      2.997      4.405
REMARK  Name = 
REMARK  8 active torsions:
REMARK  status: ('A' for Active; 'I' for Inactive)
REMARK    1  A    between atoms: C_1  and  C_2
REMARK    2  A    between atoms: C_2  and  C_4
REMARK    3  A    between atoms: C_5  and  C_6
REMARK    4  A    between atoms: C_9  and  C_10
REMARK    5  A    between atoms: C_15  and  C_16
REMARK    6  A    between atoms: C_16  and  C_17
REMARK    7  A    between atoms: C_16  and  C_18
REMARK    8  A    between atoms: C_16  and  C_19
REMARK                            x       y       z     vdW  Elec       q    Type
REMARK                         _______ _______ _______ _____ _____    ______ ____
ROOT
ATOM      1  C   UNL     1       3.894   4.693  17.985  0.00  0.00    +0.000 A 
ATOM      2  C   UNL     1       3.831   3.387  18.463  0.00  0.00    +0.000 A 
ATOM      3  N   UNL     1       3.091   3.000  19.532  0.00  0.00    +0.000 NA
ATOM      4  C   UNL     1       2.378   3.956  20.179  0.00  0.00    +0.000 A 
ATOM      5  C   UNL     1       1.546   3.501  21.342  0.00  0.00    +0.000 C 
ATOM      6  C   UNL     1       2.408   5.300  19.799  0.00  0.00    +0.000 A 
ATOM      7  C   UNL     1       3.159   5.671  18.675  0.00  0.00    +0.000 A 
ATOM      8  C   UNL     1       3.191   7.111  18.267  0.00  0.00    +0.000 C 
ATOM      9  O   UNL     1       2.103   7.822  18.839  0.00  0.00    +0.000 OA
ATOM     10  C   UNL     1       2.035   7.570  20.241  0.00  0.00    +0.000 C 
ATOM     11  O   UNL     1       1.677   6.209  20.519  0.00  0.00    +0.000 OA
ENDROOT
BRANCH  10  12
ATOM     12  C   UNL     1       0.995   8.544  20.864  0.00  0.00    +0.000 C 
ATOM     13  C   UNL     1      -0.334   7.821  21.156  0.00  0.00    +0.000 C 
ATOM     14  C   UNL     1       1.535   9.135  22.178  0.00  0.00    +0.000 C 
ATOM     15  C   UNL     1       0.718   9.699  19.880  0.00  0.00    +0.000 C 
ENDBRANCH  10  12
BRANCH   1  17
ATOM     16  C   UNL     1       5.873   4.442  16.525  0.00  0.00    +0.000 C 
ATOM     17  C   UNL     1       4.702   5.038  16.807  0.00  0.00    +0.000 C 
BRANCH  16  19
ATOM     18  C   UNL     1       5.985   4.054  14.009  0.00  0.00    +0.000 C 
ATOM     19  C   UNL     1       6.547   4.738  15.229  0.00  0.00    +0.000 C 
ATOM     20  O   UNL     1       7.495   5.515  15.157  0.00  0.00    +0.000 OA
ENDBRANCH  16  19
ENDBRANCH   1  17
TORSDOF 3
ENDMDL
MODEL 4
REMARK VINA RESULT:      -6.9      3.659      4.739
REMARK  Name = 
REMARK  8 active torsions:
REMARK  status: ('A' for Active; 'I' for Inactive)
REMARK    1  A    between atoms: C_1  and  C_2
REMARK    2  A    between atoms: C_2  and  C_4
REMARK    3  A    between atoms: C_5  and  C_6
REMARK    4  A    between atoms: C_9  and  C_10
REMARK    5  A    between atoms: C_15  and  C_16
REMARK    6  A    between atoms: C_16  and  C_17
REMARK    7  A    between atoms: C_16  and  C_18
REMARK    8  A    between atoms: C_16  and  C_19
REMARK                            x       y       z     vdW  Elec       q    Type
REMARK                         _______ _______ _______ _____ _____    ______ ____
ROOT
ATOM      1  C   UNL     1       4.339   5.488  17.603  0.00  0.00    +0.000 A 
ATOM      2  C   UNL     1       4.235   4.352  18.403  0.00  0.00    +0.000 A 
ATOM      3  N   UNL     1       3.363   4.222  19.434  0.00  0.00    +0.000 NA
ATOM      4  C   UNL     1       2.552   5.275  19.705  0.00  0.00    +0.000 A 
ATOM      5  C   UNL     1       1.578   5.098  20.833  0.00  0.00    +0.000 C 
ATOM      6  C   UNL     1       2.609   6.470  18.984  0.00  0.00    +0.000 A 
ATOM      7  C   UNL     1       3.499   6.571  17.906  0.00  0.00    +0.000 A 
ATOM      8  C   UNL     1       3.559   7.853  17.134  0.00  0.00    +0.000 C 
ATOM      9  O   UNL     1       2.392   8.630  17.352  0.00  0.00    +0.000 OA
ATOM     10  C   UNL     1       2.139   8.753  18.750  0.00  0.00    +0.000 C 
ATOM     11  O   UNL     1       1.771   7.497  19.336  0.00  0.00    +0.000 OA
ENDROOT
BRANCH  10  12
ATOM     12  C   UNL     1       1.005   9.800  18.952  0.00  0.00    +0.000 C 
ATOM     13  C   UNL     1       1.546  11.235  18.810  0.00  0.00    +0.000 C 
ATOM     14  C   UNL     1      -0.112   9.586  17.916  0.00  0.00    +0.000 C 
ATOM     15  C   UNL     1       0.406   9.640  20.365  0.00  0.00    +0.000 C 
ENDBRANCH  10  12
BRANCH   1  17
ATOM     16  C   UNL     1       5.807   4.456  15.903  0.00  0.00    +0.000 C 
ATOM     17  C   UNL     1       5.292   5.552  16.487  0.00  0.00    +0.000 C 
BRANCH  16  19
ATOM     18  C   UNL     1       6.196   3.839  13.461  0.00  0.00    +0.000 C 
ATOM     19  C   UNL     1       6.642   4.610  14.677  0.00  0.00    +0.000 C 
ATOM     20  O   UNL     1       7.627   5.342  14.655  0.00  0.00    +0.000 OA
ENDBRANCH  16  19
ENDBRANCH   1  17
TORSDOF 3
ENDMDL
MODEL 5
REMARK VINA RESULT:      -6.8      1.044      1.457
REMARK  Name = 
REMARK  8 active torsions:
REMARK  status: ('A' for Active; 'I' for Inactive)
REMARK    1  A    between atoms: C_1  and  C_2
REMARK    2  A    between atoms: C_2  and  C_4
REMARK    3  A    between atoms: C_5  and  C_6
REMARK    4  A    between atoms: C_9  and  C_10
REMARK    5  A    between atoms: C_15  and  C_16
REMARK    6  A    between atoms: C_16  and  C_17
REMARK    7  A    between atoms: C_16  and  C_18
REMARK    8  A    between atoms: C_16  and  C_19
REMARK                            x       y       z     vdW  Elec       q    Type
REMARK                         _______ _______ _______ _____ _____    ______ ____
ROOT
ATOM      1  C   UNL     1       6.101   4.200  14.909  0.00  0.00    +0.000 A 
ATOM      2  C   UNL     1       7.226   5.021  14.945  0.00  0.00    +0.000 A 
ATOM      3  N   UNL     1       7.588   5.774  16.013  0.00  0.00    +0.000 NA
ATOM      4  C   UNL     1       6.790   5.730  17.109  0.00  0.00    +0.000 A 
ATOM      5  C   UNL     1       7.224   6.551  18.289  0.00  0.00    +0.000 C 
ATOM      6  C   UNL     1       5.620   4.969  17.155  0.00  0.00    +0.000 A 
ATOM      7  C   UNL     1       5.281   4.177  16.049  0.00  0.00    +0.000 A 
ATOM      8  C   UNL     1       4.027   3.361  16.098  0.00  0.00    +0.000 C 
ATOM      9  O   UNL     1       3.590   3.187  17.437  0.00  0.00    +0.000 OA
ATOM     10  C   UNL     1       3.544   4.446  18.106  0.00  0.00    +0.000 C 
ATOM     11  O   UNL     1       4.855   4.997  18.293  0.00  0.00    +0.000 OA
ENDROOT
BRANCH  10  12
ATOM     12  C   UNL     1       2.837   4.247  19.478  0.00  0.00    +0.000 C 
ATOM     13  C   UNL     1       3.530   3.146  20.302  0.00  0.00    +0.000 C 
ATOM     14  C   UNL     1       2.859   5.557  20.286  0.00  0.00    +0.000 C 
ATOM     15  C   UNL     1       1.370   3.835  19.244  0.00  0.00    +0.000 C 
ENDBRANCH  10  12
BRANCH   1  17
ATOM     16  C   UNL     1       4.881   3.777  12.801  0.00  0.00    +0.000 C 
ATOM     17  C   UNL     1       5.781   3.394  13.724  0.00  0.00    +0.000 C 
BRANCH  16  19
ATOM     18  C   UNL     1       3.665   3.426  10.589  0.00  0.00    +0.000 C 
ATOM     19  C   UNL     1       4.734   2.977  11.552  0.00  0.00    +0.000 C 
ATOM     20  O   UNL     1       5.460   2.017  11.311  0.00  0.00    +0.000 OA
ENDBRANCH  16  19
ENDBRANCH   1  17
TORSDOF 3
ENDMDL
MODEL 6
REMARK VINA RESULT:      -6.8      1.234      1.319
REMARK  Name = 
REMARK  8 active torsions:
REMARK  status: ('A' for Active; 'I' for Inactive)
REMARK    1  A    between atoms: C_1  and  C_2
REMARK    2  A    between atoms: C_2  and  C_4
REMARK    3  A    between atoms: C_5  and  C_6
REMARK    4  A    between atoms: C_9  and  C_10
REMARK    5  A    between atoms: C_15  and  C_16
REMARK    6  A    between atoms: C_16  and  C_17
REMARK    7  A    between atoms: C_16  and  C_18
REMARK    8  A    between atoms: C_16  and  C_19
REMARK                            x       y       z     vdW  Elec       q    Type
REMARK                         _______ _______ _______ _____ _____    ______ ____
ROOT
ATOM      1  C   UNL     1       6.061   4.304  14.849  0.00  0.00    +0.000 A 
ATOM      2  C   UNL     1       7.212   5.088  14.821  0.00  0.00    +0.000 A 
ATOM      3  N   UNL     1       7.596   5.918  15.823  0.00  0.00    +0.000 NA
ATOM      4  C   UNL     1       6.794   5.992  16.915  0.00  0.00    +0.000 A 
ATOM      5  C   UNL     1       7.252   6.896  18.023  0.00  0.00    +0.000 C 
ATOM      6  C   UNL     1       5.600   5.275  17.020  0.00  0.00    +0.000 A 
ATOM      7  C   UNL     1       5.239   4.404  15.982  0.00  0.00    +0.000 A 
ATOM      8  C   UNL     1       3.959   3.635  16.094  0.00  0.00    +0.000 C 
ATOM      9  O   UNL     1       3.513   3.589  17.441  0.00  0.00    +0.000 OA
ATOM     10  C   UNL     1       3.506   4.900  18.001  0.00  0.00    +0.000 C 
ATOM     11  O   UNL     1       4.834   5.423  18.147  0.00  0.00    +0.000 OA
ENDROOT
BRANCH  10  12
ATOM     12  C   UNL     1       2.791   4.841  19.381  0.00  0.00    +0.000 C 
ATOM     13  C   UNL     1       1.358   4.296  19.238  0.00  0.00    +0.000 C 
ATOM     14  C   UNL     1       3.571   3.934  20.350  0.00  0.00    +0.000 C 
ATOM     15  C   UNL     1       2.718   6.259  19.983  0.00  0.00    +0.000 C 
ENDBRANCH  10  12
BRANCH   1  17
ATOM     16  C   UNL     1       4.957   3.799  12.696  0.00  0.00    +0.000 C 
ATOM     17  C   UNL     1       5.718   3.411  13.734  0.00  0.00    +0.000 C 
BRANCH  16  19
ATOM     18  C   UNL     1       3.625   3.159  10.620  0.00  0.00    +0.000 C 
ATOM     19  C   UNL     1       4.791   2.880  11.533  0.00  0.00    +0.000 C 
ATOM     20  O   UNL     1       5.574   1.960  11.320  0.00  0.00    +0.000 OA
ENDBRANCH  16  19
ENDBRANCH   1  17
TORSDOF 3
ENDMDL
MODEL 7
REMARK VINA RESULT:      -6.7      1.449      1.801
REMARK  Name = 
REMARK  8 active torsions:
REMARK  status: ('A' for Active; 'I' for Inactive)
REMARK    1  A    between atoms: C_1  and  C_2
REMARK    2  A    between atoms: C_2  and  C_4
REMARK    3  A    between atoms: C_5  and  C_6
REMARK    4  A    between atoms: C_9  and  C_10
REMARK    5  A    between atoms: C_15  and  C_16
REMARK    6  A    between atoms: C_16  and  C_17
REMARK    7  A    between atoms: C_16  and  C_18
REMARK    8  A    between atoms: C_16  and  C_19
REMARK                            x       y       z     vdW  Elec       q    Type
REMARK                         _______ _______ _______ _____ _____    ______ ____
ROOT
ATOM      1  C   UNL     1       5.981   4.316  14.876  0.00  0.00    +0.000 A 
ATOM      2  C   UNL     1       7.177   5.029  14.832  0.00  0.00    +0.000 A 
ATOM      3  N   UNL     1       7.603   5.866  15.809  0.00  0.00    +0.000 NA
ATOM      4  C   UNL     1       6.800   6.024  16.892  0.00  0.00    +0.000 A 
ATOM      5  C   UNL     1       7.305   6.935  17.974  0.00  0.00    +0.000 C 
ATOM      6  C   UNL     1       5.566   5.383  17.011  0.00  0.00    +0.000 A 
ATOM      7  C   UNL     1       5.159   4.501  15.999  0.00  0.00    +0.000 A 
ATOM      8  C   UNL     1       3.835   3.814  16.126  0.00  0.00    +0.000 C 
ATOM      9  O   UNL     1       3.379   3.838  17.470  0.00  0.00    +0.000 OA
ATOM     10  C   UNL     1       3.447   5.166  17.986  0.00  0.00    +0.000 C 
ATOM     11  O   UNL     1       4.803   5.613  18.126  0.00  0.00    +0.000 OA
ENDROOT
BRANCH  10  12
ATOM     12  C   UNL     1       2.721   5.194  19.363  0.00  0.00    +0.000 C 
ATOM     13  C   UNL     1       2.394   6.638  19.785  0.00  0.00    +0.000 C 
ATOM     14  C   UNL     1       1.412   4.389  19.293  0.00  0.00    +0.000 C 
ATOM     15  C   UNL     1       3.632   4.564  20.436  0.00  0.00    +0.000 C 
ENDBRANCH  10  12
BRANCH   1  17
ATOM     16  C   UNL     1       5.087   3.842  12.620  0.00  0.00    +0.000 C 
ATOM     17  C   UNL     1       5.591   3.408  13.788  0.00  0.00    +0.000 C 
BRANCH  16  19
ATOM     18  C   UNL     1       5.926   1.807  11.336  0.00  0.00    +0.000 C 
ATOM     19  C   UNL     1       4.869   2.866  11.515  0.00  0.00    +0.000 C 
ATOM     20  O   UNL     1       3.870   2.910  10.803  0.00  0.00    +0.000 OA
ENDBRANCH  16  19
ENDBRANCH   1  17
TORSDOF 3
ENDMDL
MODEL 8
REMARK VINA RESULT:      -6.6      3.119      7.237
REMARK  Name = 
REMARK  8 active torsions:
REMARK  status: ('A' for Active; 'I' for Inactive)
REMARK    1  A    between atoms: C_1  and  C_2
REMARK    2  A    between atoms: C_2  and  C_4
REMARK    3  A    between atoms: C_5  and  C_6
REMARK    4  A    between atoms: C_9  and  C_10
REMARK    5  A    between atoms: C_15  and  C_16
REMARK    6  A    between atoms: C_16  and  C_17
REMARK    7  A    between atoms: C_16  and  C_18
REMARK    8  A    between atoms: C_16  and  C_19
REMARK                            x       y       z     vdW  Elec       q    Type
REMARK                         _______ _______ _______ _____ _____    ______ ____
ROOT
ATOM      1  C   UNL     1       2.328   6.262  19.970  0.00  0.00    +0.000 A 
ATOM      2  C   UNL     1       1.949   5.270  20.872  0.00  0.00    +0.000 A 
ATOM      3  N   UNL     1       2.454   4.011  20.880  0.00  0.00    +0.000 NA
ATOM      4  C   UNL     1       3.381   3.703  19.937  0.00  0.00    +0.000 A 
ATOM      5  C   UNL     1       3.946   2.313  19.983  0.00  0.00    +0.000 C 
ATOM      6  C   UNL     1       3.797   4.617  18.968  0.00  0.00    +0.000 A 
ATOM      7  C   UNL     1       3.280   5.920  18.996  0.00  0.00    +0.000 A 
ATOM      8  C   UNL     1       3.726   6.900  17.956  0.00  0.00    +0.000 C 
ATOM      9  O   UNL     1       4.937   6.477  17.348  0.00  0.00    +0.000 OA
ATOM     10  C   UNL     1       4.824   5.120  16.923  0.00  0.00    +0.000 C 
ATOM     11  O   UNL     1       4.721   4.221  18.035  0.00  0.00    +0.000 OA
ENDROOT
BRANCH  10  12
ATOM     12  C   UNL     1       6.068   4.773  16.056  0.00  0.00    +0.000 C 
ATOM     13  C   UNL     1       6.340   5.872  15.013  0.00  0.00    +0.000 C 
ATOM     14  C   UNL     1       7.314   4.617  16.947  0.00  0.00    +0.000 C 
ATOM     15  C   UNL     1       5.822   3.443  15.315  0.00  0.00    +0.000 C 
ENDBRANCH  10  12
BRANCH   1  17
ATOM     16  C   UNL     1       1.210   8.123  21.152  0.00  0.00    +0.000 C 
ATOM     17  C   UNL     1       1.753   7.612  20.033  0.00  0.00    +0.000 C 
BRANCH  16  19
ATOM     18  C   UNL     1      -0.190   9.982  20.113  0.00  0.00    +0.000 C 
ATOM     19  C   UNL     1       0.795   9.555  21.170  0.00  0.00    +0.000 C 
ATOM     20  O   UNL     1       1.217  10.338  22.016  0.00  0.00    +0.000 OA
ENDBRANCH  16  19
ENDBRANCH   1  17
TORSDOF 3
ENDMDL
MODEL 9
REMARK VINA RESULT:      -6.6      3.211      7.303
REMARK  Name = 
REMARK  8 active torsions:
REMARK  status: ('A' for Active; 'I' for Inactive)
REMARK    1  A    between atoms: C_1  and  C_2
REMARK    2  A    between atoms: C_2  and  C_4
REMARK    3  A    between atoms: C_5  and  C_6
REMARK    4  A    between atoms: C_9  and  C_10
REMARK    5  A    between atoms: C_15  and  C_16
REMARK    6  A    between atoms: C_16  and  C_17
REMARK    7  A    between atoms: C_16  and  C_18
REMARK    8  A    between atoms: C_16  and  C_19
REMARK                            x       y       z     vdW  Elec       q    Type
REMARK                         _______ _______ _______ _____ _____    ______ ____
ROOT
ATOM      1  C   UNL     1       2.269   6.419  19.991  0.00  0.00    +0.000 A 
ATOM      2  C   UNL     1       1.896   5.430  20.897  0.00  0.00    +0.000 A 
ATOM      3  N   UNL     1       2.367   4.158  20.877  0.00  0.00    +0.000 NA
ATOM      4  C   UNL     1       3.250   3.834  19.899  0.00  0.00    +0.000 A 
ATOM      5  C   UNL     1       3.779   2.429  19.912  0.00  0.00    +0.000 C 
ATOM      6  C   UNL     1       3.656   4.745  18.922  0.00  0.00    +0.000 A 
ATOM      7  C   UNL     1       3.175   6.061  18.980  0.00  0.00    +0.000 A 
ATOM      8  C   UNL     1       3.610   7.038  17.932  0.00  0.00    +0.000 C 
ATOM      9  O   UNL     1       4.786   6.588  17.277  0.00  0.00    +0.000 OA
ATOM     10  C   UNL     1       4.621   5.239  16.845  0.00  0.00    +0.000 C 
ATOM     11  O   UNL     1       4.534   4.333  17.953  0.00  0.00    +0.000 OA
ENDROOT
BRANCH  10  12
ATOM     12  C   UNL     1       5.824   4.866  15.931  0.00  0.00    +0.000 C 
ATOM     13  C   UNL     1       5.811   3.366  15.586  0.00  0.00    +0.000 C 
ATOM     14  C   UNL     1       5.773   5.675  14.623  0.00  0.00    +0.000 C 
ATOM     15  C   UNL     1       7.143   5.191  16.661  0.00  0.00    +0.000 C 
ENDBRANCH  10  12
BRANCH   1  17
ATOM     16  C   UNL     1       1.077   8.237  21.168  0.00  0.00    +0.000 C 
ATOM     17  C   UNL     1       1.734   7.784  20.086  0.00  0.00    +0.000 C 
BRANCH  16  19
ATOM     18  C   UNL     1      -0.040  10.243  20.063  0.00  0.00    +0.000 C 
ATOM     19  C   UNL     1       0.708   9.680  21.243  0.00  0.00    +0.000 C 
ATOM     20  O   UNL     1       0.980  10.365  22.225  0.00  0.00    +0.000 OA
ENDBRANCH  16  19
ENDBRANCH   1  17
TORSDOF 3
ENDMDL
