MODEL 1
REMARK VINA RESULT:      -7.3      0.000      0.000
REMARK  Name = 
REMARK  4 active torsions:
REMARK  status: ('A' for Active; 'I' for Inactive)
REMARK    1  A    between atoms: C_1  and  N_2
REMARK    2  A    between atoms: N_2  and  C_3
REMARK    3  A    between atoms: C_8  and  C_9
REMARK    4  A    between atoms: C_14  and  C_15
REMARK                            x       y       z     vdW  Elec       q    Type
REMARK                         _______ _______ _______ _____ _____    ______ ____
ROOT
ATOM      1  C   UNL     1       3.755   3.928  17.267  0.00  0.00    +0.000 A 
ATOM      2  C   UNL     1       3.321   2.581  17.339  0.00  0.00    +0.000 A 
ATOM      3  C   UNL     1       2.173   2.190  18.036  0.00  0.00    +0.000 A 
ATOM      4  C   UNL     1       1.383   3.144  18.651  0.00  0.00    +0.000 A 
ATOM      5  C   UNL     1       1.750   4.481  18.570  0.00  0.00    +0.000 A 
ATOM      6  C   UNL     1       2.934   4.896  17.905  0.00  0.00    +0.000 A 
ENDROOT
BRANCH   1  12
ATOM      7  C   UNL     1       6.277   4.434  17.194  0.00  0.00    +0.000 A 
ATOM      8  N   UNL     1       7.397   4.766  16.512  0.00  0.00    +0.000 NA
ATOM      9  C   UNL     1       7.294   4.886  15.182  0.00  0.00    +0.000 A 
ATOM     10  N   UNL     1       6.205   4.638  14.462  0.00  0.00    +0.000 NA
ATOM     11  C   UNL     1       5.109   4.293  15.171  0.00  0.00    +0.000 A 
ATOM     12  C   UNL     1       5.037   4.229  16.561  0.00  0.00    +0.000 A 
BRANCH   7  14
ATOM     13  C   UNL     1       6.739   5.426  19.364  0.00  0.00    +0.000 C 
ATOM     14  N   UNL     1       6.406   4.244  18.584  0.00  0.00    +0.000 N 
ATOM     15  H   UNL     1       5.597   3.747  18.943  0.00  0.00    +0.000 HD
ENDBRANCH   7  14
ENDBRANCH   1  12
BRANCH   6  16
ATOM     16  C   UNL     1       3.178   6.394  17.936  0.00  0.00    +0.000 C 
ATOM     17  F   UNL     1       4.007   6.880  16.979  0.00  0.00    +0.000 F 
ATOM     18  F   UNL     1       2.014   7.093  17.818  0.00  0.00    +0.000 F 
ATOM     19  F   UNL     1       3.729   6.802  19.118  0.00  0.00    +0.000 F 
ENDBRANCH   6  16
TORSDOF 3
ENDMDL
MODEL 2
REMARK VINA RESULT:      -7.2      0.906      2.280
REMARK  Name = 
REMARK  4 active torsions:
REMARK  status: ('A' for Active; 'I' for Inactive)
REMARK    1  A    between atoms: C_1  and  N_2
REMARK    2  A    between atoms: N_2  and  C_3
REMARK    3  A    between atoms: C_8  and  C_9
REMARK    4  A    between atoms: C_14  and  C_15
REMARK                            x       y       z     vdW  Elec       q    Type
REMARK                         _______ _______ _______ _____ _____    ______ ____
ROOT
ATOM      1  C   UNL     1       3.945   4.076  18.127  0.00  0.00    +0.000 A 
ATOM      2  C   UNL     1       3.660   2.688  18.138  0.00  0.00    +0.000 A 
ATOM      3  C   UNL     1       2.356   2.182  18.161  0.00  0.00    +0.000 A 
ATOM      4  C   UNL     1       1.280   3.050  18.125  0.00  0.00    +0.000 A 
ATOM      5  C   UNL     1       1.516   4.418  18.071  0.00  0.00    +0.000 A 
ATOM      6  C   UNL     1       2.830   4.955  18.090  0.00  0.00    +0.000 A 
ENDROOT
BRANCH   1  12
ATOM      7  C   UNL     1       6.273   4.458  17.098  0.00  0.00    +0.000 A 
ATOM      8  N   UNL     1       7.575   4.808  17.215  0.00  0.00    +0.000 NA
ATOM      9  C   UNL     1       7.992   5.228  18.416  0.00  0.00    +0.000 A 
ATOM     10  N   UNL     1       7.226   5.402  19.488  0.00  0.00    +0.000 NA
ATOM     11  C   UNL     1       5.929   5.060  19.333  0.00  0.00    +0.000 A 
ATOM     12  C   UNL     1       5.373   4.512  18.179  0.00  0.00    +0.000 A 
BRANCH   7  14
ATOM     13  C   UNL     1       6.672   4.466  14.701  0.00  0.00    +0.000 C 
ATOM     14  N   UNL     1       5.824   4.080  15.817  0.00  0.00    +0.000 N 
ATOM     15  H   UNL     1       5.584   3.093  15.811  0.00  0.00    +0.000 HD
ENDBRANCH   7  14
ENDBRANCH   1  12
BRANCH   6  16
ATOM     16  C   UNL     1       2.888   6.471  18.044  0.00  0.00    +0.000 C 
ATOM     17  F   UNL     1       3.808   7.004  17.201  0.00  0.00    +0.000 F 
ATOM     18  F   UNL     1       1.688   7.007  17.680  0.00  0.00    +0.000 F 
ATOM     19  F   UNL     1       3.174   7.014  19.264  0.00  0.00    +0.000 F 
ENDBRANCH   6  16
TORSDOF 3
ENDMDL
MODEL 3
REMARK VINA RESULT:      -7.1      2.319      2.995
REMARK  Name = 
REMARK  4 active torsions:
REMARK  status: ('A' for Active; 'I' for Inactive)
REMARK    1  A    between atoms: C_1  and  N_2
REMARK    2  A    between atoms: N_2  and  C_3
REMARK    3  A    between atoms: C_8  and  C_9
REMARK    4  A    between atoms: C_14  and  C_15
REMARK                            x       y       z     vdW  Elec       q    Type
REMARK                         _______ _______ _______ _____ _____    ______ ____
ROOT
ATOM      1  C   UNL     1       3.993   5.012  18.343  0.00  0.00    +0.000 A 
ATOM      2  C   UNL     1       3.588   6.344  18.605  0.00  0.00    +0.000 A 
ATOM      3  C   UNL     1       2.536   6.660  19.471  0.00  0.00    +0.000 A 
ATOM      4  C   UNL     1       1.877   5.651  20.151  0.00  0.00    +0.000 A 
ATOM      5  C   UNL     1       2.271   4.333  19.955  0.00  0.00    +0.000 A 
ATOM      6  C   UNL     1       3.307   3.986  19.047  0.00  0.00    +0.000 A 
ENDROOT
BRANCH   1  12
ATOM      7  C   UNL     1       6.451   4.706  17.644  0.00  0.00    +0.000 A 
ATOM      8  N   UNL     1       7.400   4.556  16.691  0.00  0.00    +0.000 NA
ATOM      9  C   UNL     1       6.985   4.464  15.421  0.00  0.00    +0.000 A 
ATOM     10  N   UNL     1       5.720   4.435  15.017  0.00  0.00    +0.000 NA
ATOM     11  C   UNL     1       4.798   4.571  15.993  0.00  0.00    +0.000 A 
ATOM     12  C   UNL     1       5.078   4.779  17.342  0.00  0.00    +0.000 A 
BRANCH   7  14
ATOM     13  C   UNL     1       7.828   5.790  19.327  0.00  0.00    +0.000 C 
ATOM     14  N   UNL     1       6.888   4.736  18.983  0.00  0.00    +0.000 N 
ATOM     15  H   UNL     1       6.089   4.696  19.609  0.00  0.00    +0.000 HD
ENDBRANCH   7  14
ENDBRANCH   1  12
BRANCH   6  16
ATOM     16  C   UNL     1       3.584   2.497  18.953  0.00  0.00    +0.000 C 
ATOM     17  F   UNL     1       3.696   1.993  17.699  0.00  0.00    +0.000 F 
ATOM     18  F   UNL     1       4.736   2.161  19.599  0.00  0.00    +0.000 F 
ATOM     19  F   UNL     1       2.604   1.751  19.544  0.00  0.00    +0.000 F 
ENDBRANCH   6  16
TORSDOF 3
ENDMDL
MODEL 4
REMARK VINA RESULT:      -7.1      2.432      3.077
REMARK  Name = 
REMARK  4 active torsions:
REMARK  status: ('A' for Active; 'I' for Inactive)
REMARK    1  A    between atoms: C_1  and  N_2
REMARK    2  A    between atoms: N_2  and  C_3
REMARK    3  A    between atoms: C_8  and  C_9
REMARK    4  A    between atoms: C_14  and  C_15
REMARK                            x       y       z     vdW  Elec       q    Type
REMARK                         _______ _______ _______ _____ _____    ______ ____
ROOT
ATOM      1  C   UNL     1       4.291   6.046  17.618  0.00  0.00    +0.000 A 
ATOM      2  C   UNL     1       3.710   7.328  17.460  0.00  0.00    +0.000 A 
ATOM      3  C   UNL     1       2.703   7.813  18.301  0.00  0.00    +0.000 A 
ATOM      4  C   UNL     1       2.270   7.048  19.369  0.00  0.00    +0.000 A 
ATOM      5  C   UNL     1       2.844   5.801  19.584  0.00  0.00    +0.000 A 
ATOM      6  C   UNL     1       3.836   5.271  18.718  0.00  0.00    +0.000 A 
ENDROOT
BRANCH   1  12
ATOM      7  C   UNL     1       6.681   5.894  16.674  0.00  0.00    +0.000 A 
ATOM      8  N   UNL     1       7.549   5.511  15.709  0.00  0.00    +0.000 NA
ATOM      9  C   UNL     1       7.055   4.813  14.679  0.00  0.00    +0.000 A 
ATOM     10  N   UNL     1       5.799   4.397  14.554  0.00  0.00    +0.000 NA
ATOM     11  C   UNL     1       4.962   4.780  15.541  0.00  0.00    +0.000 A 
ATOM     12  C   UNL     1       5.307   5.594  16.619  0.00  0.00    +0.000 A 
BRANCH   7  14
ATOM     13  C   UNL     1       7.699   7.921  17.544  0.00  0.00    +0.000 C 
ATOM     14  N   UNL     1       7.217   6.571  17.787  0.00  0.00    +0.000 N 
ATOM     15  H   UNL     1       6.574   6.514  18.571  0.00  0.00    +0.000 HD
ENDBRANCH   7  14
ENDBRANCH   1  12
BRANCH   6  16
ATOM     16  C   UNL     1       4.330   3.888  19.103  0.00  0.00    +0.000 C 
ATOM     17  F   UNL     1       4.132   2.911  18.185  0.00  0.00    +0.000 F 
ATOM     18  F   UNL     1       5.667   3.891  19.368  0.00  0.00    +0.000 F 
ATOM     19  F   UNL     1       3.734   3.426  20.242  0.00  0.00    +0.000 F 
ENDBRANCH   6  16
TORSDOF 3
ENDMDL
MODEL 5
REMARK VINA RESULT:      -6.9      2.332      3.011
REMARK  Name = 
REMARK  4 active torsions:
REMARK  status: ('A' for Active; 'I' for Inactive)
REMARK    1  A    between atoms: C_1  and  N_2
REMARK    2  A    between atoms: N_2  and  C_3
REMARK    3  A    between atoms: C_8  and  C_9
REMARK    4  A    between atoms: C_14  and  C_15
REMARK                            x       y       z     vdW  Elec       q    Type
REMARK                         _______ _______ _______ _____ _____    ______ ____
ROOT
ATOM      1  C   UNL     1       4.245   6.031  17.637  0.00  0.00    +0.000 A 
ATOM      2  C   UNL     1       3.697   7.329  17.485  0.00  0.00    +0.000 A 
ATOM      3  C   UNL     1       2.682   7.825  18.310  0.00  0.00    +0.000 A 
ATOM      4  C   UNL     1       2.208   7.055  19.356  0.00  0.00    +0.000 A 
ATOM      5  C   UNL     1       2.747   5.792  19.566  0.00  0.00    +0.000 A 
ATOM      6  C   UNL     1       3.747   5.251  18.715  0.00  0.00    +0.000 A 
ENDROOT
BRANCH   1  12
ATOM      7  C   UNL     1       6.621   5.975  16.649  0.00  0.00    +0.000 A 
ATOM      8  N   UNL     1       7.497   5.575  15.699  0.00  0.00    +0.000 NA
ATOM      9  C   UNL     1       7.038   4.754  14.746  0.00  0.00    +0.000 A 
ATOM     10  N   UNL     1       5.816   4.237  14.689  0.00  0.00    +0.000 NA
ATOM     11  C   UNL     1       4.970   4.642  15.660  0.00  0.00    +0.000 A 
ATOM     12  C   UNL     1       5.273   5.570  16.655  0.00  0.00    +0.000 A 
BRANCH   7  14
ATOM     13  C   UNL     1       7.787   6.089  18.777  0.00  0.00    +0.000 C 
ATOM     14  N   UNL     1       7.125   6.785  17.686  0.00  0.00    +0.000 N 
ATOM     15  H   UNL     1       7.685   7.537  17.296  0.00  0.00    +0.000 HD
ENDBRANCH   7  14
ENDBRANCH   1  12
BRANCH   6  16
ATOM     16  C   UNL     1       4.200   3.852  19.091  0.00  0.00    +0.000 C 
ATOM     17  F   UNL     1       3.733   3.374  20.270  0.00  0.00    +0.000 F 
ATOM     18  F   UNL     1       3.840   2.939  18.144  0.00  0.00    +0.000 F 
ATOM     19  F   UNL     1       5.559   3.759  19.188  0.00  0.00    +0.000 F 
ENDBRANCH   6  16
TORSDOF 3
ENDMDL
MODEL 6
REMARK VINA RESULT:      -6.9      1.666      1.777
REMARK  Name = 
REMARK  4 active torsions:
REMARK  status: ('A' for Active; 'I' for Inactive)
REMARK    1  A    between atoms: C_1  and  N_2
REMARK    2  A    between atoms: N_2  and  C_3
REMARK    3  A    between atoms: C_8  and  C_9
REMARK    4  A    between atoms: C_14  and  C_15
REMARK                            x       y       z     vdW  Elec       q    Type
REMARK                         _______ _______ _______ _____ _____    ______ ____
ROOT
ATOM      1  C   UNL     1       3.844   4.038  19.162  0.00  0.00    +0.000 A 
ATOM      2  C   UNL     1       3.811   2.857  19.945  0.00  0.00    +0.000 A 
ATOM      3  C   UNL     1       2.959   2.698  21.042  0.00  0.00    +0.000 A 
ATOM      4  C   UNL     1       2.067   3.702  21.372  0.00  0.00    +0.000 A 
ATOM      5  C   UNL     1       2.037   4.860  20.605  0.00  0.00    +0.000 A 
ATOM      6  C   UNL     1       2.922   5.061  19.514  0.00  0.00    +0.000 A 
ENDROOT
BRANCH   1  12
ATOM      7  C   UNL     1       6.147   4.653  18.193  0.00  0.00    +0.000 A 
ATOM      8  N   UNL     1       6.994   4.776  17.145  0.00  0.00    +0.000 NA
ATOM      9  C   UNL     1       6.553   4.372  15.947  0.00  0.00    +0.000 A 
ATOM     10  N   UNL     1       5.382   3.792  15.706  0.00  0.00    +0.000 NA
ATOM     11  C   UNL     1       4.567   3.668  16.774  0.00  0.00    +0.000 A 
ATOM     12  C   UNL     1       4.845   4.135  18.057  0.00  0.00    +0.000 A 
BRANCH   7  14
ATOM     13  C   UNL     1       7.889   5.760  19.474  0.00  0.00    +0.000 C 
ATOM     14  N   UNL     1       6.639   5.018  19.462  0.00  0.00    +0.000 N 
ATOM     15  H   UNL     1       5.906   5.465  20.002  0.00  0.00    +0.000 HD
ENDBRANCH   7  14
ENDBRANCH   1  12
BRANCH   6  16
ATOM     16  C   UNL     1       2.755   6.394  18.808  0.00  0.00    +0.000 C 
ATOM     17  F   UNL     1       3.898   6.994  18.394  0.00  0.00    +0.000 F 
ATOM     18  F   UNL     1       1.968   6.277  17.700  0.00  0.00    +0.000 F 
ATOM     19  F   UNL     1       2.137   7.322  19.597  0.00  0.00    +0.000 F 
ENDBRANCH   6  16
TORSDOF 3
ENDMDL
MODEL 7
REMARK VINA RESULT:      -6.9      2.729      4.849
REMARK  Name = 
REMARK  4 active torsions:
REMARK  status: ('A' for Active; 'I' for Inactive)
REMARK    1  A    between atoms: C_1  and  N_2
REMARK    2  A    between atoms: N_2  and  C_3
REMARK    3  A    between atoms: C_8  and  C_9
REMARK    4  A    between atoms: C_14  and  C_15
REMARK                            x       y       z     vdW  Elec       q    Type
REMARK                         _______ _______ _______ _____ _____    ______ ____
ROOT
ATOM      1  C   UNL     1       5.150   4.764  17.257  0.00  0.00    +0.000 A 
ATOM      2  C   UNL     1       4.677   4.337  15.992  0.00  0.00    +0.000 A 
ATOM      3  C   UNL     1       5.497   4.260  14.862  0.00  0.00    +0.000 A 
ATOM      4  C   UNL     1       6.843   4.563  14.966  0.00  0.00    +0.000 A 
ATOM      5  C   UNL     1       7.357   4.946  16.199  0.00  0.00    +0.000 A 
ATOM      6  C   UNL     1       6.534   5.072  17.349  0.00  0.00    +0.000 A 
ENDROOT
BRANCH   1  12
ATOM      7  C   UNL     1       3.786   3.826  19.228  0.00  0.00    +0.000 A 
ATOM      8  N   UNL     1       2.849   3.973  20.194  0.00  0.00    +0.000 NA
ATOM      9  C   UNL     1       2.295   5.184  20.334  0.00  0.00    +0.000 A 
ATOM     10  N   UNL     1       2.635   6.276  19.658  0.00  0.00    +0.000 NA
ATOM     11  C   UNL     1       3.583   6.100  18.713  0.00  0.00    +0.000 A 
ATOM     12  C   UNL     1       4.173   4.883  18.382  0.00  0.00    +0.000 A 
BRANCH   7  14
ATOM     13  C   UNL     1       3.633   1.513  18.499  0.00  0.00    +0.000 C 
ATOM     14  N   UNL     1       4.412   2.568  19.128  0.00  0.00    +0.000 N 
ATOM     15  H   UNL     1       5.338   2.673  18.725  0.00  0.00    +0.000 HD
ENDBRANCH   7  14
ENDBRANCH   1  12
BRANCH   6  16
ATOM     16  C   UNL     1       7.269   5.519  18.599  0.00  0.00    +0.000 C 
ATOM     17  F   UNL     1       6.592   5.381  19.766  0.00  0.00    +0.000 F 
ATOM     18  F   UNL     1       8.440   4.841  18.760  0.00  0.00    +0.000 F 
ATOM     19  F   UNL     1       7.616   6.839  18.550  0.00  0.00    +0.000 F 
ENDBRANCH   6  16
TORSDOF 3
ENDMDL
MODEL 8
REMARK VINA RESULT:      -6.9      2.643      4.737
REMARK  Name = 
REMARK  4 active torsions:
REMARK  status: ('A' for Active; 'I' for Inactive)
REMARK    1  A    between atoms: C_1  and  N_2
REMARK    2  A    between atoms: N_2  and  C_3
REMARK    3  A    between atoms: C_8  and  C_9
REMARK    4  A    between atoms: C_14  and  C_15
REMARK                            x       y       z     vdW  Elec       q    Type
REMARK                         _______ _______ _______ _____ _____    ______ ____
ROOT
ATOM      1  C   UNL     1       5.328   5.003  18.072  0.00  0.00    +0.000 A 
ATOM      2  C   UNL     1       5.954   5.166  19.332  0.00  0.00    +0.000 A 
ATOM      3  C   UNL     1       7.216   5.750  19.481  0.00  0.00    +0.000 A 
ATOM      4  C   UNL     1       7.884   6.241  18.374  0.00  0.00    +0.000 A 
ATOM      5  C   UNL     1       7.286   6.139  17.123  0.00  0.00    +0.000 A 
ATOM      6  C   UNL     1       6.026   5.511  16.943  0.00  0.00    +0.000 A 
ENDROOT
BRANCH   1  12
ATOM      7  C   UNL     1       2.755   4.930  18.067  0.00  0.00    +0.000 A 
ATOM      8  N   UNL     1       1.592   4.240  18.074  0.00  0.00    +0.000 NA
ATOM      9  C   UNL     1       1.670   2.904  18.015  0.00  0.00    +0.000 A 
ATOM     10  N   UNL     1       2.786   2.196  17.878  0.00  0.00    +0.000 NA
ATOM     11  C   UNL     1       3.928   2.916  17.858  0.00  0.00    +0.000 A 
ATOM     12  C   UNL     1       4.012   4.298  18.014  0.00  0.00    +0.000 A 
BRANCH   7  14
ATOM     13  C   UNL     1       2.446   6.969  19.353  0.00  0.00    +0.000 C 
ATOM     14  N   UNL     1       2.666   6.336  18.062  0.00  0.00    +0.000 N 
ATOM     15  H   UNL     1       3.451   6.732  17.554  0.00  0.00    +0.000 HD
ENDBRANCH   7  14
ENDBRANCH   1  12
BRANCH   6  16
ATOM     16  C   UNL     1       5.543   5.478  15.504  0.00  0.00    +0.000 C 
ATOM     17  F   UNL     1       4.737   4.439  15.173  0.00  0.00    +0.000 F 
ATOM     18  F   UNL     1       4.852   6.608  15.182  0.00  0.00    +0.000 F 
ATOM     19  F   UNL     1       6.577   5.417  14.614  0.00  0.00    +0.000 F 
ENDBRANCH   6  16
TORSDOF 3
ENDMDL
