MODEL 1
REMARK VINA RESULT:      -8.3      0.000      0.000
REMARK  Name = 
REMARK  6 active torsions:
REMARK  status: ('A' for Active; 'I' for Inactive)
REMARK    1  A    between atoms: C_1  and  C_2
REMARK    2  A    between atoms: C_9  and  C_10
REMARK    3  A    between atoms: C_10  and  N_11
REMARK    4  A    between atoms: N_11  and  S_12
REMARK    5  A    between atoms: S_12  and  C_15
REMARK    6  A    between atoms: C_20  and  C_21
REMARK                            x       y       z     vdW  Elec       q    Type
REMARK                         _______ _______ _______ _____ _____    ______ ____
ROOT
ATOM      1  N   UNL     1       3.758   6.706  18.769  0.00  0.00    +0.000 NA
ATOM      2  H   UNL     1       3.737   6.786  19.787  0.00  0.00    +0.000 HD
ENDROOT
BRANCH   1   3
ATOM      3  S   UNL     1       4.011   5.100  18.309  0.00  0.00    +0.000 S 
ATOM      4  O   UNL     1       3.345   4.948  17.038  0.00  0.00    +0.000 OA
ATOM      5  O   UNL     1       5.419   4.821  18.499  0.00  0.00    +0.000 OA
BRANCH   3   6
ATOM      6  C   UNL     1       3.109   4.111  19.480  0.00  0.00    +0.000 A 
ATOM      7  C   UNL     1       2.642   4.713  20.662  0.00  0.00    +0.000 A 
ATOM      8  C   UNL     1       1.998   3.952  21.637  0.00  0.00    +0.000 A 
ATOM      9  C   UNL     1       1.792   2.594  21.431  0.00  0.00    +0.000 A 
ATOM     10  C   UNL     1       2.230   1.997  20.250  0.00  0.00    +0.000 A 
ATOM     11  C   UNL     1       2.902   2.739  19.254  0.00  0.00    +0.000 A 
BRANCH  11  12
ATOM     12  C   UNL     1       3.358   1.970  18.031  0.00  0.00    +0.000 C 
ATOM     13  F   UNL     1       4.433   2.450  17.367  0.00  0.00    +0.000 F 
ATOM     14  F   UNL     1       3.658   0.677  18.342  0.00  0.00    +0.000 F 
ATOM     15  F   UNL     1       2.366   1.891  17.096  0.00  0.00    +0.000 F 
ENDBRANCH  11  12
ENDBRANCH   3   6
ENDBRANCH   1   3
BRANCH   1  16
ATOM     16  C   UNL     1       2.708   7.420  18.038  0.00  0.00    +0.000 C 
BRANCH  16  25
ATOM     17  C   UNL     1      -1.604  12.260  22.914  0.00  0.00    +0.000 C 
ATOM     18  C   UNL     1      -0.700  11.104  22.544  0.00  0.00    +0.000 C 
ATOM     19  O   UNL     1      -0.243  10.379  23.428  0.00  0.00    +0.000 OA
ATOM     20  N   UNL     1      -0.472  10.948  21.189  0.00  0.00    +0.000 N 
ATOM     21  C   UNL     1      -0.905  11.889  20.142  0.00  0.00    +0.000 C 
ATOM     22  C   UNL     1      -0.505  11.294  18.791  0.00  0.00    +0.000 C 
ATOM     23  C   UNL     1       0.364  10.152  19.207  0.00  0.00    +0.000 A 
ATOM     24  C   UNL     1       1.109   9.331  18.374  0.00  0.00    +0.000 A 
ATOM     25  C   UNL     1       1.826   8.262  18.933  0.00  0.00    +0.000 A 
ATOM     26  C   UNL     1       1.744   8.037  20.324  0.00  0.00    +0.000 A 
ATOM     27  C   UNL     1       0.988   8.882  21.156  0.00  0.00    +0.000 A 
ATOM     28  C   UNL     1       0.315   9.949  20.584  0.00  0.00    +0.000 A 
ENDBRANCH  16  25
ENDBRANCH   1  16
TORSDOF 5
ENDMDL
MODEL 2
REMARK VINA RESULT:      -8.2      1.904      2.906
REMARK  Name = 
REMARK  6 active torsions:
REMARK  status: ('A' for Active; 'I' for Inactive)
REMARK    1  A    between atoms: C_1  and  C_2
REMARK    2  A    between atoms: C_9  and  C_10
REMARK    3  A    between atoms: C_10  and  N_11
REMARK    4  A    between atoms: N_11  and  S_12
REMARK    5  A    between atoms: S_12  and  C_15
REMARK    6  A    between atoms: C_20  and  C_21
REMARK                            x       y       z     vdW  Elec       q    Type
REMARK                         _______ _______ _______ _____ _____    ______ ____
ROOT
ATOM      1  N   UNL     1       3.402   7.517  18.239  0.00  0.00    +0.000 NA
ATOM      2  H   UNL     1       3.778   7.909  19.103  0.00  0.00    +0.000 HD
ENDROOT
BRANCH   1   3
ATOM      3  S   UNL     1       3.247   5.839  18.369  0.00  0.00    +0.000 S 
ATOM      4  O   UNL     1       3.788   5.496  19.662  0.00  0.00    +0.000 OA
ATOM      5  O   UNL     1       1.897   5.505  17.965  0.00  0.00    +0.000 OA
BRANCH   3   6
ATOM      6  C   UNL     1       4.351   5.155  17.154  0.00  0.00    +0.000 A 
ATOM      7  C   UNL     1       5.072   6.027  16.320  0.00  0.00    +0.000 A 
ATOM      8  C   UNL     1       5.887   5.526  15.307  0.00  0.00    +0.000 A 
ATOM      9  C   UNL     1       6.012   4.153  15.134  0.00  0.00    +0.000 A 
ATOM     10  C   UNL     1       5.320   3.283  15.975  0.00  0.00    +0.000 A 
ATOM     11  C   UNL     1       4.471   3.762  16.997  0.00  0.00    +0.000 A 
BRANCH  11  12
ATOM     12  C   UNL     1       3.749   2.717  17.822  0.00  0.00    +0.000 C 
ATOM     13  F   UNL     1       3.995   1.421  17.526  0.00  0.00    +0.000 F 
ATOM     14  F   UNL     1       4.027   2.857  19.149  0.00  0.00    +0.000 F 
ATOM     15  F   UNL     1       2.395   2.856  17.724  0.00  0.00    +0.000 F 
ENDBRANCH  11  12
ENDBRANCH   3   6
ENDBRANCH   1   3
BRANCH   1  16
ATOM     16  C   UNL     1       2.258   8.218  17.650  0.00  0.00    +0.000 C 
BRANCH  16  25
ATOM     17  C   UNL     1      -2.050  12.252  23.214  0.00  0.00    +0.000 C 
ATOM     18  C   UNL     1      -1.056  11.240  22.687  0.00  0.00    +0.000 C 
ATOM     19  O   UNL     1      -0.416  10.545  23.477  0.00  0.00    +0.000 OA
ATOM     20  N   UNL     1      -0.964  11.171  21.310  0.00  0.00    +0.000 N 
ATOM     21  C   UNL     1      -1.625  12.090  20.368  0.00  0.00    +0.000 C 
ATOM     22  C   UNL     1      -1.308  11.608  18.952  0.00  0.00    +0.000 C 
ATOM     23  C   UNL     1      -0.262  10.573  19.209  0.00  0.00    +0.000 A 
ATOM     24  C   UNL     1       0.481   9.891  18.258  0.00  0.00    +0.000 A 
ATOM     25  C   UNL     1       1.383   8.901  18.678  0.00  0.00    +0.000 A 
ATOM     26  C   UNL     1       1.486   8.610  20.055  0.00  0.00    +0.000 A 
ATOM     27  C   UNL     1       0.729   9.315  21.008  0.00  0.00    +0.000 A 
ATOM     28  C   UNL     1      -0.131  10.308  20.570  0.00  0.00    +0.000 A 
ENDBRANCH  16  25
ENDBRANCH   1  16
TORSDOF 5
ENDMDL
MODEL 3
REMARK VINA RESULT:      -8.2      2.112      3.406
REMARK  Name = 
REMARK  6 active torsions:
REMARK  status: ('A' for Active; 'I' for Inactive)
REMARK    1  A    between atoms: C_1  and  C_2
REMARK    2  A    between atoms: C_9  and  C_10
REMARK    3  A    between atoms: C_10  and  N_11
REMARK    4  A    between atoms: N_11  and  S_12
REMARK    5  A    between atoms: S_12  and  C_15
REMARK    6  A    between atoms: C_20  and  C_21
REMARK                            x       y       z     vdW  Elec       q    Type
REMARK                         _______ _______ _______ _____ _____    ______ ____
ROOT
ATOM      1  N   UNL     1       3.044   7.828  18.305  0.00  0.00    +0.000 NA
ATOM      2  H   UNL     1       3.456   8.235  19.146  0.00  0.00    +0.000 HD
ENDROOT
BRANCH   1   3
ATOM      3  S   UNL     1       2.955   6.146  18.445  0.00  0.00    +0.000 S 
ATOM      4  O   UNL     1       3.467   5.836  19.758  0.00  0.00    +0.000 OA
ATOM      5  O   UNL     1       1.635   5.753  17.999  0.00  0.00    +0.000 OA
BRANCH   3   6
ATOM      6  C   UNL     1       4.127   5.500  17.273  0.00  0.00    +0.000 A 
ATOM      7  C   UNL     1       4.908   6.398  16.524  0.00  0.00    +0.000 A 
ATOM      8  C   UNL     1       5.780   5.930  15.543  0.00  0.00    +0.000 A 
ATOM      9  C   UNL     1       5.903   4.564  15.320  0.00  0.00    +0.000 A 
ATOM     10  C   UNL     1       5.151   3.668  16.078  0.00  0.00    +0.000 A 
ATOM     11  C   UNL     1       4.244   4.114  17.064  0.00  0.00    +0.000 A 
BRANCH  11  12
ATOM     12  C   UNL     1       3.461   3.045  17.797  0.00  0.00    +0.000 C 
ATOM     13  F   UNL     1       3.461   3.098  19.148  0.00  0.00    +0.000 F 
ATOM     14  F   UNL     1       2.150   3.047  17.423  0.00  0.00    +0.000 F 
ATOM     15  F   UNL     1       3.918   1.796  17.488  0.00  0.00    +0.000 F 
ENDBRANCH  11  12
ENDBRANCH   3   6
ENDBRANCH   1   3
BRANCH   1  16
ATOM     16  C   UNL     1       1.845   8.488  17.784  0.00  0.00    +0.000 C 
BRANCH  16  25
ATOM     17  C   UNL     1      -2.575  12.418  23.335  0.00  0.00    +0.000 C 
ATOM     18  C   UNL     1      -2.031  12.097  21.960  0.00  0.00    +0.000 C 
ATOM     19  O   UNL     1      -2.436  12.726  20.981  0.00  0.00    +0.000 OA
ATOM     20  N   UNL     1      -1.076  11.099  21.924  0.00  0.00    +0.000 N 
ATOM     21  C   UNL     1      -0.688  10.256  23.068  0.00  0.00    +0.000 C 
ATOM     22  C   UNL     1       0.444   9.337  22.602  0.00  0.00    +0.000 C 
ATOM     23  C   UNL     1       0.437   9.569  21.126  0.00  0.00    +0.000 A 
ATOM     24  C   UNL     1       1.185   8.891  20.176  0.00  0.00    +0.000 A 
ATOM     25  C   UNL     1       1.098   9.284  18.831  0.00  0.00    +0.000 A 
ATOM     26  C   UNL     1       0.273  10.376  18.490  0.00  0.00    +0.000 A 
ATOM     27  C   UNL     1      -0.484  11.051  19.465  0.00  0.00    +0.000 A 
ATOM     28  C   UNL     1      -0.404  10.624  20.780  0.00  0.00    +0.000 A 
ENDBRANCH  16  25
ENDBRANCH   1  16
TORSDOF 5
ENDMDL
MODEL 4
REMARK VINA RESULT:      -8.2      5.040      8.819
REMARK  Name = 
REMARK  6 active torsions:
REMARK  status: ('A' for Active; 'I' for Inactive)
REMARK    1  A    between atoms: C_1  and  C_2
REMARK    2  A    between atoms: C_9  and  C_10
REMARK    3  A    between atoms: C_10  and  N_11
REMARK    4  A    between atoms: N_11  and  S_12
REMARK    5  A    between atoms: S_12  and  C_15
REMARK    6  A    between atoms: C_20  and  C_21
REMARK                            x       y       z     vdW  Elec       q    Type
REMARK                         _______ _______ _______ _____ _____    ______ ____
ROOT
ATOM      1  N   UNL     1       0.649   9.657  17.702  0.00  0.00    +0.000 NA
ATOM      2  H   UNL     1       0.163   8.772  17.551  0.00  0.00    +0.000 HD
ENDROOT
BRANCH   1   3
ATOM      3  S   UNL     1      -0.231  10.642  18.756  0.00  0.00    +0.000 S 
ATOM      4  O   UNL     1      -0.374   9.882  19.974  0.00  0.00    +0.000 OA
ATOM      5  O   UNL     1       0.374  11.957  18.712  0.00  0.00    +0.000 OA
BRANCH   3   6
ATOM      6  C   UNL     1      -1.856  10.780  18.046  0.00  0.00    +0.000 A 
ATOM      7  C   UNL     1      -2.156  10.052  16.882  0.00  0.00    +0.000 A 
ATOM      8  C   UNL     1      -3.393  10.195  16.255  0.00  0.00    +0.000 A 
ATOM      9  C   UNL     1      -4.350  11.043  16.798  0.00  0.00    +0.000 A 
ATOM     10  C   UNL     1      -4.068  11.748  17.967  0.00  0.00    +0.000 A 
ATOM     11  C   UNL     1      -2.817  11.639  18.612  0.00  0.00    +0.000 A 
BRANCH  11  12
ATOM     12  C   UNL     1      -2.620  12.480  19.856  0.00  0.00    +0.000 C 
ATOM     13  F   UNL     1      -2.139  11.855  20.953  0.00  0.00    +0.000 F 
ATOM     14  F   UNL     1      -1.775  13.523  19.619  0.00  0.00    +0.000 F 
ATOM     15  F   UNL     1      -3.792  13.055  20.256  0.00  0.00    +0.000 F 
ENDBRANCH  11  12
ENDBRANCH   3   6
ENDBRANCH   1   3
BRANCH   1  16
ATOM     16  C   UNL     1       2.089   9.573  17.961  0.00  0.00    +0.000 C 
BRANCH  16  25
ATOM     17  C   UNL     1       4.152   1.885  19.516  0.00  0.00    +0.000 C 
ATOM     18  C   UNL     1       3.478   3.219  19.747  0.00  0.00    +0.000 C 
ATOM     19  O   UNL     1       2.739   3.371  20.721  0.00  0.00    +0.000 OA
ATOM     20  N   UNL     1       3.777   4.197  18.816  0.00  0.00    +0.000 N 
ATOM     21  C   UNL     1       4.550   3.983  17.581  0.00  0.00    +0.000 C 
ATOM     22  C   UNL     1       4.699   5.338  16.888  0.00  0.00    +0.000 C 
ATOM     23  C   UNL     1       3.763   6.190  17.681  0.00  0.00    +0.000 A 
ATOM     24  C   UNL     1       3.402   7.501  17.410  0.00  0.00    +0.000 A 
ATOM     25  C   UNL     1       2.553   8.175  18.302  0.00  0.00    +0.000 A 
ATOM     26  C   UNL     1       2.113   7.505  19.463  0.00  0.00    +0.000 A 
ATOM     27  C   UNL     1       2.483   6.173  19.722  0.00  0.00    +0.000 A 
ATOM     28  C   UNL     1       3.297   5.521  18.811  0.00  0.00    +0.000 A 
ENDBRANCH  16  25
ENDBRANCH   1  16
TORSDOF 5
ENDMDL
MODEL 5
REMARK VINA RESULT:      -8.1      3.196      4.464
REMARK  Name = 
REMARK  6 active torsions:
REMARK  status: ('A' for Active; 'I' for Inactive)
REMARK    1  A    between atoms: C_1  and  C_2
REMARK    2  A    between atoms: C_9  and  C_10
REMARK    3  A    between atoms: C_10  and  N_11
REMARK    4  A    between atoms: N_11  and  S_12
REMARK    5  A    between atoms: S_12  and  C_15
REMARK    6  A    between atoms: C_20  and  C_21
REMARK                            x       y       z     vdW  Elec       q    Type
REMARK                         _______ _______ _______ _____ _____    ______ ____
ROOT
ATOM      1  N   UNL     1       3.973   5.468  18.956  0.00  0.00    +0.000 NA
ATOM      2  H   UNL     1       3.727   5.417  19.945  0.00  0.00    +0.000 HD
ENDROOT
BRANCH   1   3
ATOM      3  S   UNL     1       4.649   4.008  18.439  0.00  0.00    +0.000 S 
ATOM      4  O   UNL     1       5.643   3.666  19.428  0.00  0.00    +0.000 OA
ATOM      5  O   UNL     1       3.550   3.133  18.088  0.00  0.00    +0.000 OA
BRANCH   3   6
ATOM      6  C   UNL     1       5.529   4.386  16.940  0.00  0.00    +0.000 A 
ATOM      7  C   UNL     1       5.047   3.879  15.720  0.00  0.00    +0.000 A 
ATOM      8  C   UNL     1       5.753   4.090  14.537  0.00  0.00    +0.000 A 
ATOM      9  C   UNL     1       6.929   4.830  14.555  0.00  0.00    +0.000 A 
ATOM     10  C   UNL     1       7.398   5.357  15.757  0.00  0.00    +0.000 A 
ATOM     11  C   UNL     1       6.715   5.142  16.974  0.00  0.00    +0.000 A 
BRANCH  11  12
ATOM     12  C   UNL     1       7.343   5.738  18.217  0.00  0.00    +0.000 C 
ATOM     13  F   UNL     1       6.504   6.139  19.199  0.00  0.00    +0.000 F 
ATOM     14  F   UNL     1       8.211   4.864  18.800  0.00  0.00    +0.000 F 
ATOM     15  F   UNL     1       8.092   6.839  17.915  0.00  0.00    +0.000 F 
ENDBRANCH  11  12
ENDBRANCH   3   6
ENDBRANCH   1   3
BRANCH   1  16
ATOM     16  C   UNL     1       2.970   6.057  18.065  0.00  0.00    +0.000 C 
BRANCH  16  25
ATOM     17  C   UNL     1      -0.807  12.649  20.906  0.00  0.00    +0.000 C 
ATOM     18  C   UNL     1      -0.151  11.755  19.876  0.00  0.00    +0.000 C 
ATOM     19  O   UNL     1      -0.114  12.106  18.696  0.00  0.00    +0.000 OA
ATOM     20  N   UNL     1       0.387  10.582  20.374  0.00  0.00    +0.000 N 
ATOM     21  C   UNL     1       0.229  10.097  21.755  0.00  0.00    +0.000 C 
ATOM     22  C   UNL     1       1.040   8.806  21.887  0.00  0.00    +0.000 C 
ATOM     23  C   UNL     1       1.401   8.527  20.465  0.00  0.00    +0.000 A 
ATOM     24  C   UNL     1       2.038   7.395  19.978  0.00  0.00    +0.000 A 
ATOM     25  C   UNL     1       2.356   7.325  18.613  0.00  0.00    +0.000 A 
ATOM     26  C   UNL     1       2.044   8.422  17.782  0.00  0.00    +0.000 A 
ATOM     27  C   UNL     1       1.393   9.560  18.289  0.00  0.00    +0.000 A 
ATOM     28  C   UNL     1       1.062   9.591  19.634  0.00  0.00    +0.000 A 
ENDBRANCH  16  25
ENDBRANCH   1  16
TORSDOF 5
ENDMDL
MODEL 6
REMARK VINA RESULT:      -8.1      1.024      1.110
REMARK  Name = 
REMARK  6 active torsions:
REMARK  status: ('A' for Active; 'I' for Inactive)
REMARK    1  A    between atoms: C_1  and  C_2
REMARK    2  A    between atoms: C_9  and  C_10
REMARK    3  A    between atoms: C_10  and  N_11
REMARK    4  A    between atoms: N_11  and  S_12
REMARK    5  A    between atoms: S_12  and  C_15
REMARK    6  A    between atoms: C_20  and  C_21
REMARK                            x       y       z     vdW  Elec       q    Type
REMARK                         _______ _______ _______ _____ _____    ______ ____
ROOT
ATOM      1  N   UNL     1       2.377   6.455  17.621  0.00  0.00    +0.000 NA
ATOM      2  H   UNL     1       2.034   6.299  16.672  0.00  0.00    +0.000 HD
ENDROOT
BRANCH   1   3
ATOM      3  S   UNL     1       3.462   5.237  18.065  0.00  0.00    +0.000 S 
ATOM      4  O   UNL     1       3.602   4.396  16.900  0.00  0.00    +0.000 OA
ATOM      5  O   UNL     1       4.584   5.883  18.711  0.00  0.00    +0.000 OA
BRANCH   3   6
ATOM      6  C   UNL     1       2.623   4.267  19.298  0.00  0.00    +0.000 A 
ATOM      7  C   UNL     1       1.391   4.721  19.800  0.00  0.00    +0.000 A 
ATOM      8  C   UNL     1       0.743   4.028  20.821  0.00  0.00    +0.000 A 
ATOM      9  C   UNL     1       1.304   2.863  21.331  0.00  0.00    +0.000 A 
ATOM     10  C   UNL     1       2.513   2.394  20.819  0.00  0.00    +0.000 A 
ATOM     11  C   UNL     1       3.201   3.087  19.799  0.00  0.00    +0.000 A 
BRANCH  11  12
ATOM     12  C   UNL     1       4.520   2.494  19.350  0.00  0.00    +0.000 C 
ATOM     13  F   UNL     1       5.560   3.345  19.204  0.00  0.00    +0.000 F 
ATOM     14  F   UNL     1       4.947   1.528  20.212  0.00  0.00    +0.000 F 
ATOM     15  F   UNL     1       4.398   1.867  18.143  0.00  0.00    +0.000 F 
ENDBRANCH  11  12
ENDBRANCH   3   6
ENDBRANCH   1   3
BRANCH   1  16
ATOM     16  C   UNL     1       2.788   7.823  17.948  0.00  0.00    +0.000 C 
BRANCH  16  25
ATOM     17  C   UNL     1      -1.911  11.908  23.147  0.00  0.00    +0.000 C 
ATOM     18  C   UNL     1      -0.917  10.860  22.696  0.00  0.00    +0.000 C 
ATOM     19  O   UNL     1      -0.409  10.103  23.525  0.00  0.00    +0.000 OA
ATOM     20  N   UNL     1      -0.672  10.831  21.336  0.00  0.00    +0.000 N 
ATOM     21  C   UNL     1      -1.173  11.816  20.363  0.00  0.00    +0.000 C 
ATOM     22  C   UNL     1      -0.722  11.363  18.973  0.00  0.00    +0.000 C 
ATOM     23  C   UNL     1       0.232  10.263  19.305  0.00  0.00    +0.000 A 
ATOM     24  C   UNL     1       1.043   9.572  18.418  0.00  0.00    +0.000 A 
ATOM     25  C   UNL     1       1.838   8.519  18.898  0.00  0.00    +0.000 A 
ATOM     26  C   UNL     1       1.768   8.178  20.265  0.00  0.00    +0.000 A 
ATOM     27  C   UNL     1       0.945   8.893  21.154  0.00  0.00    +0.000 A 
ATOM     28  C   UNL     1       0.193   9.947  20.661  0.00  0.00    +0.000 A 
ENDBRANCH  16  25
ENDBRANCH   1  16
TORSDOF 5
ENDMDL
MODEL 7
REMARK VINA RESULT:      -8.0      4.711      8.784
REMARK  Name = 
REMARK  6 active torsions:
REMARK  status: ('A' for Active; 'I' for Inactive)
REMARK    1  A    between atoms: C_1  and  C_2
REMARK    2  A    between atoms: C_9  and  C_10
REMARK    3  A    between atoms: C_10  and  N_11
REMARK    4  A    between atoms: N_11  and  S_12
REMARK    5  A    between atoms: S_12  and  C_15
REMARK    6  A    between atoms: C_20  and  C_21
REMARK                            x       y       z     vdW  Elec       q    Type
REMARK                         _______ _______ _______ _____ _____    ______ ____
ROOT
ATOM      1  N   UNL     1       1.670   8.253  21.478  0.00  0.00    +0.000 NA
ATOM      2  H   UNL     1       2.226   8.829  20.845  0.00  0.00    +0.000 HD
ENDROOT
BRANCH   1   3
ATOM      3  S   UNL     1       0.378   9.144  22.106  0.00  0.00    +0.000 S 
ATOM      4  O   UNL     1      -0.754   8.249  22.099  0.00  0.00    +0.000 OA
ATOM      5  O   UNL     1       0.858   9.801  23.304  0.00  0.00    +0.000 OA
BRANCH   3   6
ATOM      6  C   UNL     1       0.034  10.411  20.905  0.00  0.00    +0.000 A 
ATOM      7  C   UNL     1       0.663  10.348  19.649  0.00  0.00    +0.000 A 
ATOM      8  C   UNL     1       0.477  11.364  18.713  0.00  0.00    +0.000 A 
ATOM      9  C   UNL     1      -0.356  12.434  19.009  0.00  0.00    +0.000 A 
ATOM     10  C   UNL     1      -1.003  12.489  20.243  0.00  0.00    +0.000 A 
ATOM     11  C   UNL     1      -0.818  11.485  21.219  0.00  0.00    +0.000 A 
BRANCH  11  12
ATOM     12  C   UNL     1      -1.549  11.675  22.531  0.00  0.00    +0.000 C 
ATOM     13  F   UNL     1      -0.996  12.523  23.427  0.00  0.00    +0.000 F 
ATOM     14  F   UNL     1      -2.821  12.122  22.329  0.00  0.00    +0.000 F 
ATOM     15  F   UNL     1      -1.688  10.491  23.198  0.00  0.00    +0.000 F 
ENDBRANCH  11  12
ENDBRANCH   3   6
ENDBRANCH   1   3
BRANCH   1  16
ATOM     16  C   UNL     1       1.346   6.902  21.015  0.00  0.00    +0.000 C 
BRANCH  16  25
ATOM     17  C   UNL     1       6.004   4.735  14.739  0.00  0.00    +0.000 C 
ATOM     18  C   UNL     1       5.240   5.673  15.647  0.00  0.00    +0.000 C 
ATOM     19  O   UNL     1       5.274   6.886  15.440  0.00  0.00    +0.000 OA
ATOM     20  N   UNL     1       4.529   5.058  16.661  0.00  0.00    +0.000 N 
ATOM     21  C   UNL     1       4.593   3.625  16.993  0.00  0.00    +0.000 C 
ATOM     22  C   UNL     1       3.599   3.368  18.128  0.00  0.00    +0.000 C 
ATOM     23  C   UNL     1       3.223   4.759  18.523  0.00  0.00    +0.000 A 
ATOM     24  C   UNL     1       2.435   5.130  19.602  0.00  0.00    +0.000 A 
ATOM     25  C   UNL     1       2.131   6.487  19.790  0.00  0.00    +0.000 A 
ATOM     26  C   UNL     1       2.614   7.431  18.859  0.00  0.00    +0.000 A 
ATOM     27  C   UNL     1       3.416   7.040  17.773  0.00  0.00    +0.000 A 
ATOM     28  C   UNL     1       3.728   5.698  17.627  0.00  0.00    +0.000 A 
ENDBRANCH  16  25
ENDBRANCH   1  16
TORSDOF 5
ENDMDL
MODEL 8
REMARK VINA RESULT:      -8.0      6.187      7.328
REMARK  Name = 
REMARK  6 active torsions:
REMARK  status: ('A' for Active; 'I' for Inactive)
REMARK    1  A    between atoms: C_1  and  C_2
REMARK    2  A    between atoms: C_9  and  C_10
REMARK    3  A    between atoms: C_10  and  N_11
REMARK    4  A    between atoms: N_11  and  S_12
REMARK    5  A    between atoms: S_12  and  C_15
REMARK    6  A    between atoms: C_20  and  C_21
REMARK                            x       y       z     vdW  Elec       q    Type
REMARK                         _______ _______ _______ _____ _____    ______ ____
ROOT
ATOM      1  N   UNL     1       7.398   7.816  17.066  0.00  0.00    +0.000 NA
ATOM      2  H   UNL     1       7.843   8.100  16.192  0.00  0.00    +0.000 HD
ENDROOT
BRANCH   1   3
ATOM      3  S   UNL     1       6.778   6.250  16.930  0.00  0.00    +0.000 S 
ATOM      4  O   UNL     1       6.875   5.911  15.530  0.00  0.00    +0.000 OA
ATOM      5  O   UNL     1       7.389   5.459  17.977  0.00  0.00    +0.000 OA
BRANCH   3   6
ATOM      6  C   UNL     1       5.044   6.381  17.305  0.00  0.00    +0.000 A 
ATOM      7  C   UNL     1       4.467   7.658  17.423  0.00  0.00    +0.000 A 
ATOM      8  C   UNL     1       3.130   7.799  17.792  0.00  0.00    +0.000 A 
ATOM      9  C   UNL     1       2.351   6.671  18.018  0.00  0.00    +0.000 A 
ATOM     10  C   UNL     1       2.911   5.402  17.876  0.00  0.00    +0.000 A 
ATOM     11  C   UNL     1       4.267   5.229  17.524  0.00  0.00    +0.000 A 
BRANCH  11  12
ATOM     12  C   UNL     1       4.765   3.801  17.433  0.00  0.00    +0.000 C 
ATOM     13  F   UNL     1       5.534   3.484  16.368  0.00  0.00    +0.000 F 
ATOM     14  F   UNL     1       5.494   3.461  18.534  0.00  0.00    +0.000 F 
ATOM     15  F   UNL     1       3.728   2.914  17.403  0.00  0.00    +0.000 F 
ENDBRANCH  11  12
ENDBRANCH   3   6
ENDBRANCH   1   3
BRANCH   1  16
ATOM     16  C   UNL     1       8.137   8.104  18.297  0.00  0.00    +0.000 C 
BRANCH  16  25
ATOM     17  C   UNL     1      10.002  15.940  19.251  0.00  0.00    +0.000 C 
ATOM     18  C   UNL     1       9.342  14.732  18.622  0.00  0.00    +0.000 C 
ATOM     19  O   UNL     1       8.566  14.882  17.677  0.00  0.00    +0.000 OA
ATOM     20  N   UNL     1       9.696  13.515  19.175  0.00  0.00    +0.000 N 
ATOM     21  C   UNL     1      10.515  13.342  20.387  0.00  0.00    +0.000 C 
ATOM     22  C   UNL     1      10.715  11.840  20.598  0.00  0.00    +0.000 C 
ATOM     23  C   UNL     1       9.763  11.262  19.603  0.00  0.00    +0.000 A 
ATOM     24  C   UNL     1       9.436   9.924  19.447  0.00  0.00    +0.000 A 
ATOM     25  C   UNL     1       8.562   9.550  18.414  0.00  0.00    +0.000 A 
ATOM     26  C   UNL     1       8.064  10.546  17.547  0.00  0.00    +0.000 A 
ATOM     27  C   UNL     1       8.400  11.900  17.722  0.00  0.00    +0.000 A 
ATOM     28  C   UNL     1       9.239  12.246  18.767  0.00  0.00    +0.000 A 
ENDBRANCH  16  25
ENDBRANCH   1  16
TORSDOF 5
ENDMDL
MODEL 9
REMARK VINA RESULT:      -7.9      3.114      4.259
REMARK  Name = 
REMARK  6 active torsions:
REMARK  status: ('A' for Active; 'I' for Inactive)
REMARK    1  A    between atoms: C_1  and  C_2
REMARK    2  A    between atoms: C_9  and  C_10
REMARK    3  A    between atoms: C_10  and  N_11
REMARK    4  A    between atoms: N_11  and  S_12
REMARK    5  A    between atoms: S_12  and  C_15
REMARK    6  A    between atoms: C_20  and  C_21
REMARK                            x       y       z     vdW  Elec       q    Type
REMARK                         _______ _______ _______ _____ _____    ______ ____
ROOT
ATOM      1  N   UNL     1       4.383   6.120  18.910  0.00  0.00    +0.000 NA
ATOM      2  H   UNL     1       4.439   6.306  19.912  0.00  0.00    +0.000 HD
ENDROOT
BRANCH   1   3
ATOM      3  S   UNL     1       5.000   4.586  18.559  0.00  0.00    +0.000 S 
ATOM      4  O   UNL     1       6.120   4.402  19.450  0.00  0.00    +0.000 OA
ATOM      5  O   UNL     1       3.873   3.678  18.509  0.00  0.00    +0.000 OA
BRANCH   3   6
ATOM      6  C   UNL     1       5.668   4.698  16.914  0.00  0.00    +0.000 A 
ATOM      7  C   UNL     1       5.283   3.744  15.955  0.00  0.00    +0.000 A 
ATOM      8  C   UNL     1       5.845   3.755  14.680  0.00  0.00    +0.000 A 
ATOM      9  C   UNL     1       6.773   4.731  14.341  0.00  0.00    +0.000 A 
ATOM     10  C   UNL     1       7.140   5.696  15.279  0.00  0.00    +0.000 A 
ATOM     11  C   UNL     1       6.602   5.697  16.585  0.00  0.00    +0.000 A 
BRANCH  11  12
ATOM     12  C   UNL     1       7.104   6.775  17.522  0.00  0.00    +0.000 C 
ATOM     13  F   UNL     1       7.559   6.378  18.731  0.00  0.00    +0.000 F 
ATOM     14  F   UNL     1       8.119   7.488  16.957  0.00  0.00    +0.000 F 
ATOM     15  F   UNL     1       6.129   7.693  17.790  0.00  0.00    +0.000 F 
ENDBRANCH  11  12
ENDBRANCH   3   6
ENDBRANCH   1   3
BRANCH   1  16
ATOM     16  C   UNL     1       3.118   6.463  18.254  0.00  0.00    +0.000 C 
BRANCH  16  25
ATOM     17  C   UNL     1      -1.004  11.812  22.748  0.00  0.00    +0.000 C 
ATOM     18  C   UNL     1      -0.252  10.534  22.444  0.00  0.00    +0.000 C 
ATOM     19  O   UNL     1      -0.042   9.721  23.345  0.00  0.00    +0.000 OA
ATOM     20  N   UNL     1       0.133  10.379  21.126  0.00  0.00    +0.000 N 
ATOM     21  C   UNL     1       0.003  11.406  20.078  0.00  0.00    +0.000 C 
ATOM     22  C   UNL     1       0.486  10.789  18.764  0.00  0.00    +0.000 C 
ATOM     23  C   UNL     1       1.098   9.510  19.234  0.00  0.00    +0.000 A 
ATOM     24  C   UNL     1       1.811   8.601  18.468  0.00  0.00    +0.000 A 
ATOM     25  C   UNL     1       2.265   7.414  19.065  0.00  0.00    +0.000 A 
ATOM     26  C   UNL     1       1.958   7.169  20.420  0.00  0.00    +0.000 A 
ATOM     27  C   UNL     1       1.238   8.103  21.185  0.00  0.00    +0.000 A 
ATOM     28  C   UNL     1       0.828   9.281  20.581  0.00  0.00    +0.000 A 
ENDBRANCH  16  25
ENDBRANCH   1  16
TORSDOF 5
ENDMDL
