MODEL 1
REMARK VINA RESULT:      -8.2      0.000      0.000
REMARK  Name = 
REMARK  9 active torsions:
REMARK  status: ('A' for Active; 'I' for Inactive)
REMARK    1  A    between atoms: C_1  and  N_2
REMARK    2  A    between atoms: C_3  and  C_5
REMARK    3  A    between atoms: C_7  and  C_8
REMARK    4  A    between atoms: C_8  and  C_9
REMARK    5  A    between atoms: C_8  and  C_10
REMARK    6  A    between atoms: C_8  and  C_11
REMARK    7  A    between atoms: C_13  and  N_14
REMARK    8  A    between atoms: N_17  and  C_18
REMARK    9  A    between atoms: C_21  and  C_22
REMARK                            x       y       z     vdW  Elec       q    Type
REMARK                         _______ _______ _______ _____ _____    ______ ____
ROOT
ATOM      1  C   UNL     1       5.899   5.096  15.985  0.00  0.00    +0.000 A 
ATOM      2  N   UNL     1       5.190   4.050  16.551  0.00  0.00    +0.000 N 
ATOM      3  C   UNL     1       4.621   4.421  17.745  0.00  0.00    +0.000 A 
ATOM      4  C   UNL     1       4.965   5.745  17.930  0.00  0.00    +0.000 A 
ATOM      5  C   UNL     1       5.792   6.172  16.855  0.00  0.00    +0.000 A 
ATOM      6  H   UNL     1       5.133   3.130  16.133  0.00  0.00    +0.000 HD
ENDROOT
BRANCH   5   7
ATOM      7  N   UNL     1       6.405   7.418  16.711  0.00  0.00    +0.000 N 
ATOM      8  C   UNL     1       7.428   7.844  17.550  0.00  0.00    +0.000 C 
ATOM      9  O   UNL     1       7.970   7.121  18.383  0.00  0.00    +0.000 OA
ATOM     10  N   UNL     1       7.736   9.185  17.374  0.00  0.00    +0.000 N 
ATOM     11  H   UNL     1       6.308   7.879  15.818  0.00  0.00    +0.000 HD
ATOM     12  H   UNL     1       7.022   9.750  16.940  0.00  0.00    +0.000 HD
BRANCH  10  13
ATOM     13  C   UNL     1       8.719   9.876  18.131  0.00  0.00    +0.000 A 
ATOM     14  C   UNL     1       8.821   9.765  19.520  0.00  0.00    +0.000 A 
ATOM     15  C   UNL     1       9.728  10.544  20.243  0.00  0.00    +0.000 A 
ATOM     16  C   UNL     1      10.570  11.441  19.585  0.00  0.00    +0.000 A 
ATOM     17  C   UNL     1      11.493  12.328  20.366  0.00  0.00    +0.000 C 
ATOM     18  C   UNL     1      10.521  11.510  18.187  0.00  0.00    +0.000 A 
ATOM     19  C   UNL     1       9.608  10.726  17.465  0.00  0.00    +0.000 A 
ENDBRANCH  10  13
ENDBRANCH   5   7
BRANCH   1  22
ATOM     20  C   UNL     1       6.702   3.741  12.612  0.00  0.00    +0.000 C 
ATOM     21  N   UNL     1       6.033   4.039  13.854  0.00  0.00    +0.000 N 
ATOM     22  C   UNL     1       6.632   4.889  14.758  0.00  0.00    +0.000 C 
ATOM     23  O   UNL     1       7.732   5.395  14.558  0.00  0.00    +0.000 OA
ATOM     24  H   UNL     1       5.410   3.346  14.250  0.00  0.00    +0.000 HD
ENDBRANCH   1  22
BRANCH   3  25
ATOM     25  C   UNL     1       3.815   3.469  18.611  0.00  0.00    +0.000 C 
ATOM     26  C   UNL     1       3.437   2.209  17.810  0.00  0.00    +0.000 C 
ATOM     27  C   UNL     1       4.627   3.020  19.845  0.00  0.00    +0.000 C 
ATOM     28  C   UNL     1       2.536   4.168  19.104  0.00  0.00    +0.000 C 
ENDBRANCH   3  25
TORSDOF 4
ENDMDL
MODEL 2
REMARK VINA RESULT:      -8.2      5.164      7.379
REMARK  Name = 
REMARK  9 active torsions:
REMARK  status: ('A' for Active; 'I' for Inactive)
REMARK    1  A    between atoms: C_1  and  N_2
REMARK    2  A    between atoms: C_3  and  C_5
REMARK    3  A    between atoms: C_7  and  C_8
REMARK    4  A    between atoms: C_8  and  C_9
REMARK    5  A    between atoms: C_8  and  C_10
REMARK    6  A    between atoms: C_8  and  C_11
REMARK    7  A    between atoms: C_13  and  N_14
REMARK    8  A    between atoms: N_17  and  C_18
REMARK    9  A    between atoms: C_21  and  C_22
REMARK                            x       y       z     vdW  Elec       q    Type
REMARK                         _______ _______ _______ _____ _____    ______ ____
ROOT
ATOM      1  C   UNL     1       3.128   4.774  18.396  0.00  0.00    +0.000 A 
ATOM      2  N   UNL     1       4.198   4.653  17.526  0.00  0.00    +0.000 N 
ATOM      3  C   UNL     1       5.225   5.495  17.876  0.00  0.00    +0.000 A 
ATOM      4  C   UNL     1       4.800   6.154  19.012  0.00  0.00    +0.000 A 
ATOM      5  C   UNL     1       3.478   5.740  19.330  0.00  0.00    +0.000 A 
ATOM      6  H   UNL     1       4.192   4.034  16.725  0.00  0.00    +0.000 HD
ENDROOT
BRANCH   5   7
ATOM      7  N   UNL     1       2.670   6.227  20.361  0.00  0.00    +0.000 N 
ATOM      8  C   UNL     1       1.998   7.439  20.268  0.00  0.00    +0.000 C 
ATOM      9  O   UNL     1       1.938   8.107  19.237  0.00  0.00    +0.000 OA
ATOM     10  N   UNL     1       1.441   7.832  21.477  0.00  0.00    +0.000 N 
ATOM     11  H   UNL     1       2.343   5.559  21.044  0.00  0.00    +0.000 HD
ATOM     12  H   UNL     1       1.835   7.409  22.303  0.00  0.00    +0.000 HD
BRANCH  10  13
ATOM     13  C   UNL     1       0.731   9.047  21.661  0.00  0.00    +0.000 A 
ATOM     14  C   UNL     1       0.920  10.166  20.845  0.00  0.00    +0.000 A 
ATOM     15  C   UNL     1       0.286  11.380  21.124  0.00  0.00    +0.000 A 
ATOM     16  C   UNL     1      -0.569  11.495  22.219  0.00  0.00    +0.000 A 
ATOM     17  C   UNL     1      -1.194  12.815  22.560  0.00  0.00    +0.000 C 
ATOM     18  C   UNL     1      -0.817  10.361  23.003  0.00  0.00    +0.000 A 
ATOM     19  C   UNL     1      -0.178   9.143  22.720  0.00  0.00    +0.000 A 
ENDBRANCH  10  13
ENDBRANCH   5   7
BRANCH   1  22
ATOM     20  C   UNL     1       0.557   2.118  18.827  0.00  0.00    +0.000 C 
ATOM     21  N   UNL     1       1.720   2.952  19.003  0.00  0.00    +0.000 N 
ATOM     22  C   UNL     1       1.918   4.024  18.160  0.00  0.00    +0.000 C 
ATOM     23  O   UNL     1       1.147   4.293  17.244  0.00  0.00    +0.000 OA
ATOM     24  H   UNL     1       2.559   2.541  19.394  0.00  0.00    +0.000 HD
ENDBRANCH   1  22
BRANCH   3  25
ATOM     25  C   UNL     1       6.515   5.606  17.082  0.00  0.00    +0.000 C 
ATOM     26  C   UNL     1       7.154   6.992  17.294  0.00  0.00    +0.000 C 
ATOM     27  C   UNL     1       7.536   4.539  17.531  0.00  0.00    +0.000 C 
ATOM     28  C   UNL     1       6.226   5.398  15.585  0.00  0.00    +0.000 C 
ENDBRANCH   3  25
TORSDOF 4
ENDMDL
MODEL 3
REMARK VINA RESULT:      -8.0      5.043      7.369
REMARK  Name = 
REMARK  9 active torsions:
REMARK  status: ('A' for Active; 'I' for Inactive)
REMARK    1  A    between atoms: C_1  and  N_2
REMARK    2  A    between atoms: C_3  and  C_5
REMARK    3  A    between atoms: C_7  and  C_8
REMARK    4  A    between atoms: C_8  and  C_9
REMARK    5  A    between atoms: C_8  and  C_10
REMARK    6  A    between atoms: C_8  and  C_11
REMARK    7  A    between atoms: C_13  and  N_14
REMARK    8  A    between atoms: N_17  and  C_18
REMARK    9  A    between atoms: C_21  and  C_22
REMARK                            x       y       z     vdW  Elec       q    Type
REMARK                         _______ _______ _______ _____ _____    ______ ____
ROOT
ATOM      1  C   UNL     1       3.239   4.694  18.379  0.00  0.00    +0.000 A 
ATOM      2  N   UNL     1       4.302   4.570  17.502  0.00  0.00    +0.000 N 
ATOM      3  C   UNL     1       5.333   5.411  17.845  0.00  0.00    +0.000 A 
ATOM      4  C   UNL     1       4.916   6.071  18.984  0.00  0.00    +0.000 A 
ATOM      5  C   UNL     1       3.596   5.659  19.310  0.00  0.00    +0.000 A 
ATOM      6  H   UNL     1       4.290   3.951  16.701  0.00  0.00    +0.000 HD
ENDROOT
BRANCH   5   7
ATOM      7  N   UNL     1       2.795   6.147  20.346  0.00  0.00    +0.000 N 
ATOM      8  C   UNL     1       2.065   7.324  20.228  0.00  0.00    +0.000 C 
ATOM      9  O   UNL     1       1.946   7.949  19.177  0.00  0.00    +0.000 OA
ATOM     10  N   UNL     1       1.524   7.736  21.438  0.00  0.00    +0.000 N 
ATOM     11  H   UNL     1       2.518   5.491  21.062  0.00  0.00    +0.000 HD
ATOM     12  H   UNL     1       1.960   7.363  22.268  0.00  0.00    +0.000 HD
BRANCH  10  13
ATOM     13  C   UNL     1       0.764   8.924  21.599  0.00  0.00    +0.000 A 
ATOM     14  C   UNL     1       0.249   9.333  22.832  0.00  0.00    +0.000 A 
ATOM     15  C   UNL     1      -0.587  10.447  22.934  0.00  0.00    +0.000 A 
ATOM     16  C   UNL     1      -0.912  11.192  21.800  0.00  0.00    +0.000 A 
ATOM     17  C   UNL     1      -1.865  12.345  21.897  0.00  0.00    +0.000 C 
ATOM     18  C   UNL     1      -0.346  10.830  20.571  0.00  0.00    +0.000 A 
ATOM     19  C   UNL     1       0.494   9.709  20.474  0.00  0.00    +0.000 A 
ENDBRANCH  10  13
ENDBRANCH   5   7
BRANCH   1  22
ATOM     20  C   UNL     1       0.594   2.130  18.916  0.00  0.00    +0.000 C 
ATOM     21  N   UNL     1       1.764   2.957  19.075  0.00  0.00    +0.000 N 
ATOM     22  C   UNL     1       2.026   3.945  18.150  0.00  0.00    +0.000 C 
ATOM     23  O   UNL     1       1.306   4.142  17.176  0.00  0.00    +0.000 OA
ATOM     24  H   UNL     1       2.574   2.569  19.543  0.00  0.00    +0.000 HD
ENDBRANCH   1  22
BRANCH   3  25
ATOM     25  C   UNL     1       6.618   5.520  17.043  0.00  0.00    +0.000 C 
ATOM     26  C   UNL     1       7.237   6.921  17.215  0.00  0.00    +0.000 C 
ATOM     27  C   UNL     1       7.657   4.482  17.518  0.00  0.00    +0.000 C 
ATOM     28  C   UNL     1       6.328   5.266  15.554  0.00  0.00    +0.000 C 
ENDBRANCH   3  25
TORSDOF 4
ENDMDL
MODEL 4
REMARK VINA RESULT:      -7.9      5.030      6.401
REMARK  Name = 
REMARK  9 active torsions:
REMARK  status: ('A' for Active; 'I' for Inactive)
REMARK    1  A    between atoms: C_1  and  N_2
REMARK    2  A    between atoms: C_3  and  C_5
REMARK    3  A    between atoms: C_7  and  C_8
REMARK    4  A    between atoms: C_8  and  C_9
REMARK    5  A    between atoms: C_8  and  C_10
REMARK    6  A    between atoms: C_8  and  C_11
REMARK    7  A    between atoms: C_13  and  N_14
REMARK    8  A    between atoms: N_17  and  C_18
REMARK    9  A    between atoms: C_21  and  C_22
REMARK                            x       y       z     vdW  Elec       q    Type
REMARK                         _______ _______ _______ _____ _____    ______ ____
ROOT
ATOM      1  C   UNL     1       4.311   5.647  18.130  0.00  0.00    +0.000 A 
ATOM      2  N   UNL     1       4.133   4.350  18.579  0.00  0.00    +0.000 N 
ATOM      3  C   UNL     1       2.800   4.039  18.694  0.00  0.00    +0.000 A 
ATOM      4  C   UNL     1       2.115   5.167  18.286  0.00  0.00    +0.000 A 
ATOM      5  C   UNL     1       3.045   6.192  17.963  0.00  0.00    +0.000 A 
ATOM      6  H   UNL     1       4.902   3.735  18.813  0.00  0.00    +0.000 HD
ENDROOT
BRANCH   5   7
ATOM      7  N   UNL     1       2.751   7.503  17.581  0.00  0.00    +0.000 N 
ATOM      8  C   UNL     1       2.105   8.395  18.427  0.00  0.00    +0.000 C 
ATOM      9  O   UNL     1       1.870   8.162  19.611  0.00  0.00    +0.000 OA
ATOM     10  N   UNL     1       1.716   9.558  17.777  0.00  0.00    +0.000 N 
ATOM     11  H   UNL     1       3.272   7.885  16.805  0.00  0.00    +0.000 HD
ATOM     12  H   UNL     1       1.641   9.499  16.772  0.00  0.00    +0.000 HD
BRANCH  10  13
ATOM     13  C   UNL     1       1.008  10.616  18.405  0.00  0.00    +0.000 A 
ATOM     14  C   UNL     1      -0.359  10.549  18.689  0.00  0.00    +0.000 A 
ATOM     15  C   UNL     1      -1.045  11.651  19.206  0.00  0.00    +0.000 A 
ATOM     16  C   UNL     1      -0.370  12.842  19.471  0.00  0.00    +0.000 A 
ATOM     17  C   UNL     1      -1.119  14.047  19.959  0.00  0.00    +0.000 C 
ATOM     18  C   UNL     1       1.012  12.897  19.253  0.00  0.00    +0.000 A 
ATOM     19  C   UNL     1       1.698  11.787  18.733  0.00  0.00    +0.000 A 
ENDBRANCH  10  13
ENDBRANCH   5   7
BRANCH   1  22
ATOM     20  C   UNL     1       7.926   6.158  18.853  0.00  0.00    +0.000 C 
ATOM     21  N   UNL     1       6.575   5.656  18.871  0.00  0.00    +0.000 N 
ATOM     22  C   UNL     1       5.642   6.192  18.009  0.00  0.00    +0.000 C 
ATOM     23  O   UNL     1       5.912   7.102  17.231  0.00  0.00    +0.000 OA
ATOM     24  H   UNL     1       6.207   5.279  19.736  0.00  0.00    +0.000 HD
ENDBRANCH   1  22
BRANCH   3  25
ATOM     25  C   UNL     1       2.301   2.698  19.200  0.00  0.00    +0.000 C 
ATOM     26  C   UNL     1       0.854   2.455  18.729  0.00  0.00    +0.000 C 
ATOM     27  C   UNL     1       3.174   1.543  18.663  0.00  0.00    +0.000 C 
ATOM     28  C   UNL     1       2.352   2.667  20.737  0.00  0.00    +0.000 C 
ENDBRANCH   3  25
TORSDOF 4
ENDMDL
MODEL 5
REMARK VINA RESULT:      -7.9      4.984      6.478
REMARK  Name = 
REMARK  9 active torsions:
REMARK  status: ('A' for Active; 'I' for Inactive)
REMARK    1  A    between atoms: C_1  and  N_2
REMARK    2  A    between atoms: C_3  and  C_5
REMARK    3  A    between atoms: C_7  and  C_8
REMARK    4  A    between atoms: C_8  and  C_9
REMARK    5  A    between atoms: C_8  and  C_10
REMARK    6  A    between atoms: C_8  and  C_11
REMARK    7  A    between atoms: C_13  and  N_14
REMARK    8  A    between atoms: N_17  and  C_18
REMARK    9  A    between atoms: C_21  and  C_22
REMARK                            x       y       z     vdW  Elec       q    Type
REMARK                         _______ _______ _______ _____ _____    ______ ____
ROOT
ATOM      1  C   UNL     1       4.354   5.655  18.139  0.00  0.00    +0.000 A 
ATOM      2  N   UNL     1       4.176   4.356  18.584  0.00  0.00    +0.000 N 
ATOM      3  C   UNL     1       2.843   4.043  18.694  0.00  0.00    +0.000 A 
ATOM      4  C   UNL     1       2.158   5.171  18.288  0.00  0.00    +0.000 A 
ATOM      5  C   UNL     1       3.088   6.198  17.970  0.00  0.00    +0.000 A 
ATOM      6  H   UNL     1       4.946   3.741  18.818  0.00  0.00    +0.000 HD
ENDROOT
BRANCH   5   7
ATOM      7  N   UNL     1       2.793   7.510  17.591  0.00  0.00    +0.000 N 
ATOM      8  C   UNL     1       2.103   8.385  18.420  0.00  0.00    +0.000 C 
ATOM      9  O   UNL     1       1.824   8.136  19.591  0.00  0.00    +0.000 OA
ATOM     10  N   UNL     1       1.726   9.550  17.767  0.00  0.00    +0.000 N 
ATOM     11  H   UNL     1       3.341   7.907  16.840  0.00  0.00    +0.000 HD
ATOM     12  H   UNL     1       1.692   9.502  16.760  0.00  0.00    +0.000 HD
BRANCH  10  13
ATOM     13  C   UNL     1       0.980  10.592  18.379  0.00  0.00    +0.000 A 
ATOM     14  C   UNL     1       1.570  11.767  18.853  0.00  0.00    +0.000 A 
ATOM     15  C   UNL     1       0.824  12.722  19.549  0.00  0.00    +0.000 A 
ATOM     16  C   UNL     1      -0.540  12.529  19.768  0.00  0.00    +0.000 A 
ATOM     17  C   UNL     1      -1.327  13.518  20.574  0.00  0.00    +0.000 C 
ATOM     18  C   UNL     1      -1.154  11.387  19.237  0.00  0.00    +0.000 A 
ATOM     19  C   UNL     1      -0.399  10.430  18.539  0.00  0.00    +0.000 A 
ENDBRANCH  10  13
ENDBRANCH   5   7
BRANCH   1  22
ATOM     20  C   UNL     1       7.968   6.164  18.871  0.00  0.00    +0.000 C 
ATOM     21  N   UNL     1       6.617   5.662  18.884  0.00  0.00    +0.000 N 
ATOM     22  C   UNL     1       5.685   6.202  18.024  0.00  0.00    +0.000 C 
ATOM     23  O   UNL     1       5.955   7.116  17.251  0.00  0.00    +0.000 OA
ATOM     24  H   UNL     1       6.247   5.280  19.746  0.00  0.00    +0.000 HD
ENDBRANCH   1  22
BRANCH   3  25
ATOM     25  C   UNL     1       2.344   2.700  19.195  0.00  0.00    +0.000 C 
ATOM     26  C   UNL     1       0.908   2.445  18.698  0.00  0.00    +0.000 C 
ATOM     27  C   UNL     1       3.236   1.550  18.678  0.00  0.00    +0.000 C 
ATOM     28  C   UNL     1       2.367   2.674  20.733  0.00  0.00    +0.000 C 
ENDBRANCH   3  25
TORSDOF 4
ENDMDL
MODEL 6
REMARK VINA RESULT:      -7.8      0.511      1.106
REMARK  Name = 
REMARK  9 active torsions:
REMARK  status: ('A' for Active; 'I' for Inactive)
REMARK    1  A    between atoms: C_1  and  N_2
REMARK    2  A    between atoms: C_3  and  C_5
REMARK    3  A    between atoms: C_7  and  C_8
REMARK    4  A    between atoms: C_8  and  C_9
REMARK    5  A    between atoms: C_8  and  C_10
REMARK    6  A    between atoms: C_8  and  C_11
REMARK    7  A    between atoms: C_13  and  N_14
REMARK    8  A    between atoms: N_17  and  C_18
REMARK    9  A    between atoms: C_21  and  C_22
REMARK                            x       y       z     vdW  Elec       q    Type
REMARK                         _______ _______ _______ _____ _____    ______ ____
ROOT
ATOM      1  C   UNL     1       5.885   5.302  16.274  0.00  0.00    +0.000 A 
ATOM      2  N   UNL     1       5.165   4.304  16.907  0.00  0.00    +0.000 N 
ATOM      3  C   UNL     1       4.596   4.760  18.072  0.00  0.00    +0.000 A 
ATOM      4  C   UNL     1       4.950   6.091  18.167  0.00  0.00    +0.000 A 
ATOM      5  C   UNL     1       5.785   6.436  17.069  0.00  0.00    +0.000 A 
ATOM      6  H   UNL     1       5.101   3.358  16.553  0.00  0.00    +0.000 HD
ENDROOT
BRANCH   5   7
ATOM      7  N   UNL     1       6.410   7.664  16.843  0.00  0.00    +0.000 N 
ATOM      8  C   UNL     1       7.479   8.106  17.614  0.00  0.00    +0.000 C 
ATOM      9  O   UNL     1       8.049   7.409  18.450  0.00  0.00    +0.000 OA
ATOM     10  N   UNL     1       7.799   9.434  17.366  0.00  0.00    +0.000 N 
ATOM     11  H   UNL     1       6.277   8.089  15.937  0.00  0.00    +0.000 HD
ATOM     12  H   UNL     1       7.074   9.992  16.943  0.00  0.00    +0.000 HD
BRANCH  10  13
ATOM     13  C   UNL     1       8.828  10.138  18.045  0.00  0.00    +0.000 A 
ATOM     14  C   UNL     1       9.775  10.922  17.380  0.00  0.00    +0.000 A 
ATOM     15  C   UNL     1      10.839  11.510  18.068  0.00  0.00    +0.000 A 
ATOM     16  C   UNL     1      10.969  11.340  19.446  0.00  0.00    +0.000 A 
ATOM     17  C   UNL     1      12.149  11.911  20.174  0.00  0.00    +0.000 C 
ATOM     18  C   UNL     1       9.988  10.611  20.131  0.00  0.00    +0.000 A 
ATOM     19  C   UNL     1       8.920  10.022  19.435  0.00  0.00    +0.000 A 
ENDBRANCH  10  13
ENDBRANCH   5   7
BRANCH   1  22
ATOM     20  C   UNL     1       6.640   3.794  12.956  0.00  0.00    +0.000 C 
ATOM     21  N   UNL     1       5.975   4.177  14.177  0.00  0.00    +0.000 N 
ATOM     22  C   UNL     1       6.621   5.006  15.068  0.00  0.00    +0.000 C 
ATOM     23  O   UNL     1       7.759   5.423  14.873  0.00  0.00    +0.000 OA
ATOM     24  H   UNL     1       5.296   3.544  14.581  0.00  0.00    +0.000 HD
ENDBRANCH   1  22
BRANCH   3  25
ATOM     25  C   UNL     1       3.777   3.877  18.997  0.00  0.00    +0.000 C 
ATOM     26  C   UNL     1       2.717   3.100  18.193  0.00  0.00    +0.000 C 
ATOM     27  C   UNL     1       4.675   2.847  19.717  0.00  0.00    +0.000 C 
ATOM     28  C   UNL     1       3.083   4.740  20.064  0.00  0.00    +0.000 C 
ENDBRANCH   3  25
TORSDOF 4
ENDMDL
MODEL 7
REMARK VINA RESULT:      -7.7      6.138      7.947
REMARK  Name = 
REMARK  9 active torsions:
REMARK  status: ('A' for Active; 'I' for Inactive)
REMARK    1  A    between atoms: C_1  and  N_2
REMARK    2  A    between atoms: C_3  and  C_5
REMARK    3  A    between atoms: C_7  and  C_8
REMARK    4  A    between atoms: C_8  and  C_9
REMARK    5  A    between atoms: C_8  and  C_10
REMARK    6  A    between atoms: C_8  and  C_11
REMARK    7  A    between atoms: C_13  and  N_14
REMARK    8  A    between atoms: N_17  and  C_18
REMARK    9  A    between atoms: C_21  and  C_22
REMARK                            x       y       z     vdW  Elec       q    Type
REMARK                         _______ _______ _______ _____ _____    ______ ____
ROOT
ATOM      1  C   UNL     1       2.614   6.347  19.002  0.00  0.00    +0.000 A 
ATOM      2  N   UNL     1       2.539   4.969  18.899  0.00  0.00    +0.000 N 
ATOM      3  C   UNL     1       1.938   4.416  20.004  0.00  0.00    +0.000 A 
ATOM      4  C   UNL     1       1.606   5.479  20.821  0.00  0.00    +0.000 A 
ATOM      5  C   UNL     1       2.052   6.689  20.224  0.00  0.00    +0.000 A 
ATOM      6  H   UNL     1       2.910   4.452  18.111  0.00  0.00    +0.000 HD
ENDROOT
BRANCH   5   7
ATOM      7  N   UNL     1       1.972   7.973  20.768  0.00  0.00    +0.000 N 
ATOM      8  C   UNL     1       0.759   8.563  21.103  0.00  0.00    +0.000 C 
ATOM      9  O   UNL     1      -0.316   7.967  21.086  0.00  0.00    +0.000 OA
ATOM     10  N   UNL     1       0.891   9.909  21.414  0.00  0.00    +0.000 N 
ATOM     11  H   UNL     1       2.809   8.348  21.191  0.00  0.00    +0.000 HD
ATOM     12  H   UNL     1       1.721  10.365  21.065  0.00  0.00    +0.000 HD
BRANCH  10  13
ATOM     13  C   UNL     1      -0.200  10.752  21.756  0.00  0.00    +0.000 A 
ATOM     14  C   UNL     1      -0.802  10.735  23.017  0.00  0.00    +0.000 A 
ATOM     15  C   UNL     1      -1.943  11.497  23.284  0.00  0.00    +0.000 A 
ATOM     16  C   UNL     1      -2.496  12.310  22.294  0.00  0.00    +0.000 A 
ATOM     17  C   UNL     1      -3.760  13.073  22.558  0.00  0.00    +0.000 C 
ATOM     18  C   UNL     1      -1.860  12.384  21.049  0.00  0.00    +0.000 A 
ATOM     19  C   UNL     1      -0.714  11.617  20.785  0.00  0.00    +0.000 A 
ENDBRANCH  10  13
ENDBRANCH   5   7
BRANCH   1  22
ATOM     20  C   UNL     1       4.987   7.117  16.239  0.00  0.00    +0.000 C 
ATOM     21  N   UNL     1       4.244   6.430  17.266  0.00  0.00    +0.000 N 
ATOM     22  C   UNL     1       3.276   7.112  17.972  0.00  0.00    +0.000 C 
ATOM     23  O   UNL     1       3.029   8.298  17.774  0.00  0.00    +0.000 OA
ATOM     24  H   UNL     1       4.687   5.664  17.758  0.00  0.00    +0.000 HD
ENDBRANCH   1  22
BRANCH   3  25
ATOM     25  C   UNL     1       1.752   2.921  20.188  0.00  0.00    +0.000 C 
ATOM     26  C   UNL     1       0.630   2.406  19.266  0.00  0.00    +0.000 C 
ATOM     27  C   UNL     1       3.045   2.154  19.834  0.00  0.00    +0.000 C 
ATOM     28  C   UNL     1       1.395   2.614  21.652  0.00  0.00    +0.000 C 
ENDBRANCH   3  25
TORSDOF 4
ENDMDL
MODEL 8
REMARK VINA RESULT:      -7.6      5.006      6.186
REMARK  Name = 
REMARK  9 active torsions:
REMARK  status: ('A' for Active; 'I' for Inactive)
REMARK    1  A    between atoms: C_1  and  N_2
REMARK    2  A    between atoms: C_3  and  C_5
REMARK    3  A    between atoms: C_7  and  C_8
REMARK    4  A    between atoms: C_8  and  C_9
REMARK    5  A    between atoms: C_8  and  C_10
REMARK    6  A    between atoms: C_8  and  C_11
REMARK    7  A    between atoms: C_13  and  N_14
REMARK    8  A    between atoms: N_17  and  C_18
REMARK    9  A    between atoms: C_21  and  C_22
REMARK                            x       y       z     vdW  Elec       q    Type
REMARK                         _______ _______ _______ _____ _____    ______ ____
ROOT
ATOM      1  C   UNL     1       4.091   5.474  17.371  0.00  0.00    +0.000 A 
ATOM      2  N   UNL     1       4.061   4.272  18.056  0.00  0.00    +0.000 N 
ATOM      3  C   UNL     1       3.055   4.256  18.992  0.00  0.00    +0.000 A 
ATOM      4  C   UNL     1       2.419   5.476  18.881  0.00  0.00    +0.000 A 
ATOM      5  C   UNL     1       3.076   6.262  17.896  0.00  0.00    +0.000 A 
ATOM      6  H   UNL     1       4.722   3.524  17.891  0.00  0.00    +0.000 HD
ENDROOT
BRANCH   5   7
ATOM      7  N   UNL     1       2.783   7.581  17.541  0.00  0.00    +0.000 N 
ATOM      8  C   UNL     1       2.123   8.451  18.400  0.00  0.00    +0.000 C 
ATOM      9  O   UNL     1       1.872   8.189  19.575  0.00  0.00    +0.000 OA
ATOM     10  N   UNL     1       1.739   9.628  17.772  0.00  0.00    +0.000 N 
ATOM     11  H   UNL     1       3.314   7.983  16.782  0.00  0.00    +0.000 HD
ATOM     12  H   UNL     1       1.678   9.593  16.765  0.00  0.00    +0.000 HD
BRANCH  10  13
ATOM     13  C   UNL     1       1.019  10.669  18.416  0.00  0.00    +0.000 A 
ATOM     14  C   UNL     1      -0.343  10.575  18.714  0.00  0.00    +0.000 A 
ATOM     15  C   UNL     1      -1.043  11.660  19.246  0.00  0.00    +0.000 A 
ATOM     16  C   UNL     1      -0.387  12.863  19.511  0.00  0.00    +0.000 A 
ATOM     17  C   UNL     1      -1.152  14.050  20.017  0.00  0.00    +0.000 C 
ATOM     18  C   UNL     1       0.992  12.944  19.279  0.00  0.00    +0.000 A 
ATOM     19  C   UNL     1       1.691  11.850  18.743  0.00  0.00    +0.000 A 
ENDBRANCH  10  13
ENDBRANCH   5   7
BRANCH   1  22
ATOM     20  C   UNL     1       6.965   4.771  15.113  0.00  0.00    +0.000 C 
ATOM     21  N   UNL     1       5.887   4.622  16.058  0.00  0.00    +0.000 N 
ATOM     22  C   UNL     1       5.122   5.719  16.391  0.00  0.00    +0.000 C 
ATOM     23  O   UNL     1       5.334   6.835  15.925  0.00  0.00    +0.000 OA
ATOM     24  H   UNL     1       5.959   3.906  16.770  0.00  0.00    +0.000 HD
ENDBRANCH   1  22
BRANCH   3  25
ATOM     25  C   UNL     1       2.804   3.081  19.921  0.00  0.00    +0.000 C 
ATOM     26  C   UNL     1       2.213   3.573  21.256  0.00  0.00    +0.000 C 
ATOM     27  C   UNL     1       1.802   2.086  19.297  0.00  0.00    +0.000 C 
ATOM     28  C   UNL     1       4.122   2.334  20.187  0.00  0.00    +0.000 C 
ENDBRANCH   3  25
TORSDOF 4
ENDMDL
MODEL 9
REMARK VINA RESULT:      -7.6      4.883      6.270
REMARK  Name = 
REMARK  9 active torsions:
REMARK  status: ('A' for Active; 'I' for Inactive)
REMARK    1  A    between atoms: C_1  and  N_2
REMARK    2  A    between atoms: C_3  and  C_5
REMARK    3  A    between atoms: C_7  and  C_8
REMARK    4  A    between atoms: C_8  and  C_9
REMARK    5  A    between atoms: C_8  and  C_10
REMARK    6  A    between atoms: C_8  and  C_11
REMARK    7  A    between atoms: C_13  and  N_14
REMARK    8  A    between atoms: N_17  and  C_18
REMARK    9  A    between atoms: C_21  and  C_22
REMARK                            x       y       z     vdW  Elec       q    Type
REMARK                         _______ _______ _______ _____ _____    ______ ____
ROOT
ATOM      1  C   UNL     1       4.271   5.412  17.439  0.00  0.00    +0.000 A 
ATOM      2  N   UNL     1       4.253   4.210  18.124  0.00  0.00    +0.000 N 
ATOM      3  C   UNL     1       3.225   4.170  19.036  0.00  0.00    +0.000 A 
ATOM      4  C   UNL     1       2.563   5.374  18.908  0.00  0.00    +0.000 A 
ATOM      5  C   UNL     1       3.225   6.176  17.939  0.00  0.00    +0.000 A 
ATOM      6  H   UNL     1       4.935   3.477  17.975  0.00  0.00    +0.000 HD
ENDROOT
BRANCH   5   7
ATOM      7  N   UNL     1       2.909   7.487  17.576  0.00  0.00    +0.000 N 
ATOM      8  C   UNL     1       2.163   8.325  18.395  0.00  0.00    +0.000 C 
ATOM      9  O   UNL     1       1.844   8.042  19.549  0.00  0.00    +0.000 OA
ATOM     10  N   UNL     1       1.780   9.493  17.752  0.00  0.00    +0.000 N 
ATOM     11  H   UNL     1       3.475   7.915  16.857  0.00  0.00    +0.000 HD
ATOM     12  H   UNL     1       1.787   9.466  16.744  0.00  0.00    +0.000 HD
BRANCH  10  13
ATOM     13  C   UNL     1       0.982  10.501  18.355  0.00  0.00    +0.000 A 
ATOM     14  C   UNL     1       1.524  11.656  18.925  0.00  0.00    +0.000 A 
ATOM     15  C   UNL     1       0.720  12.573  19.608  0.00  0.00    +0.000 A 
ATOM     16  C   UNL     1      -0.654  12.361  19.718  0.00  0.00    +0.000 A 
ATOM     17  C   UNL     1      -1.507  13.307  20.509  0.00  0.00    +0.000 C 
ATOM     18  C   UNL     1      -1.216  11.241  19.092  0.00  0.00    +0.000 A 
ATOM     19  C   UNL     1      -0.404  10.323  18.407  0.00  0.00    +0.000 A 
ENDBRANCH  10  13
ENDBRANCH   5   7
BRANCH   1  22
ATOM     20  C   UNL     1       7.026   4.729  15.031  0.00  0.00    +0.000 C 
ATOM     21  N   UNL     1       5.942   4.566  15.967  0.00  0.00    +0.000 N 
ATOM     22  C   UNL     1       5.319   5.681  16.484  0.00  0.00    +0.000 C 
ATOM     23  O   UNL     1       5.664   6.822  16.191  0.00  0.00    +0.000 OA
ATOM     24  H   UNL     1       5.929   3.743  16.558  0.00  0.00    +0.000 HD
ENDBRANCH   1  22
BRANCH   3  25
ATOM     25  C   UNL     1       2.980   2.989  19.959  0.00  0.00    +0.000 C 
ATOM     26  C   UNL     1       2.403   3.474  21.302  0.00  0.00    +0.000 C 
ATOM     27  C   UNL     1       1.970   2.001  19.338  0.00  0.00    +0.000 C 
ATOM     28  C   UNL     1       4.299   2.238  20.208  0.00  0.00    +0.000 C 
ENDBRANCH   3  25
TORSDOF 4
ENDMDL
