MODEL 1
REMARK VINA RESULT:      -7.5      0.000      0.000
REMARK  Name = 
REMARK  6 active torsions:
REMARK  status: ('A' for Active; 'I' for Inactive)
REMARK    1  A    between atoms: C_1  and  O_2
REMARK    2  A    between atoms: O_2  and  C_3
REMARK    3  A    between atoms: C_7  and  C_8
REMARK    4  A    between atoms: C_11  and  N_12
REMARK    5  A    between atoms: C_13  and  C_15
REMARK    6  A    between atoms: C_18  and  C_19
REMARK                            x       y       z     vdW  Elec       q    Type
REMARK                         _______ _______ _______ _____ _____    ______ ____
ROOT
ATOM      1  C   UNL     1       2.466   5.560  19.249  0.00  0.00    +0.000 A 
ATOM      2  C   UNL     1       1.860   5.541  20.515  0.00  0.00    +0.000 A 
ATOM      3  C   UNL     1       1.912   4.403  21.316  0.00  0.00    +0.000 A 
ATOM      4  C   UNL     1       2.566   3.264  20.861  0.00  0.00    +0.000 A 
ATOM      5  C   UNL     1       3.209   3.269  19.614  0.00  0.00    +0.000 A 
ATOM      6  C   UNL     1       3.187   4.429  18.807  0.00  0.00    +0.000 A 
ENDROOT
BRANCH   5   7
ATOM      7  C   UNL     1       3.933   2.048  19.157  0.00  0.00    +0.000 C 
ATOM      8  N   UNL     1       5.043   1.672  19.861  0.00  0.00    +0.000 N 
ATOM      9  O   UNL     1       3.575   1.418  18.166  0.00  0.00    +0.000 OA
ATOM     10  H   UNL     1       5.516   2.298  20.497  0.00  0.00    +0.000 HD
ATOM     11  H   UNL     1       5.589   0.916  19.468  0.00  0.00    +0.000 HD
ENDBRANCH   5   7
BRANCH   6  12
ATOM     12  N   UNL     1       3.861   4.401  17.550  0.00  0.00    +0.000 N 
ATOM     13  C   UNL     1       5.170   4.826  17.389  0.00  0.00    +0.000 C 
ATOM     14  O   UNL     1       5.880   5.256  18.294  0.00  0.00    +0.000 OA
ATOM     15  H   UNL     1       3.548   3.660  16.927  0.00  0.00    +0.000 HD
BRANCH  13  16
ATOM     16  C   UNL     1       5.774   4.666  16.027  0.00  0.00    +0.000 A 
ATOM     17  C   UNL     1       5.014   3.988  15.063  0.00  0.00    +0.000 A 
ATOM     18  C   UNL     1       5.479   3.821  13.756  0.00  0.00    +0.000 A 
ATOM     19  C   UNL     1       6.720   4.335  13.379  0.00  0.00    +0.000 A 
ATOM     20  C   UNL     1       7.207   4.208  11.965  0.00  0.00    +0.000 C 
ATOM     21  C   UNL     1       7.494   5.003  14.337  0.00  0.00    +0.000 A 
ATOM     22  C   UNL     1       7.028   5.169  15.650  0.00  0.00    +0.000 A 
ENDBRANCH  13  16
ENDBRANCH   6  12
BRANCH   1  24
ATOM     23  C   UNL     1       2.171   7.907  18.956  0.00  0.00    +0.000 C 
ATOM     24  O   UNL     1       2.329   6.615  18.377  0.00  0.00    +0.000 OA
ENDBRANCH   1  24
TORSDOF 4
ENDMDL
MODEL 2
REMARK VINA RESULT:      -7.1      1.335      1.415
REMARK  Name = 
REMARK  6 active torsions:
REMARK  status: ('A' for Active; 'I' for Inactive)
REMARK    1  A    between atoms: C_1  and  O_2
REMARK    2  A    between atoms: O_2  and  C_3
REMARK    3  A    between atoms: C_7  and  C_8
REMARK    4  A    between atoms: C_11  and  N_12
REMARK    5  A    between atoms: C_13  and  C_15
REMARK    6  A    between atoms: C_18  and  C_19
REMARK                            x       y       z     vdW  Elec       q    Type
REMARK                         _______ _______ _______ _____ _____    ______ ____
ROOT
ATOM      1  C   UNL     1       2.398   4.986  19.763  0.00  0.00    +0.000 A 
ATOM      2  C   UNL     1       1.499   4.725  20.809  0.00  0.00    +0.000 A 
ATOM      3  C   UNL     1       1.521   3.507  21.485  0.00  0.00    +0.000 A 
ATOM      4  C   UNL     1       2.440   2.530  21.123  0.00  0.00    +0.000 A 
ATOM      5  C   UNL     1       3.372   2.779  20.103  0.00  0.00    +0.000 A 
ATOM      6  C   UNL     1       3.377   4.023  19.432  0.00  0.00    +0.000 A 
ENDROOT
BRANCH   5   7
ATOM      7  C   UNL     1       4.371   1.730  19.751  0.00  0.00    +0.000 C 
ATOM      8  N   UNL     1       4.139   0.989  18.625  0.00  0.00    +0.000 N 
ATOM      9  O   UNL     1       5.349   1.506  20.457  0.00  0.00    +0.000 OA
ATOM     10  H   UNL     1       3.233   0.956  18.179  0.00  0.00    +0.000 HD
ATOM     11  H   UNL     1       4.758   0.205  18.467  0.00  0.00    +0.000 HD
ENDBRANCH   5   7
BRANCH   6  12
ATOM     12  N   UNL     1       4.346   4.246  18.410  0.00  0.00    +0.000 N 
ATOM     13  C   UNL     1       4.119   3.940  17.077  0.00  0.00    +0.000 C 
ATOM     14  O   UNL     1       3.076   3.460  16.640  0.00  0.00    +0.000 OA
ATOM     15  H   UNL     1       4.969   5.029  18.592  0.00  0.00    +0.000 HD
BRANCH  13  16
ATOM     16  C   UNL     1       5.199   4.301  16.103  0.00  0.00    +0.000 A 
ATOM     17  C   UNL     1       5.138   3.712  14.831  0.00  0.00    +0.000 A 
ATOM     18  C   UNL     1       6.081   4.015  13.845  0.00  0.00    +0.000 A 
ATOM     19  C   UNL     1       7.108   4.922  14.107  0.00  0.00    +0.000 A 
ATOM     20  C   UNL     1       8.095   5.294  13.038  0.00  0.00    +0.000 C 
ATOM     21  C   UNL     1       7.186   5.506  15.378  0.00  0.00    +0.000 A 
ATOM     22  C   UNL     1       6.241   5.201  16.369  0.00  0.00    +0.000 A 
ENDBRANCH  13  16
ENDBRANCH   6  12
BRANCH   1  24
ATOM     23  C   UNL     1       2.235   7.363  19.680  0.00  0.00    +0.000 C 
ATOM     24  O   UNL     1       2.326   6.120  18.989  0.00  0.00    +0.000 OA
ENDBRANCH   1  24
TORSDOF 4
ENDMDL
MODEL 3
REMARK VINA RESULT:      -7.1      0.440      1.132
REMARK  Name = 
REMARK  6 active torsions:
REMARK  status: ('A' for Active; 'I' for Inactive)
REMARK    1  A    between atoms: C_1  and  O_2
REMARK    2  A    between atoms: O_2  and  C_3
REMARK    3  A    between atoms: C_7  and  C_8
REMARK    4  A    between atoms: C_11  and  N_12
REMARK    5  A    between atoms: C_13  and  C_15
REMARK    6  A    between atoms: C_18  and  C_19
REMARK                            x       y       z     vdW  Elec       q    Type
REMARK                         _______ _______ _______ _____ _____    ______ ____
ROOT
ATOM      1  C   UNL     1       2.214   5.096  19.482  0.00  0.00    +0.000 A 
ATOM      2  C   UNL     1       1.654   4.997  20.765  0.00  0.00    +0.000 A 
ATOM      3  C   UNL     1       1.854   3.862  21.548  0.00  0.00    +0.000 A 
ATOM      4  C   UNL     1       2.614   2.807  21.058  0.00  0.00    +0.000 A 
ATOM      5  C   UNL     1       3.213   2.895  19.792  0.00  0.00    +0.000 A 
ATOM      6  C   UNL     1       3.039   4.055  19.002  0.00  0.00    +0.000 A 
ENDROOT
BRANCH   5   7
ATOM      7  C   UNL     1       4.051   1.766  19.296  0.00  0.00    +0.000 C 
ATOM      8  N   UNL     1       5.190   1.472  19.993  0.00  0.00    +0.000 N 
ATOM      9  O   UNL     1       3.757   1.141  18.282  0.00  0.00    +0.000 OA
ATOM     10  H   UNL     1       5.600   2.117  20.654  0.00  0.00    +0.000 HD
ATOM     11  H   UNL     1       5.807   0.786  19.577  0.00  0.00    +0.000 HD
ENDBRANCH   5   7
BRANCH   6  12
ATOM     12  N   UNL     1       3.673   4.115  17.726  0.00  0.00    +0.000 N 
ATOM     13  C   UNL     1       4.896   4.732  17.521  0.00  0.00    +0.000 C 
ATOM     14  O   UNL     1       5.557   5.279  18.401  0.00  0.00    +0.000 OA
ATOM     15  H   UNL     1       3.460   3.327  17.119  0.00  0.00    +0.000 HD
BRANCH  13  16
ATOM     16  C   UNL     1       5.478   4.649  16.142  0.00  0.00    +0.000 A 
ATOM     17  C   UNL     1       6.789   5.116  15.970  0.00  0.00    +0.000 A 
ATOM     18  C   UNL     1       7.428   5.048  14.729  0.00  0.00    +0.000 A 
ATOM     19  C   UNL     1       6.769   4.502  13.627  0.00  0.00    +0.000 A 
ATOM     20  C   UNL     1       7.464   4.375  12.303  0.00  0.00    +0.000 C 
ATOM     21  C   UNL     1       5.454   4.044  13.785  0.00  0.00    +0.000 A 
ATOM     22  C   UNL     1       4.812   4.115  15.030  0.00  0.00    +0.000 A 
ENDBRANCH  13  16
ENDBRANCH   6  12
BRANCH   1  24
ATOM     23  C   UNL     1       2.542   7.392  18.933  0.00  0.00    +0.000 C 
ATOM     24  O   UNL     1       1.936   6.139  18.630  0.00  0.00    +0.000 OA
ENDBRANCH   1  24
TORSDOF 4
ENDMDL
MODEL 4
REMARK VINA RESULT:      -6.8      1.220      3.105
REMARK  Name = 
REMARK  6 active torsions:
REMARK  status: ('A' for Active; 'I' for Inactive)
REMARK    1  A    between atoms: C_1  and  O_2
REMARK    2  A    between atoms: O_2  and  C_3
REMARK    3  A    between atoms: C_7  and  C_8
REMARK    4  A    between atoms: C_11  and  N_12
REMARK    5  A    between atoms: C_13  and  C_15
REMARK    6  A    between atoms: C_18  and  C_19
REMARK                            x       y       z     vdW  Elec       q    Type
REMARK                         _______ _______ _______ _____ _____    ______ ____
ROOT
ATOM      1  C   UNL     1       2.630   2.487  19.270  0.00  0.00    +0.000 A 
ATOM      2  C   UNL     1       1.763   2.260  20.350  0.00  0.00    +0.000 A 
ATOM      3  C   UNL     1       1.148   3.322  21.010  0.00  0.00    +0.000 A 
ATOM      4  C   UNL     1       1.395   4.627  20.602  0.00  0.00    +0.000 A 
ATOM      5  C   UNL     1       2.231   4.879  19.503  0.00  0.00    +0.000 A 
ATOM      6  C   UNL     1       2.836   3.807  18.810  0.00  0.00    +0.000 A 
ENDROOT
BRANCH   5   7
ATOM      7  C   UNL     1       2.458   6.285  19.062  0.00  0.00    +0.000 C 
ATOM      8  N   UNL     1       2.653   7.228  20.033  0.00  0.00    +0.000 N 
ATOM      9  O   UNL     1       2.435   6.601  17.876  0.00  0.00    +0.000 OA
ATOM     10  H   UNL     1       2.414   7.064  21.000  0.00  0.00    +0.000 HD
ATOM     11  H   UNL     1       2.684   8.192  19.724  0.00  0.00    +0.000 HD
ENDBRANCH   5   7
BRANCH   6  12
ATOM     12  N   UNL     1       3.670   4.100  17.690  0.00  0.00    +0.000 N 
ATOM     13  C   UNL     1       5.047   4.219  17.788  0.00  0.00    +0.000 C 
ATOM     14  O   UNL     1       5.686   4.081  18.828  0.00  0.00    +0.000 OA
ATOM     15  H   UNL     1       3.310   3.756  16.803  0.00  0.00    +0.000 HD
BRANCH  13  16
ATOM     16  C   UNL     1       5.802   4.452  16.515  0.00  0.00    +0.000 A 
ATOM     17  C   UNL     1       5.250   3.929  15.337  0.00  0.00    +0.000 A 
ATOM     18  C   UNL     1       5.864   4.125  14.096  0.00  0.00    +0.000 A 
ATOM     19  C   UNL     1       7.048   4.858  14.006  0.00  0.00    +0.000 A 
ATOM     20  C   UNL     1       7.688   5.120  12.673  0.00  0.00    +0.000 C 
ATOM     21  C   UNL     1       7.615   5.374  15.178  0.00  0.00    +0.000 A 
ATOM     22  C   UNL     1       7.000   5.176  16.423  0.00  0.00    +0.000 A 
ENDBRANCH  13  16
ENDBRANCH   6  12
BRANCH   1  24
ATOM     23  C   UNL     1       4.465   0.973  19.409  0.00  0.00    +0.000 C 
ATOM     24  O   UNL     1       3.355   1.481  18.676  0.00  0.00    +0.000 OA
ENDBRANCH   1  24
TORSDOF 4
ENDMDL
MODEL 5
REMARK VINA RESULT:      -6.8      1.334      1.737
REMARK  Name = 
REMARK  6 active torsions:
REMARK  status: ('A' for Active; 'I' for Inactive)
REMARK    1  A    between atoms: C_1  and  O_2
REMARK    2  A    between atoms: O_2  and  C_3
REMARK    3  A    between atoms: C_7  and  C_8
REMARK    4  A    between atoms: C_11  and  N_12
REMARK    5  A    between atoms: C_13  and  C_15
REMARK    6  A    between atoms: C_18  and  C_19
REMARK                            x       y       z     vdW  Elec       q    Type
REMARK                         _______ _______ _______ _____ _____    ______ ____
ROOT
ATOM      1  C   UNL     1       2.357   4.987  19.741  0.00  0.00    +0.000 A 
ATOM      2  C   UNL     1       1.511   4.745  20.835  0.00  0.00    +0.000 A 
ATOM      3  C   UNL     1       1.577   3.544  21.539  0.00  0.00    +0.000 A 
ATOM      4  C   UNL     1       2.486   2.565  21.155  0.00  0.00    +0.000 A 
ATOM      5  C   UNL     1       3.366   2.797  20.086  0.00  0.00    +0.000 A 
ATOM      6  C   UNL     1       3.326   4.023  19.385  0.00  0.00    +0.000 A 
ENDROOT
BRANCH   5   7
ATOM      7  C   UNL     1       4.356   1.746  19.711  0.00  0.00    +0.000 C 
ATOM      8  N   UNL     1       4.097   1.006  18.591  0.00  0.00    +0.000 N 
ATOM      9  O   UNL     1       5.349   1.522  20.395  0.00  0.00    +0.000 OA
ATOM     10  H   UNL     1       3.181   0.973  18.166  0.00  0.00    +0.000 HD
ATOM     11  H   UNL     1       4.712   0.221  18.419  0.00  0.00    +0.000 HD
ENDBRANCH   5   7
BRANCH   6  12
ATOM     12  N   UNL     1       4.243   4.228  18.312  0.00  0.00    +0.000 N 
ATOM     13  C   UNL     1       3.965   3.864  17.005  0.00  0.00    +0.000 C 
ATOM     14  O   UNL     1       2.916   3.342  16.635  0.00  0.00    +0.000 OA
ATOM     15  H   UNL     1       4.853   5.033  18.435  0.00  0.00    +0.000 HD
BRANCH  13  16
ATOM     16  C   UNL     1       4.990   4.211  15.968  0.00  0.00    +0.000 A 
ATOM     17  C   UNL     1       6.077   4.996  16.379  0.00  0.00    +0.000 A 
ATOM     18  C   UNL     1       7.101   5.342  15.493  0.00  0.00    +0.000 A 
ATOM     19  C   UNL     1       7.064   4.901  14.169  0.00  0.00    +0.000 A 
ATOM     20  C   UNL     1       8.184   5.222  13.222  0.00  0.00    +0.000 C 
ATOM     21  C   UNL     1       5.977   4.126  13.744  0.00  0.00    +0.000 A 
ATOM     22  C   UNL     1       4.948   3.782  14.634  0.00  0.00    +0.000 A 
ENDBRANCH  13  16
ENDBRANCH   6  12
BRANCH   1  24
ATOM     23  C   UNL     1       2.255   7.364  19.601  0.00  0.00    +0.000 C 
ATOM     24  O   UNL     1       2.237   6.101  18.943  0.00  0.00    +0.000 OA
ENDBRANCH   1  24
TORSDOF 4
ENDMDL
MODEL 6
REMARK VINA RESULT:      -6.8      1.490      3.298
REMARK  Name = 
REMARK  6 active torsions:
REMARK  status: ('A' for Active; 'I' for Inactive)
REMARK    1  A    between atoms: C_1  and  O_2
REMARK    2  A    between atoms: O_2  and  C_3
REMARK    3  A    between atoms: C_7  and  C_8
REMARK    4  A    between atoms: C_11  and  N_12
REMARK    5  A    between atoms: C_13  and  C_15
REMARK    6  A    between atoms: C_18  and  C_19
REMARK                            x       y       z     vdW  Elec       q    Type
REMARK                         _______ _______ _______ _____ _____    ______ ____
ROOT
ATOM      1  C   UNL     1       3.779   2.647  20.417  0.00  0.00    +0.000 A 
ATOM      2  C   UNL     1       2.832   2.386  21.420  0.00  0.00    +0.000 A 
ATOM      3  C   UNL     1       1.826   3.304  21.711  0.00  0.00    +0.000 A 
ATOM      4  C   UNL     1       1.754   4.500  21.007  0.00  0.00    +0.000 A 
ATOM      5  C   UNL     1       2.667   4.770  19.976  0.00  0.00    +0.000 A 
ATOM      6  C   UNL     1       3.674   3.831  19.654  0.00  0.00    +0.000 A 
ENDROOT
BRANCH   5   7
ATOM      7  C   UNL     1       2.553   6.044  19.210  0.00  0.00    +0.000 C 
ATOM      8  N   UNL     1       2.463   7.205  19.927  0.00  0.00    +0.000 N 
ATOM      9  O   UNL     1       2.505   6.059  17.984  0.00  0.00    +0.000 OA
ATOM     10  H   UNL     1       2.230   7.216  20.910  0.00  0.00    +0.000 HD
ATOM     11  H   UNL     1       2.265   8.046  19.398  0.00  0.00    +0.000 HD
ENDBRANCH   5   7
BRANCH   6  12
ATOM     12  N   UNL     1       4.577   4.134  18.592  0.00  0.00    +0.000 N 
ATOM     13  C   UNL     1       4.459   3.586  17.325  0.00  0.00    +0.000 C 
ATOM     14  O   UNL     1       3.577   2.802  16.983  0.00  0.00    +0.000 OA
ATOM     15  H   UNL     1       4.981   5.065  18.644  0.00  0.00    +0.000 HD
BRANCH  13  16
ATOM     16  C   UNL     1       5.434   4.056  16.287  0.00  0.00    +0.000 A 
ATOM     17  C   UNL     1       5.175   3.698  14.956  0.00  0.00    +0.000 A 
ATOM     18  C   UNL     1       6.008   4.119  13.916  0.00  0.00    +0.000 A 
ATOM     19  C   UNL     1       7.122   4.916  14.184  0.00  0.00    +0.000 A 
ATOM     20  C   UNL     1       7.993   5.418  13.069  0.00  0.00    +0.000 C 
ATOM     21  C   UNL     1       7.397   5.268  15.512  0.00  0.00    +0.000 A 
ATOM     22  C   UNL     1       6.562   4.844  16.556  0.00  0.00    +0.000 A 
ENDBRANCH  13  16
ENDBRANCH   6  12
BRANCH   1  24
ATOM     23  C   UNL     1       5.332   1.065  21.291  0.00  0.00    +0.000 C 
ATOM     24  O   UNL     1       4.860   1.829  20.186  0.00  0.00    +0.000 OA
ENDBRANCH   1  24
TORSDOF 4
ENDMDL
MODEL 7
REMARK VINA RESULT:      -6.7      2.430      6.678
REMARK  Name = 
REMARK  6 active torsions:
REMARK  status: ('A' for Active; 'I' for Inactive)
REMARK    1  A    between atoms: C_1  and  O_2
REMARK    2  A    between atoms: O_2  and  C_3
REMARK    3  A    between atoms: C_7  and  C_8
REMARK    4  A    between atoms: C_11  and  N_12
REMARK    5  A    between atoms: C_13  and  C_15
REMARK    6  A    between atoms: C_18  and  C_19
REMARK                            x       y       z     vdW  Elec       q    Type
REMARK                         _______ _______ _______ _____ _____    ______ ____
ROOT
ATOM      1  C   UNL     1       5.400   6.141  17.112  0.00  0.00    +0.000 A 
ATOM      2  C   UNL     1       6.088   5.325  16.200  0.00  0.00    +0.000 A 
ATOM      3  C   UNL     1       5.587   4.077  15.836  0.00  0.00    +0.000 A 
ATOM      4  C   UNL     1       4.392   3.624  16.382  0.00  0.00    +0.000 A 
ATOM      5  C   UNL     1       3.668   4.435  17.270  0.00  0.00    +0.000 A 
ATOM      6  C   UNL     1       4.154   5.715  17.622  0.00  0.00    +0.000 A 
ENDROOT
BRANCH   5   7
ATOM      7  C   UNL     1       2.372   3.944  17.820  0.00  0.00    +0.000 C 
ATOM      8  N   UNL     1       2.422   2.997  18.805  0.00  0.00    +0.000 N 
ATOM      9  O   UNL     1       1.295   4.342  17.387  0.00  0.00    +0.000 OA
ATOM     10  H   UNL     1       3.257   2.458  18.994  0.00  0.00    +0.000 HD
ATOM     11  H   UNL     1       1.539   2.588  19.081  0.00  0.00    +0.000 HD
ENDBRANCH   5   7
BRANCH   6  12
ATOM     12  N   UNL     1       3.385   6.516  18.518  0.00  0.00    +0.000 N 
ATOM     13  C   UNL     1       2.710   7.657  18.116  0.00  0.00    +0.000 C 
ATOM     14  O   UNL     1       2.695   8.090  16.966  0.00  0.00    +0.000 OA
ATOM     15  H   UNL     1       2.972   5.997  19.289  0.00  0.00    +0.000 HD
BRANCH  13  16
ATOM     16  C   UNL     1       1.879   8.355  19.149  0.00  0.00    +0.000 A 
ATOM     17  C   UNL     1       1.807   7.766  20.420  0.00  0.00    +0.000 A 
ATOM     18  C   UNL     1       1.085   8.363  21.458  0.00  0.00    +0.000 A 
ATOM     19  C   UNL     1       0.420   9.571  21.248  0.00  0.00    +0.000 A 
ATOM     20  C   UNL     1      -0.314  10.247  22.370  0.00  0.00    +0.000 C 
ATOM     21  C   UNL     1       0.475  10.162  19.979  0.00  0.00    +0.000 A 
ATOM     22  C   UNL     1       1.198   9.563  18.937  0.00  0.00    +0.000 A 
ENDBRANCH  13  16
ENDBRANCH   6  12
BRANCH   1  24
ATOM     23  C   UNL     1       7.332   7.487  17.482  0.00  0.00    +0.000 C 
ATOM     24  O   UNL     1       5.922   7.318  17.595  0.00  0.00    +0.000 OA
ENDBRANCH   1  24
TORSDOF 4
ENDMDL
MODEL 8
REMARK VINA RESULT:      -6.7      1.574      3.049
REMARK  Name = 
REMARK  6 active torsions:
REMARK  status: ('A' for Active; 'I' for Inactive)
REMARK    1  A    between atoms: C_1  and  O_2
REMARK    2  A    between atoms: O_2  and  C_3
REMARK    3  A    between atoms: C_7  and  C_8
REMARK    4  A    between atoms: C_11  and  N_12
REMARK    5  A    between atoms: C_13  and  C_15
REMARK    6  A    between atoms: C_18  and  C_19
REMARK                            x       y       z     vdW  Elec       q    Type
REMARK                         _______ _______ _______ _____ _____    ______ ____
ROOT
ATOM      1  C   UNL     1       3.769   2.589  20.270  0.00  0.00    +0.000 A 
ATOM      2  C   UNL     1       2.944   2.398  21.389  0.00  0.00    +0.000 A 
ATOM      3  C   UNL     1       1.685   2.991  21.460  0.00  0.00    +0.000 A 
ATOM      4  C   UNL     1       1.235   3.788  20.414  0.00  0.00    +0.000 A 
ATOM      5  C   UNL     1       2.027   3.966  19.269  0.00  0.00    +0.000 A 
ATOM      6  C   UNL     1       3.293   3.345  19.176  0.00  0.00    +0.000 A 
ENDROOT
BRANCH   5   7
ATOM      7  C   UNL     1       1.513   4.799  18.144  0.00  0.00    +0.000 C 
ATOM      8  N   UNL     1       1.758   6.144  18.191  0.00  0.00    +0.000 N 
ATOM      9  O   UNL     1       0.862   4.312  17.226  0.00  0.00    +0.000 OA
ATOM     10  H   UNL     1       2.044   6.611  19.040  0.00  0.00    +0.000 HD
ATOM     11  H   UNL     1       1.300   6.709  17.486  0.00  0.00    +0.000 HD
ENDBRANCH   5   7
BRANCH   6  12
ATOM     12  N   UNL     1       4.066   3.539  17.993  0.00  0.00    +0.000 N 
ATOM     13  C   UNL     1       4.880   4.643  17.799  0.00  0.00    +0.000 C 
ATOM     14  O   UNL     1       5.028   5.552  18.612  0.00  0.00    +0.000 OA
ATOM     15  H   UNL     1       4.364   2.676  17.545  0.00  0.00    +0.000 HD
BRANCH  13  16
ATOM     16  C   UNL     1       5.694   4.675  16.541  0.00  0.00    +0.000 A 
ATOM     17  C   UNL     1       5.102   4.155  15.381  0.00  0.00    +0.000 A 
ATOM     18  C   UNL     1       5.770   4.174  14.153  0.00  0.00    +0.000 A 
ATOM     19  C   UNL     1       7.049   4.722  14.056  0.00  0.00    +0.000 A 
ATOM     20  C   UNL     1       7.754   4.796  12.732  0.00  0.00    +0.000 C 
ATOM     21  C   UNL     1       7.655   5.233  15.211  0.00  0.00    +0.000 A 
ATOM     22  C   UNL     1       6.986   5.213  16.443  0.00  0.00    +0.000 A 
ENDBRANCH  13  16
ENDBRANCH   6  12
BRANCH   1  24
ATOM     23  C   UNL     1       5.385   1.021  21.052  0.00  0.00    +0.000 C 
ATOM     24  O   UNL     1       5.064   2.129  20.216  0.00  0.00    +0.000 OA
ENDBRANCH   1  24
TORSDOF 4
ENDMDL
MODEL 9
REMARK VINA RESULT:      -6.7      1.124      1.551
REMARK  Name = 
REMARK  6 active torsions:
REMARK  status: ('A' for Active; 'I' for Inactive)
REMARK    1  A    between atoms: C_1  and  O_2
REMARK    2  A    between atoms: O_2  and  C_3
REMARK    3  A    between atoms: C_7  and  C_8
REMARK    4  A    between atoms: C_11  and  N_12
REMARK    5  A    between atoms: C_13  and  C_15
REMARK    6  A    between atoms: C_18  and  C_19
REMARK                            x       y       z     vdW  Elec       q    Type
REMARK                         _______ _______ _______ _____ _____    ______ ____
ROOT
ATOM      1  C   UNL     1       2.738   6.358  18.976  0.00  0.00    +0.000 A 
ATOM      2  C   UNL     1       2.146   6.469  20.244  0.00  0.00    +0.000 A 
ATOM      3  C   UNL     1       1.717   5.338  20.935  0.00  0.00    +0.000 A 
ATOM      4  C   UNL     1       1.869   4.079  20.366  0.00  0.00    +0.000 A 
ATOM      5  C   UNL     1       2.489   3.938  19.115  0.00  0.00    +0.000 A 
ATOM      6  C   UNL     1       2.954   5.078  18.419  0.00  0.00    +0.000 A 
ENDROOT
BRANCH   5   7
ATOM      7  C   UNL     1       2.671   2.576  18.536  0.00  0.00    +0.000 C 
ATOM      8  N   UNL     1       1.583   1.748  18.513  0.00  0.00    +0.000 N 
ATOM      9  O   UNL     1       3.762   2.190  18.126  0.00  0.00    +0.000 OA
ATOM     10  H   UNL     1       0.761   1.924  19.073  0.00  0.00    +0.000 HD
ATOM     11  H   UNL     1       1.752   0.792  18.230  0.00  0.00    +0.000 HD
ENDBRANCH   5   7
BRANCH   6  12
ATOM     12  N   UNL     1       3.589   4.896  17.155  0.00  0.00    +0.000 N 
ATOM     13  C   UNL     1       4.957   5.023  16.976  0.00  0.00    +0.000 C 
ATOM     14  O   UNL     1       5.756   5.293  17.869  0.00  0.00    +0.000 OA
ATOM     15  H   UNL     1       3.114   4.237  16.543  0.00  0.00    +0.000 HD
BRANCH  13  16
ATOM     16  C   UNL     1       5.494   4.726  15.608  0.00  0.00    +0.000 A 
ATOM     17  C   UNL     1       6.788   5.182  15.315  0.00  0.00    +0.000 A 
ATOM     18  C   UNL     1       7.386   4.924  14.078  0.00  0.00    +0.000 A 
ATOM     19  C   UNL     1       6.703   4.194  13.104  0.00  0.00    +0.000 A 
ATOM     20  C   UNL     1       7.356   3.865  11.793  0.00  0.00    +0.000 C 
ATOM     21  C   UNL     1       5.406   3.744  13.382  0.00  0.00    +0.000 A 
ATOM     22  C   UNL     1       4.804   4.006  14.623  0.00  0.00    +0.000 A 
ENDBRANCH  13  16
ENDBRANCH   6  12
BRANCH   1  24
ATOM     23  C   UNL     1       2.011   8.387  17.960  0.00  0.00    +0.000 C 
ATOM     24  O   UNL     1       3.057   7.453  18.208  0.00  0.00    +0.000 OA
ENDBRANCH   1  24
TORSDOF 4
ENDMDL
