MODEL 1
REMARK VINA RESULT:      -7.8      0.000      0.000
REMARK  Name = 
REMARK  12 active torsions:
REMARK  status: ('A' for Active; 'I' for Inactive)
REMARK    1  A    between atoms: C_1  and  C_2
REMARK    2  A    between atoms: C_2  and  N_3
REMARK    3  A    between atoms: C_4  and  C_5
REMARK    4  A    between atoms: C_5  and  O_6
REMARK    5  A    between atoms: O_6  and  C_7
REMARK    6  A    between atoms: C_9  and  C_10
REMARK    7  A    between atoms: C_13  and  C_14
REMARK    8  A    between atoms: C_14  and  C_15
REMARK    9  A    between atoms: C_14  and  C_16
REMARK   10  A    between atoms: C_19  and  S_20
REMARK   11  A    between atoms: S_20  and  C_21
REMARK   12  A    between atoms: C_21  and  C_22
REMARK                            x       y       z     vdW  Elec       q    Type
REMARK                         _______ _______ _______ _____ _____    ______ ____
ROOT
ATOM      1  N   UNL     1       1.029   9.405  20.091  0.00  0.00    +0.000 N 
ATOM      2  C   UNL     1       1.700   8.514  19.268  0.00  0.00    +0.000 A 
ATOM      3  N   UNL     1       1.492   8.881  18.013  0.00  0.00    +0.000 NA
ATOM      4  N   UNL     1       0.702  10.003  18.001  0.00  0.00    +0.000 NA
ATOM      5  C   UNL     1       0.461  10.328  19.249  0.00  0.00    +0.000 A 
ENDROOT
BRANCH   1   7
ATOM      6  C   UNL     1      -0.332   8.664  22.042  0.00  0.00    +0.000 C 
ATOM      7  C   UNL     1       0.922   9.361  21.534  0.00  0.00    +0.000 C 
ENDBRANCH   1   7
BRANCH   2   8
ATOM      8  C   UNL     1       2.362   7.232  19.681  0.00  0.00    +0.000 C 
BRANCH   8   9
ATOM      9  O   UNL     1       3.247   6.751  18.659  0.00  0.00    +0.000 OA
BRANCH   9  10
ATOM     10  C   UNL     1       3.100   5.419  18.312  0.00  0.00    +0.000 A 
ATOM     11  C   UNL     1       1.992   4.637  18.694  0.00  0.00    +0.000 A 
ATOM     12  C   UNL     1       1.865   3.293  18.303  0.00  0.00    +0.000 A 
ATOM     13  C   UNL     1       0.672   2.472  18.697  0.00  0.00    +0.000 C 
ATOM     14  C   UNL     1       2.861   2.717  17.520  0.00  0.00    +0.000 A 
ATOM     15  C   UNL     1       3.972   3.469  17.152  0.00  0.00    +0.000 A 
ATOM     16  C   UNL     1       4.120   4.820  17.541  0.00  0.00    +0.000 A 
BRANCH  16  17
ATOM     17  C   UNL     1       5.392   5.521  17.086  0.00  0.00    +0.000 C 
ATOM     18  C   UNL     1       6.628   4.627  17.165  0.00  0.00    +0.000 C 
ATOM     19  C   UNL     1       5.229   6.166  15.708  0.00  0.00    +0.000 C 
ENDBRANCH  16  17
ENDBRANCH   9  10
ENDBRANCH   8   9
ENDBRANCH   2   8
BRANCH   5  20
ATOM     20  S   UNL     1      -0.461  11.700  19.762  0.00  0.00    +0.000 S 
BRANCH  20  21
ATOM     21  C   UNL     1      -1.217  12.266  18.208  0.00  0.00    +0.000 C 
BRANCH  21  22
ATOM     22  C   UNL     1      -2.592  11.643  18.043  0.00  0.00    +0.000 C 
ATOM     23  O   UNL     1      -2.777  10.738  17.234  0.00  0.00    +0.000 OA
ATOM     24  N   UNL     1      -3.539  12.235  18.851  0.00  0.00    +0.000 N 
ATOM     25  C   UNL     1      -4.855  11.868  18.810  0.00  0.00    +0.000 A 
ATOM     26  N   UNL     1      -5.415  10.839  18.229  0.00  0.00    +0.000 NA
ATOM     27  C   UNL     1      -6.782  10.903  18.405  0.00  0.00    +0.000 A 
ATOM     28  C   UNL     1      -7.238  11.997  19.112  0.00  0.00    +0.000 A 
ATOM     29  S   UNL     1      -5.901  12.946  19.624  0.00  0.00    +0.000 S 
ATOM     30  H   UNL     1      -3.316  13.072  19.379  0.00  0.00    +0.000 HD
ENDBRANCH  21  22
ENDBRANCH  20  21
ENDBRANCH   5  20
TORSDOF 8
ENDMDL
MODEL 2
REMARK VINA RESULT:      -7.6      2.368      4.025
REMARK  Name = 
REMARK  12 active torsions:
REMARK  status: ('A' for Active; 'I' for Inactive)
REMARK    1  A    between atoms: C_1  and  C_2
REMARK    2  A    between atoms: C_2  and  N_3
REMARK    3  A    between atoms: C_4  and  C_5
REMARK    4  A    between atoms: C_5  and  O_6
REMARK    5  A    between atoms: O_6  and  C_7
REMARK    6  A    between atoms: C_9  and  C_10
REMARK    7  A    between atoms: C_13  and  C_14
REMARK    8  A    between atoms: C_14  and  C_15
REMARK    9  A    between atoms: C_14  and  C_16
REMARK   10  A    between atoms: C_19  and  S_20
REMARK   11  A    between atoms: S_20  and  C_21
REMARK   12  A    between atoms: C_21  and  C_22
REMARK                            x       y       z     vdW  Elec       q    Type
REMARK                         _______ _______ _______ _____ _____    ______ ____
ROOT
ATOM      1  N   UNL     1       2.331   6.108  19.005  0.00  0.00    +0.000 N 
ATOM      2  C   UNL     1       3.226   5.749  18.009  0.00  0.00    +0.000 A 
ATOM      3  N   UNL     1       3.632   6.856  17.406  0.00  0.00    +0.000 NA
ATOM      4  N   UNL     1       3.022   7.935  17.996  0.00  0.00    +0.000 NA
ATOM      5  C   UNL     1       2.275   7.479  18.974  0.00  0.00    +0.000 A 
ENDROOT
BRANCH   1   7
ATOM      6  C   UNL     1       2.384   4.712  21.067  0.00  0.00    +0.000 C 
ATOM      7  C   UNL     1       1.586   5.227  19.878  0.00  0.00    +0.000 C 
ENDBRANCH   1   7
BRANCH   2   8
ATOM      8  C   UNL     1       3.528   4.359  17.530  0.00  0.00    +0.000 C 
BRANCH   8   9
ATOM      9  O   UNL     1       4.932   4.075  17.613  0.00  0.00    +0.000 OA
BRANCH   9  10
ATOM     10  C   UNL     1       5.673   4.360  16.478  0.00  0.00    +0.000 A 
ATOM     11  C   UNL     1       5.474   3.715  15.243  0.00  0.00    +0.000 A 
ATOM     12  C   UNL     1       6.230   4.047  14.104  0.00  0.00    +0.000 A 
ATOM     13  C   UNL     1       5.999   3.369  12.785  0.00  0.00    +0.000 C 
ATOM     14  C   UNL     1       7.201   5.039  14.201  0.00  0.00    +0.000 A 
ATOM     15  C   UNL     1       7.424   5.671  15.420  0.00  0.00    +0.000 A 
ATOM     16  C   UNL     1       6.680   5.345  16.576  0.00  0.00    +0.000 A 
BRANCH  16  17
ATOM     17  C   UNL     1       7.038   6.100  17.848  0.00  0.00    +0.000 C 
ATOM     18  C   UNL     1       7.947   5.302  18.781  0.00  0.00    +0.000 C 
ATOM     19  C   UNL     1       7.593   7.495  17.550  0.00  0.00    +0.000 C 
ENDBRANCH  16  17
ENDBRANCH   9  10
ENDBRANCH   8   9
ENDBRANCH   2   8
BRANCH   5  20
ATOM     20  S   UNL     1       1.333   8.457  20.048  0.00  0.00    +0.000 S 
BRANCH  20  21
ATOM     21  C   UNL     1       1.156  10.006  19.112  0.00  0.00    +0.000 C 
BRANCH  21  22
ATOM     22  C   UNL     1      -0.296  10.451  19.116  0.00  0.00    +0.000 C 
ATOM     23  O   UNL     1      -0.893  10.631  20.174  0.00  0.00    +0.000 OA
ATOM     24  N   UNL     1      -0.814  10.570  17.845  0.00  0.00    +0.000 N 
ATOM     25  C   UNL     1      -2.124  10.895  17.626  0.00  0.00    +0.000 A 
ATOM     26  N   UNL     1      -3.024  11.336  18.466  0.00  0.00    +0.000 NA
ATOM     27  C   UNL     1      -4.230  11.475  17.810  0.00  0.00    +0.000 A 
ATOM     28  C   UNL     1      -4.225  11.120  16.477  0.00  0.00    +0.000 A 
ATOM     29  S   UNL     1      -2.639  10.652  16.015  0.00  0.00    +0.000 S 
ATOM     30  H   UNL     1      -0.282  10.259  17.039  0.00  0.00    +0.000 HD
ENDBRANCH  21  22
ENDBRANCH  20  21
ENDBRANCH   5  20
TORSDOF 8
ENDMDL
MODEL 3
REMARK VINA RESULT:      -7.5      3.014      4.542
REMARK  Name = 
REMARK  12 active torsions:
REMARK  status: ('A' for Active; 'I' for Inactive)
REMARK    1  A    between atoms: C_1  and  C_2
REMARK    2  A    between atoms: C_2  and  N_3
REMARK    3  A    between atoms: C_4  and  C_5
REMARK    4  A    between atoms: C_5  and  O_6
REMARK    5  A    between atoms: O_6  and  C_7
REMARK    6  A    between atoms: C_9  and  C_10
REMARK    7  A    between atoms: C_13  and  C_14
REMARK    8  A    between atoms: C_14  and  C_15
REMARK    9  A    between atoms: C_14  and  C_16
REMARK   10  A    between atoms: C_19  and  S_20
REMARK   11  A    between atoms: S_20  and  C_21
REMARK   12  A    between atoms: C_21  and  C_22
REMARK                            x       y       z     vdW  Elec       q    Type
REMARK                         _______ _______ _______ _____ _____    ______ ____
ROOT
ATOM      1  N   UNL     1       2.597   5.641  19.712  0.00  0.00    +0.000 N 
ATOM      2  C   UNL     1       3.159   5.505  18.452  0.00  0.00    +0.000 A 
ATOM      3  N   UNL     1       3.080   6.676  17.840  0.00  0.00    +0.000 NA
ATOM      4  N   UNL     1       2.483   7.581  18.683  0.00  0.00    +0.000 NA
ATOM      5  C   UNL     1       2.232   6.961  19.812  0.00  0.00    +0.000 A 
ENDROOT
BRANCH   1   7
ATOM      6  C   UNL     1       1.070   3.889  20.610  0.00  0.00    +0.000 C 
ATOM      7  C   UNL     1       2.408   4.608  20.708  0.00  0.00    +0.000 C 
ENDBRANCH   1   7
BRANCH   2   8
ATOM      8  C   UNL     1       3.581   4.225  17.790  0.00  0.00    +0.000 C 
BRANCH   8   9
ATOM      9  O   UNL     1       5.007   4.066  17.830  0.00  0.00    +0.000 OA
BRANCH   9  10
ATOM     10  C   UNL     1       5.681   4.379  16.662  0.00  0.00    +0.000 A 
ATOM     11  C   UNL     1       5.459   3.718  15.439  0.00  0.00    +0.000 A 
ATOM     12  C   UNL     1       6.145   4.079  14.267  0.00  0.00    +0.000 A 
ATOM     13  C   UNL     1       5.889   3.383  12.962  0.00  0.00    +0.000 C 
ATOM     14  C   UNL     1       7.071   5.117  14.316  0.00  0.00    +0.000 A 
ATOM     15  C   UNL     1       7.318   5.766  15.521  0.00  0.00    +0.000 A 
ATOM     16  C   UNL     1       6.643   5.412  16.710  0.00  0.00    +0.000 A 
BRANCH  16  17
ATOM     17  C   UNL     1       7.020   6.191  17.962  0.00  0.00    +0.000 C 
ATOM     18  C   UNL     1       7.917   5.399  18.911  0.00  0.00    +0.000 C 
ATOM     19  C   UNL     1       7.601   7.567  17.628  0.00  0.00    +0.000 C 
ENDBRANCH  16  17
ENDBRANCH   9  10
ENDBRANCH   8   9
ENDBRANCH   2   8
BRANCH   5  20
ATOM     20  S   UNL     1       1.518   7.688  21.211  0.00  0.00    +0.000 S 
BRANCH  20  21
ATOM     21  C   UNL     1       0.850   9.243  20.545  0.00  0.00    +0.000 C 
BRANCH  21  22
ATOM     22  C   UNL     1      -0.067   9.892  21.567  0.00  0.00    +0.000 C 
ATOM     23  O   UNL     1      -0.180   9.422  22.695  0.00  0.00    +0.000 OA
ATOM     24  N   UNL     1      -0.736  10.984  21.056  0.00  0.00    +0.000 N 
ATOM     25  C   UNL     1      -1.660  11.673  21.789  0.00  0.00    +0.000 A 
ATOM     26  N   UNL     1      -1.928  11.605  23.067  0.00  0.00    +0.000 NA
ATOM     27  C   UNL     1      -2.982  12.447  23.359  0.00  0.00    +0.000 A 
ATOM     28  C   UNL     1      -3.506  13.134  22.283  0.00  0.00    +0.000 A 
ATOM     29  S   UNL     1      -2.610  12.755  20.869  0.00  0.00    +0.000 S 
ATOM     30  H   UNL     1      -0.683  11.205  20.067  0.00  0.00    +0.000 HD
ENDBRANCH  21  22
ENDBRANCH  20  21
ENDBRANCH   5  20
TORSDOF 8
ENDMDL
MODEL 4
REMARK VINA RESULT:      -7.4      1.131      1.205
REMARK  Name = 
REMARK  12 active torsions:
REMARK  status: ('A' for Active; 'I' for Inactive)
REMARK    1  A    between atoms: C_1  and  C_2
REMARK    2  A    between atoms: C_2  and  N_3
REMARK    3  A    between atoms: C_4  and  C_5
REMARK    4  A    between atoms: C_5  and  O_6
REMARK    5  A    between atoms: O_6  and  C_7
REMARK    6  A    between atoms: C_9  and  C_10
REMARK    7  A    between atoms: C_13  and  C_14
REMARK    8  A    between atoms: C_14  and  C_15
REMARK    9  A    between atoms: C_14  and  C_16
REMARK   10  A    between atoms: C_19  and  S_20
REMARK   11  A    between atoms: S_20  and  C_21
REMARK   12  A    between atoms: C_21  and  C_22
REMARK                            x       y       z     vdW  Elec       q    Type
REMARK                         _______ _______ _______ _____ _____    ______ ____
ROOT
ATOM      1  N   UNL     1       1.216   9.458  20.113  0.00  0.00    +0.000 N 
ATOM      2  C   UNL     1       1.835   8.649  19.173  0.00  0.00    +0.000 A 
ATOM      3  N   UNL     1       1.748   9.249  17.996  0.00  0.00    +0.000 NA
ATOM      4  N   UNL     1       1.090  10.444  18.151  0.00  0.00    +0.000 NA
ATOM      5  C   UNL     1       0.809  10.575  19.426  0.00  0.00    +0.000 A 
ENDROOT
BRANCH   1   7
ATOM      6  C   UNL     1      -0.326   8.531  21.836  0.00  0.00    +0.000 C 
ATOM      7  C   UNL     1       1.014   9.179  21.518  0.00  0.00    +0.000 C 
ENDBRANCH   1   7
BRANCH   2   8
ATOM      8  C   UNL     1       2.322   7.244  19.378  0.00  0.00    +0.000 C 
BRANCH   8   9
ATOM      9  O   UNL     1       2.971   6.743  18.200  0.00  0.00    +0.000 OA
BRANCH   9  10
ATOM     10  C   UNL     1       2.940   5.368  18.034  0.00  0.00    +0.000 A 
ATOM     11  C   UNL     1       1.881   4.558  18.488  0.00  0.00    +0.000 A 
ATOM     12  C   UNL     1       1.872   3.167  18.280  0.00  0.00    +0.000 A 
ATOM     13  C   UNL     1       0.732   2.312  18.750  0.00  0.00    +0.000 C 
ATOM     14  C   UNL     1       2.939   2.575  17.610  0.00  0.00    +0.000 A 
ATOM     15  C   UNL     1       4.002   3.359  17.174  0.00  0.00    +0.000 A 
ATOM     16  C   UNL     1       4.031   4.756  17.379  0.00  0.00    +0.000 A 
BRANCH  16  17
ATOM     17  C   UNL     1       5.262   5.491  16.868  0.00  0.00    +0.000 C 
ATOM     18  C   UNL     1       6.530   5.149  17.648  0.00  0.00    +0.000 C 
ATOM     19  C   UNL     1       5.446   5.320  15.359  0.00  0.00    +0.000 C 
ENDBRANCH  16  17
ENDBRANCH   9  10
ENDBRANCH   8   9
ENDBRANCH   2   8
BRANCH   5  20
ATOM     20  S   UNL     1       0.014  11.939  20.136  0.00  0.00    +0.000 S 
BRANCH  20  21
ATOM     21  C   UNL     1      -1.320  12.276  18.947  0.00  0.00    +0.000 C 
BRANCH  21  22
ATOM     22  C   UNL     1      -2.653  12.347  19.672  0.00  0.00    +0.000 C 
ATOM     23  O   UNL     1      -2.698  12.526  20.885  0.00  0.00    +0.000 OA
ATOM     24  N   UNL     1      -3.724  12.151  18.826  0.00  0.00    +0.000 N 
ATOM     25  C   UNL     1      -5.010  12.111  19.285  0.00  0.00    +0.000 A 
ATOM     26  N   UNL     1      -5.485  12.434  20.460  0.00  0.00    +0.000 NA
ATOM     27  C   UNL     1      -6.841  12.178  20.491  0.00  0.00    +0.000 A 
ATOM     28  C   UNL     1      -7.370  11.646  19.332  0.00  0.00    +0.000 A 
ATOM     29  S   UNL     1      -6.136  11.520  18.145  0.00  0.00    +0.000 S 
ATOM     30  H   UNL     1      -3.575  11.867  17.863  0.00  0.00    +0.000 HD
ENDBRANCH  21  22
ENDBRANCH  20  21
ENDBRANCH   5  20
TORSDOF 8
ENDMDL
MODEL 5
REMARK VINA RESULT:      -7.3      2.347      3.716
REMARK  Name = 
REMARK  12 active torsions:
REMARK  status: ('A' for Active; 'I' for Inactive)
REMARK    1  A    between atoms: C_1  and  C_2
REMARK    2  A    between atoms: C_2  and  N_3
REMARK    3  A    between atoms: C_4  and  C_5
REMARK    4  A    between atoms: C_5  and  O_6
REMARK    5  A    between atoms: O_6  and  C_7
REMARK    6  A    between atoms: C_9  and  C_10
REMARK    7  A    between atoms: C_13  and  C_14
REMARK    8  A    between atoms: C_14  and  C_15
REMARK    9  A    between atoms: C_14  and  C_16
REMARK   10  A    between atoms: C_19  and  S_20
REMARK   11  A    between atoms: S_20  and  C_21
REMARK   12  A    between atoms: C_21  and  C_22
REMARK                            x       y       z     vdW  Elec       q    Type
REMARK                         _______ _______ _______ _____ _____    ______ ____
ROOT
ATOM      1  N   UNL     1       0.735   9.760  20.297  0.00  0.00    +0.000 N 
ATOM      2  C   UNL     1       1.032   8.572  20.947  0.00  0.00    +0.000 A 
ATOM      3  N   UNL     1       0.346   8.543  22.079  0.00  0.00    +0.000 NA
ATOM      4  N   UNL     1      -0.403   9.690  22.177  0.00  0.00    +0.000 NA
ATOM      5  C   UNL     1      -0.189  10.393  21.090  0.00  0.00    +0.000 A 
ENDROOT
BRANCH   1   7
ATOM      6  C   UNL     1       0.964   9.397  17.843  0.00  0.00    +0.000 C 
ATOM      7  C   UNL     1       1.300  10.250  19.057  0.00  0.00    +0.000 C 
ENDBRANCH   1   7
BRANCH   2   8
ATOM      8  C   UNL     1       2.099   7.585  20.573  0.00  0.00    +0.000 C 
BRANCH   8   9
ATOM      9  O   UNL     1       1.534   6.417  19.960  0.00  0.00    +0.000 OA
BRANCH   9  10
ATOM     10  C   UNL     1       2.330   5.785  19.019  0.00  0.00    +0.000 A 
ATOM     11  C   UNL     1       3.260   6.466  18.210  0.00  0.00    +0.000 A 
ATOM     12  C   UNL     1       4.069   5.788  17.281  0.00  0.00    +0.000 A 
ATOM     13  C   UNL     1       5.072   6.517  16.436  0.00  0.00    +0.000 C 
ATOM     14  C   UNL     1       3.947   4.407  17.157  0.00  0.00    +0.000 A 
ATOM     15  C   UNL     1       3.018   3.723  17.934  0.00  0.00    +0.000 A 
ATOM     16  C   UNL     1       2.192   4.388  18.867  0.00  0.00    +0.000 A 
BRANCH  16  17
ATOM     17  C   UNL     1       1.207   3.523  19.639  0.00  0.00    +0.000 C 
ATOM     18  C   UNL     1       0.718   2.315  18.841  0.00  0.00    +0.000 C 
ATOM     19  C   UNL     1       1.747   3.128  21.015  0.00  0.00    +0.000 C 
ENDBRANCH  16  17
ENDBRANCH   9  10
ENDBRANCH   8   9
ENDBRANCH   2   8
BRANCH   5  20
ATOM     20  S   UNL     1      -0.938  11.910  20.720  0.00  0.00    +0.000 S 
BRANCH  20  21
ATOM     21  C   UNL     1      -1.406  12.525  22.366  0.00  0.00    +0.000 C 
BRANCH  21  22
ATOM     22  C   UNL     1      -2.903  12.376  22.569  0.00  0.00    +0.000 C 
ATOM     23  O   UNL     1      -3.352  11.930  23.621  0.00  0.00    +0.000 OA
ATOM     24  N   UNL     1      -3.626  12.748  21.455  0.00  0.00    +0.000 N 
ATOM     25  C   UNL     1      -4.986  12.629  21.403  0.00  0.00    +0.000 A 
ATOM     26  N   UNL     1      -5.837  12.376  22.363  0.00  0.00    +0.000 NA
ATOM     27  C   UNL     1      -7.109  12.292  21.835  0.00  0.00    +0.000 A 
ATOM     28  C   UNL     1      -7.197  12.471  20.470  0.00  0.00    +0.000 A 
ATOM     29  S   UNL     1      -5.639  12.815  19.836  0.00  0.00    +0.000 S 
ATOM     30  H   UNL     1      -3.154  12.967  20.583  0.00  0.00    +0.000 HD
ENDBRANCH  21  22
ENDBRANCH  20  21
ENDBRANCH   5  20
TORSDOF 8
ENDMDL
MODEL 6
REMARK VINA RESULT:      -7.3      2.333      3.909
REMARK  Name = 
REMARK  12 active torsions:
REMARK  status: ('A' for Active; 'I' for Inactive)
REMARK    1  A    between atoms: C_1  and  C_2
REMARK    2  A    between atoms: C_2  and  N_3
REMARK    3  A    between atoms: C_4  and  C_5
REMARK    4  A    between atoms: C_5  and  O_6
REMARK    5  A    between atoms: O_6  and  C_7
REMARK    6  A    between atoms: C_9  and  C_10
REMARK    7  A    between atoms: C_13  and  C_14
REMARK    8  A    between atoms: C_14  and  C_15
REMARK    9  A    between atoms: C_14  and  C_16
REMARK   10  A    between atoms: C_19  and  S_20
REMARK   11  A    between atoms: S_20  and  C_21
REMARK   12  A    between atoms: C_21  and  C_22
REMARK                            x       y       z     vdW  Elec       q    Type
REMARK                         _______ _______ _______ _____ _____    ______ ____
ROOT
ATOM      1  N   UNL     1       2.272   6.565  19.707  0.00  0.00    +0.000 N 
ATOM      2  C   UNL     1       2.873   6.529  18.459  0.00  0.00    +0.000 A 
ATOM      3  N   UNL     1       2.692   7.708  17.884  0.00  0.00    +0.000 NA
ATOM      4  N   UNL     1       1.989   8.519  18.740  0.00  0.00    +0.000 NA
ATOM      5  C   UNL     1       1.774   7.837  19.841  0.00  0.00    +0.000 A 
ENDROOT
BRANCH   1   7
ATOM      6  C   UNL     1       1.039   4.502  20.364  0.00  0.00    +0.000 C 
ATOM      7  C   UNL     1       2.163   5.483  20.663  0.00  0.00    +0.000 C 
ENDBRANCH   1   7
BRANCH   2   8
ATOM      8  C   UNL     1       3.436   5.323  17.766  0.00  0.00    +0.000 C 
BRANCH   8   9
ATOM      9  O   UNL     1       4.867   5.283  17.873  0.00  0.00    +0.000 OA
BRANCH   9  10
ATOM     10  C   UNL     1       5.554   5.078  16.688  0.00  0.00    +0.000 A 
ATOM     11  C   UNL     1       4.993   4.428  15.571  0.00  0.00    +0.000 A 
ATOM     12  C   UNL     1       5.713   4.258  14.375  0.00  0.00    +0.000 A 
ATOM     13  C   UNL     1       5.102   3.583  13.182  0.00  0.00    +0.000 C 
ATOM     14  C   UNL     1       7.015   4.742  14.293  0.00  0.00    +0.000 A 
ATOM     15  C   UNL     1       7.591   5.367  15.395  0.00  0.00    +0.000 A 
ATOM     16  C   UNL     1       6.885   5.541  16.607  0.00  0.00    +0.000 A 
BRANCH  16  17
ATOM     17  C   UNL     1       7.639   6.224  17.738  0.00  0.00    +0.000 C 
ATOM     18  C   UNL     1       7.523   7.747  17.700  0.00  0.00    +0.000 C 
ATOM     19  C   UNL     1       7.266   5.648  19.106  0.00  0.00    +0.000 C 
ENDBRANCH  16  17
ENDBRANCH   9  10
ENDBRANCH   8   9
ENDBRANCH   2   8
BRANCH   5  20
ATOM     20  S   UNL     1       0.959   8.439  21.244  0.00  0.00    +0.000 S 
BRANCH  20  21
ATOM     21  C   UNL     1       1.042  10.240  21.001  0.00  0.00    +0.000 C 
BRANCH  21  22
ATOM     22  C   UNL     1      -0.305  10.762  20.532  0.00  0.00    +0.000 C 
ATOM     23  O   UNL     1      -1.052  11.354  21.306  0.00  0.00    +0.000 OA
ATOM     24  N   UNL     1      -0.560  10.452  19.213  0.00  0.00    +0.000 N 
ATOM     25  C   UNL     1      -1.745  10.772  18.612  0.00  0.00    +0.000 A 
ATOM     26  N   UNL     1      -2.708  11.551  19.032  0.00  0.00    +0.000 NA
ATOM     27  C   UNL     1      -3.741  11.533  18.117  0.00  0.00    +0.000 A 
ATOM     28  C   UNL     1      -3.546  10.722  17.018  0.00  0.00    +0.000 A 
ATOM     29  S   UNL     1      -1.989  10.004  17.106  0.00  0.00    +0.000 S 
ATOM     30  H   UNL     1       0.058   9.833  18.699  0.00  0.00    +0.000 HD
ENDBRANCH  21  22
ENDBRANCH  20  21
ENDBRANCH   5  20
TORSDOF 8
ENDMDL
MODEL 7
REMARK VINA RESULT:      -7.3      4.372     10.010
REMARK  Name = 
REMARK  12 active torsions:
REMARK  status: ('A' for Active; 'I' for Inactive)
REMARK    1  A    between atoms: C_1  and  C_2
REMARK    2  A    between atoms: C_2  and  N_3
REMARK    3  A    between atoms: C_4  and  C_5
REMARK    4  A    between atoms: C_5  and  O_6
REMARK    5  A    between atoms: O_6  and  C_7
REMARK    6  A    between atoms: C_9  and  C_10
REMARK    7  A    between atoms: C_13  and  C_14
REMARK    8  A    between atoms: C_14  and  C_15
REMARK    9  A    between atoms: C_14  and  C_16
REMARK   10  A    between atoms: C_19  and  S_20
REMARK   11  A    between atoms: S_20  and  C_21
REMARK   12  A    between atoms: C_21  and  C_22
REMARK                            x       y       z     vdW  Elec       q    Type
REMARK                         _______ _______ _______ _____ _____    ______ ____
ROOT
ATOM      1  N   UNL     1       2.803   6.763  18.983  0.00  0.00    +0.000 N 
ATOM      2  C   UNL     1       2.272   7.965  18.544  0.00  0.00    +0.000 A 
ATOM      3  N   UNL     1       2.889   8.300  17.422  0.00  0.00    +0.000 NA
ATOM      4  N   UNL     1       3.811   7.330  17.113  0.00  0.00    +0.000 NA
ATOM      5  C   UNL     1       3.725   6.399  18.033  0.00  0.00    +0.000 A 
ENDROOT
BRANCH   1   7
ATOM      6  C   UNL     1       1.451   4.942  20.014  0.00  0.00    +0.000 C 
ATOM      7  C   UNL     1       2.479   6.049  20.200  0.00  0.00    +0.000 C 
ENDBRANCH   1   7
BRANCH   2   8
ATOM      8  C   UNL     1       1.331   8.861  19.297  0.00  0.00    +0.000 C 
BRANCH   8   9
ATOM      9  O   UNL     1       0.446   9.553  18.404  0.00  0.00    +0.000 OA
BRANCH   9  10
ATOM     10  C   UNL     1      -0.247  10.620  18.950  0.00  0.00    +0.000 A 
ATOM     11  C   UNL     1       0.254  11.411  20.002  0.00  0.00    +0.000 A 
ATOM     12  C   UNL     1      -0.469  12.503  20.515  0.00  0.00    +0.000 A 
ATOM     13  C   UNL     1       0.080  13.354  21.623  0.00  0.00    +0.000 C 
ATOM     14  C   UNL     1      -1.712  12.809  19.971  0.00  0.00    +0.000 A 
ATOM     15  C   UNL     1      -2.230  12.024  18.946  0.00  0.00    +0.000 A 
ATOM     16  C   UNL     1      -1.522  10.920  18.422  0.00  0.00    +0.000 A 
BRANCH  16  17
ATOM     17  C   UNL     1      -2.211  10.135  17.315  0.00  0.00    +0.000 C 
ATOM     18  C   UNL     1      -3.472   9.414  17.788  0.00  0.00    +0.000 C 
ATOM     19  C   UNL     1      -2.466  10.996  16.076  0.00  0.00    +0.000 C 
ENDBRANCH  16  17
ENDBRANCH   9  10
ENDBRANCH   8   9
ENDBRANCH   2   8
BRANCH   5  20
ATOM     20  S   UNL     1       4.657   4.941  18.065  0.00  0.00    +0.000 S 
BRANCH  20  21
ATOM     21  C   UNL     1       6.358   5.568  18.213  0.00  0.00    +0.000 C 
BRANCH  21  22
ATOM     22  C   UNL     1       6.965   5.749  16.832  0.00  0.00    +0.000 C 
ATOM     23  O   UNL     1       7.691   6.708  16.588  0.00  0.00    +0.000 OA
ATOM     24  N   UNL     1       6.569   4.766  15.950  0.00  0.00    +0.000 N 
ATOM     25  C   UNL     1       6.949   4.779  14.637  0.00  0.00    +0.000 A 
ATOM     26  N   UNL     1       7.850   5.513  14.038  0.00  0.00    +0.000 NA
ATOM     27  C   UNL     1       7.852   5.221  12.689  0.00  0.00    +0.000 A 
ATOM     28  C   UNL     1       6.934   4.273  12.286  0.00  0.00    +0.000 A 
ATOM     29  S   UNL     1       6.080   3.685  13.654  0.00  0.00    +0.000 S 
ATOM     30  H   UNL     1       5.851   4.098  16.210  0.00  0.00    +0.000 HD
ENDBRANCH  21  22
ENDBRANCH  20  21
ENDBRANCH   5  20
TORSDOF 8
ENDMDL
MODEL 8
REMARK VINA RESULT:      -7.2      2.622      3.751
REMARK  Name = 
REMARK  12 active torsions:
REMARK  status: ('A' for Active; 'I' for Inactive)
REMARK    1  A    between atoms: C_1  and  C_2
REMARK    2  A    between atoms: C_2  and  N_3
REMARK    3  A    between atoms: C_4  and  C_5
REMARK    4  A    between atoms: C_5  and  O_6
REMARK    5  A    between atoms: O_6  and  C_7
REMARK    6  A    between atoms: C_9  and  C_10
REMARK    7  A    between atoms: C_13  and  C_14
REMARK    8  A    between atoms: C_14  and  C_15
REMARK    9  A    between atoms: C_14  and  C_16
REMARK   10  A    between atoms: C_19  and  S_20
REMARK   11  A    between atoms: S_20  and  C_21
REMARK   12  A    between atoms: C_21  and  C_22
REMARK                            x       y       z     vdW  Elec       q    Type
REMARK                         _______ _______ _______ _____ _____    ______ ____
ROOT
ATOM      1  N   UNL     1       0.823   9.106  19.870  0.00  0.00    +0.000 N 
ATOM      2  C   UNL     1       1.859   8.560  19.128  0.00  0.00    +0.000 A 
ATOM      3  N   UNL     1       1.914   9.201  17.971  0.00  0.00    +0.000 NA
ATOM      4  N   UNL     1       0.935  10.164  17.946  0.00  0.00    +0.000 NA
ATOM      5  C   UNL     1       0.313  10.121  19.101  0.00  0.00    +0.000 A 
ENDROOT
BRANCH   1   7
ATOM      6  C   UNL     1       1.259   9.091  22.323  0.00  0.00    +0.000 C 
ATOM      7  C   UNL     1       0.353   8.680  21.172  0.00  0.00    +0.000 C 
ENDBRANCH   1   7
BRANCH   2   8
ATOM      8  C   UNL     1       2.645   7.324  19.455  0.00  0.00    +0.000 C 
BRANCH   8   9
ATOM      9  O   UNL     1       1.960   6.142  19.015  0.00  0.00    +0.000 OA
BRANCH   9  10
ATOM     10  C   UNL     1       2.734   5.211  18.343  0.00  0.00    +0.000 A 
ATOM     11  C   UNL     1       3.769   5.562  17.455  0.00  0.00    +0.000 A 
ATOM     12  C   UNL     1       4.551   4.589  16.808  0.00  0.00    +0.000 A 
ATOM     13  C   UNL     1       5.665   4.970  15.878  0.00  0.00    +0.000 C 
ATOM     14  C   UNL     1       4.294   3.243  17.050  0.00  0.00    +0.000 A 
ATOM     15  C   UNL     1       3.261   2.879  17.908  0.00  0.00    +0.000 A 
ATOM     16  C   UNL     1       2.461   3.843  18.562  0.00  0.00    +0.000 A 
BRANCH  16  17
ATOM     17  C   UNL     1       1.354   3.310  19.460  0.00  0.00    +0.000 C 
ATOM     18  C   UNL     1       0.602   2.131  18.845  0.00  0.00    +0.000 C 
ATOM     19  C   UNL     1       1.859   3.003  20.871  0.00  0.00    +0.000 C 
ENDBRANCH  16  17
ENDBRANCH   9  10
ENDBRANCH   8   9
ENDBRANCH   2   8
BRANCH   5  20
ATOM     20  S   UNL     1      -0.980  11.169  19.575  0.00  0.00    +0.000 S 
BRANCH  20  21
ATOM     21  C   UNL     1      -0.214  12.165  20.890  0.00  0.00    +0.000 C 
BRANCH  21  22
ATOM     22  C   UNL     1      -1.119  12.199  22.108  0.00  0.00    +0.000 C 
ATOM     23  O   UNL     1      -0.715  11.811  23.201  0.00  0.00    +0.000 OA
ATOM     24  N   UNL     1      -2.385  12.658  21.812  0.00  0.00    +0.000 N 
ATOM     25  C   UNL     1      -3.375  12.706  22.752  0.00  0.00    +0.000 A 
ATOM     26  N   UNL     1      -3.300  12.558  24.049  0.00  0.00    +0.000 NA
ATOM     27  C   UNL     1      -4.567  12.630  24.592  0.00  0.00    +0.000 A 
ATOM     28  C   UNL     1      -5.590  12.819  23.685  0.00  0.00    +0.000 A 
ATOM     29  S   UNL     1      -4.934  12.970  22.106  0.00  0.00    +0.000 S 
ATOM     30  H   UNL     1      -2.664  12.817  20.849  0.00  0.00    +0.000 HD
ENDBRANCH  21  22
ENDBRANCH  20  21
ENDBRANCH   5  20
TORSDOF 8
ENDMDL
MODEL 9
REMARK VINA RESULT:      -7.2      1.355      2.793
REMARK  Name = 
REMARK  12 active torsions:
REMARK  status: ('A' for Active; 'I' for Inactive)
REMARK    1  A    between atoms: C_1  and  C_2
REMARK    2  A    between atoms: C_2  and  N_3
REMARK    3  A    between atoms: C_4  and  C_5
REMARK    4  A    between atoms: C_5  and  O_6
REMARK    5  A    between atoms: O_6  and  C_7
REMARK    6  A    between atoms: C_9  and  C_10
REMARK    7  A    between atoms: C_13  and  C_14
REMARK    8  A    between atoms: C_14  and  C_15
REMARK    9  A    between atoms: C_14  and  C_16
REMARK   10  A    between atoms: C_19  and  S_20
REMARK   11  A    between atoms: S_20  and  C_21
REMARK   12  A    between atoms: C_21  and  C_22
REMARK                            x       y       z     vdW  Elec       q    Type
REMARK                         _______ _______ _______ _____ _____    ______ ____
ROOT
ATOM      1  N   UNL     1       1.166   9.639  20.456  0.00  0.00    +0.000 N 
ATOM      2  C   UNL     1       1.722   8.842  19.467  0.00  0.00    +0.000 A 
ATOM      3  N   UNL     1       1.597   9.476  18.312  0.00  0.00    +0.000 NA
ATOM      4  N   UNL     1       0.976  10.681  18.529  0.00  0.00    +0.000 NA
ATOM      5  C   UNL     1       0.756  10.783  19.818  0.00  0.00    +0.000 A 
ENDROOT
BRANCH   1   7
ATOM      6  C   UNL     1      -0.353   8.793  22.239  0.00  0.00    +0.000 C 
ATOM      7  C   UNL     1       1.021   9.326  21.861  0.00  0.00    +0.000 C 
ENDBRANCH   1   7
BRANCH   2   8
ATOM      8  C   UNL     1       2.183   7.420  19.612  0.00  0.00    +0.000 C 
BRANCH   8   9
ATOM      9  O   UNL     1       1.815   6.636  18.468  0.00  0.00    +0.000 OA
BRANCH   9  10
ATOM     10  C   UNL     1       2.746   5.696  18.058  0.00  0.00    +0.000 A 
ATOM     11  C   UNL     1       3.901   6.020  17.322  0.00  0.00    +0.000 A 
ATOM     12  C   UNL     1       4.837   5.041  16.943  0.00  0.00    +0.000 A 
ATOM     13  C   UNL     1       6.076   5.397  16.175  0.00  0.00    +0.000 C 
ATOM     14  C   UNL     1       4.614   3.715  17.302  0.00  0.00    +0.000 A 
ATOM     15  C   UNL     1       3.466   3.375  18.011  0.00  0.00    +0.000 A 
ATOM     16  C   UNL     1       2.512   4.344  18.394  0.00  0.00    +0.000 A 
BRANCH  16  17
ATOM     17  C   UNL     1       1.294   3.834  19.150  0.00  0.00    +0.000 C 
ATOM     18  C   UNL     1       0.870   2.430  18.724  0.00  0.00    +0.000 C 
ATOM     19  C   UNL     1       1.468   3.952  20.666  0.00  0.00    +0.000 C 
ENDBRANCH  16  17
ENDBRANCH   9  10
ENDBRANCH   8   9
ENDBRANCH   2   8
BRANCH   5  20
ATOM     20  S   UNL     1       0.028  12.145  20.600  0.00  0.00    +0.000 S 
BRANCH  20  21
ATOM     21  C   UNL     1      -1.158  12.725  19.350  0.00  0.00    +0.000 C 
BRANCH  21  22
ATOM     22  C   UNL     1      -2.578  12.523  19.850  0.00  0.00    +0.000 C 
ATOM     23  O   UNL     1      -2.820  12.491  21.053  0.00  0.00    +0.000 OA
ATOM     24  N   UNL     1      -3.479  12.349  18.821  0.00  0.00    +0.000 N 
ATOM     25  C   UNL     1      -4.800  12.086  19.054  0.00  0.00    +0.000 A 
ATOM     26  N   UNL     1      -5.478  12.154  20.170  0.00  0.00    +0.000 NA
ATOM     27  C   UNL     1      -6.776  11.743  19.941  0.00  0.00    +0.000 A 
ATOM     28  C   UNL     1      -7.055  11.354  18.647  0.00  0.00    +0.000 A 
ATOM     29  S   UNL     1      -5.659  11.568  17.671  0.00  0.00    +0.000 S 
ATOM     30  H   UNL     1      -3.157  12.247  17.864  0.00  0.00    +0.000 HD
ENDBRANCH  21  22
ENDBRANCH  20  21
ENDBRANCH   5  20
TORSDOF 8
ENDMDL
