MODEL 1
REMARK VINA RESULT:      -8.3      0.000      0.000
REMARK  Name = 
REMARK  8 active torsions:
REMARK  status: ('A' for Active; 'I' for Inactive)
REMARK    1  A    between atoms: C_1  and  O_2
REMARK    2  A    between atoms: O_2  and  C_3
REMARK    3  A    between atoms: C_6  and  N_7
REMARK    4  A    between atoms: N_10  and  C_11
REMARK    5  A    between atoms: C_11  and  C_12
REMARK    6  A    between atoms: C_14  and  N_15
REMARK    7  A    between atoms: C_17  and  C_18
REMARK    8  A    between atoms: C_25  and  O_26
REMARK                            x       y       z     vdW  Elec       q    Type
REMARK                         _______ _______ _______ _____ _____    ______ ____
ROOT
ATOM      1  C   UNL     1       6.141   6.042  18.099  0.00  0.00    +0.000 C 
ATOM      2  O   UNL     1       4.855   6.445  17.556  0.00  0.00    +0.000 OA
ATOM      3  C   UNL     1       4.217   5.291  16.947  0.00  0.00    +0.000 C 
ATOM      4  C   UNL     1       5.387   4.376  16.594  0.00  0.00    +0.000 C 
ATOM      5  C   UNL     1       6.315   4.558  17.769  0.00  0.00    +0.000 C 
ENDROOT
BRANCH   3   6
ATOM      6  N   UNL     1       3.208   4.757  17.885  0.00  0.00    +0.000 N 
ATOM      7  C   UNL     1       2.821   5.524  18.978  0.00  0.00    +0.000 A 
ATOM      8  C   UNL     1       1.898   5.123  19.861  0.00  0.00    +0.000 A 
ATOM      9  C   UNL     1       1.434   5.930  21.027  0.00  0.00    +0.000 C 
ATOM     10  C   UNL     1       1.281   3.795  19.659  0.00  0.00    +0.000 A 
ATOM     11  O   UNL     1       0.537   3.289  20.491  0.00  0.00    +0.000 OA
ATOM     12  N   UNL     1       1.584   3.183  18.480  0.00  0.00    +0.000 N 
ATOM     13  C   UNL     1       2.464   3.632  17.530  0.00  0.00    +0.000 A 
ATOM     14  O   UNL     1       2.559   3.031  16.465  0.00  0.00    +0.000 OA
ATOM     15  H   UNL     1       1.117   2.310  18.285  0.00  0.00    +0.000 HD
ENDBRANCH   3   6
BRANCH   5  16
ATOM     16  O   UNL     1       5.911   3.731  18.859  0.00  0.00    +0.000 OA
ATOM     17  H   UNL     1       6.371   4.028  19.665  0.00  0.00    +0.000 HD
ENDBRANCH   5  16
BRANCH   1  18
ATOM     18  C   UNL     1       7.242   6.860  17.426  0.00  0.00    +0.000 C 
BRANCH  18  22
ATOM     19  N   UNL     1       9.223   9.262  19.277  0.00  0.00    +0.000 N 
ATOM     20  C   UNL     1       8.365   8.788  18.311  0.00  0.00    +0.000 C 
ATOM     21  O   UNL     1       7.767   9.455  17.476  0.00  0.00    +0.000 OA
ATOM     22  N   UNL     1       8.232   7.410  18.340  0.00  0.00    +0.000 N 
ATOM     23  H   UNL     1       9.727   8.571  19.811  0.00  0.00    +0.000 HD
ATOM     24  H   UNL     1       8.297   6.970  19.247  0.00  0.00    +0.000 HD
BRANCH  19  28
ATOM     25  C   UNL     1      10.261  13.303  20.031  0.00  0.00    +0.000 A 
ATOM     26  C   UNL     1      10.523  12.742  18.786  0.00  0.00    +0.000 A 
ATOM     27  C   UNL     1      10.169  11.419  18.511  0.00  0.00    +0.000 A 
ATOM     28  C   UNL     1       9.566  10.620  19.485  0.00  0.00    +0.000 A 
ATOM     29  C   UNL     1       9.299  11.188  20.736  0.00  0.00    +0.000 A 
ATOM     30  C   UNL     1       9.645  12.524  21.008  0.00  0.00    +0.000 A 
BRANCH  25  32
ATOM     31  C   UNL     1       9.682  15.594  20.135  0.00  0.00    +0.000 C 
ATOM     32  O   UNL     1      10.687  14.592  20.174  0.00  0.00    +0.000 OA
ENDBRANCH  25  32
ENDBRANCH  19  28
ENDBRANCH  18  22
ENDBRANCH   1  18
TORSDOF 6
ENDMDL
MODEL 2
REMARK VINA RESULT:      -8.2      0.914      1.209
REMARK  Name = 
REMARK  8 active torsions:
REMARK  status: ('A' for Active; 'I' for Inactive)
REMARK    1  A    between atoms: C_1  and  O_2
REMARK    2  A    between atoms: O_2  and  C_3
REMARK    3  A    between atoms: C_6  and  N_7
REMARK    4  A    between atoms: N_10  and  C_11
REMARK    5  A    between atoms: C_11  and  C_12
REMARK    6  A    between atoms: C_14  and  N_15
REMARK    7  A    between atoms: C_17  and  C_18
REMARK    8  A    between atoms: C_25  and  O_26
REMARK                            x       y       z     vdW  Elec       q    Type
REMARK                         _______ _______ _______ _____ _____    ______ ____
ROOT
ATOM      1  C   UNL     1       6.297   5.847  17.938  0.00  0.00    +0.000 C 
ATOM      2  O   UNL     1       5.040   6.299  17.366  0.00  0.00    +0.000 OA
ATOM      3  C   UNL     1       4.297   5.146  16.888  0.00  0.00    +0.000 C 
ATOM      4  C   UNL     1       5.381   4.102  16.624  0.00  0.00    +0.000 C 
ATOM      5  C   UNL     1       6.341   4.327  17.766  0.00  0.00    +0.000 C 
ENDROOT
BRANCH   3   6
ATOM      6  N   UNL     1       3.263   4.801  17.887  0.00  0.00    +0.000 N 
ATOM      7  C   UNL     1       2.957   5.710  18.891  0.00  0.00    +0.000 A 
ATOM      8  C   UNL     1       2.019   5.485  19.820  0.00  0.00    +0.000 A 
ATOM      9  C   UNL     1       1.639   6.449  20.893  0.00  0.00    +0.000 C 
ATOM     10  C   UNL     1       1.295   4.197  19.769  0.00  0.00    +0.000 A 
ATOM     11  O   UNL     1       0.526   3.847  20.656  0.00  0.00    +0.000 OA
ATOM     12  N   UNL     1       1.528   3.437  18.662  0.00  0.00    +0.000 N 
ATOM     13  C   UNL     1       2.427   3.707  17.663  0.00  0.00    +0.000 A 
ATOM     14  O   UNL     1       2.456   2.988  16.669  0.00  0.00    +0.000 OA
ATOM     15  H   UNL     1       0.990   2.590  18.567  0.00  0.00    +0.000 HD
ENDBRANCH   3   6
BRANCH   5  16
ATOM     16  O   UNL     1       5.889   3.657  18.940  0.00  0.00    +0.000 OA
ATOM     17  H   UNL     1       6.452   2.877  19.092  0.00  0.00    +0.000 HD
ENDBRANCH   5  16
BRANCH   1  18
ATOM     18  C   UNL     1       7.450   6.494  17.172  0.00  0.00    +0.000 C 
BRANCH  18  22
ATOM     19  N   UNL     1       8.169   9.995  17.757  0.00  0.00    +0.000 N 
ATOM     20  C   UNL     1       8.185   8.635  17.969  0.00  0.00    +0.000 C 
ATOM     21  O   UNL     1       8.808   8.040  18.838  0.00  0.00    +0.000 OA
ATOM     22  N   UNL     1       7.377   7.944  17.081  0.00  0.00    +0.000 N 
ATOM     23  H   UNL     1       7.512  10.338  17.074  0.00  0.00    +0.000 HD
ATOM     24  H   UNL     1       7.296   8.330  16.151  0.00  0.00    +0.000 HD
BRANCH  19  28
ATOM     25  C   UNL     1      10.241  12.975  19.950  0.00  0.00    +0.000 A 
ATOM     26  C   UNL     1      10.076  11.705  20.492  0.00  0.00    +0.000 A 
ATOM     27  C   UNL     1       9.416  10.704  19.776  0.00  0.00    +0.000 A 
ATOM     28  C   UNL     1       8.883  10.958  18.510  0.00  0.00    +0.000 A 
ATOM     29  C   UNL     1       9.054  12.235  17.965  0.00  0.00    +0.000 A 
ATOM     30  C   UNL     1       9.730  13.240  18.681  0.00  0.00    +0.000 A 
BRANCH  25  32
ATOM     31  C   UNL     1      11.381  15.037  20.147  0.00  0.00    +0.000 C 
ATOM     32  O   UNL     1      10.876  13.865  20.768  0.00  0.00    +0.000 OA
ENDBRANCH  25  32
ENDBRANCH  19  28
ENDBRANCH  18  22
ENDBRANCH   1  18
TORSDOF 6
ENDMDL
MODEL 3
REMARK VINA RESULT:      -7.7      1.446      2.129
REMARK  Name = 
REMARK  8 active torsions:
REMARK  status: ('A' for Active; 'I' for Inactive)
REMARK    1  A    between atoms: C_1  and  O_2
REMARK    2  A    between atoms: O_2  and  C_3
REMARK    3  A    between atoms: C_6  and  N_7
REMARK    4  A    between atoms: N_10  and  C_11
REMARK    5  A    between atoms: C_11  and  C_12
REMARK    6  A    between atoms: C_14  and  N_15
REMARK    7  A    between atoms: C_17  and  C_18
REMARK    8  A    between atoms: C_25  and  O_26
REMARK                            x       y       z     vdW  Elec       q    Type
REMARK                         _______ _______ _______ _____ _____    ______ ____
ROOT
ATOM      1  C   UNL     1       6.738   6.671  17.995  0.00  0.00    +0.000 C 
ATOM      2  O   UNL     1       5.510   6.983  17.283  0.00  0.00    +0.000 OA
ATOM      3  C   UNL     1       5.148   5.850  16.448  0.00  0.00    +0.000 C 
ATOM      4  C   UNL     1       6.478   5.140  16.206  0.00  0.00    +0.000 C 
ATOM      5  C   UNL     1       7.172   5.277  17.539  0.00  0.00    +0.000 C 
ENDROOT
BRANCH   3   6
ATOM      6  N   UNL     1       4.090   5.076  17.131  0.00  0.00    +0.000 N 
ATOM      7  C   UNL     1       4.240   3.704  17.283  0.00  0.00    +0.000 A 
ATOM      8  C   UNL     1       3.340   2.935  17.908  0.00  0.00    +0.000 A 
ATOM      9  C   UNL     1       3.481   1.464  18.118  0.00  0.00    +0.000 C 
ATOM     10  C   UNL     1       2.128   3.589  18.443  0.00  0.00    +0.000 A 
ATOM     11  O   UNL     1       1.190   2.948  18.901  0.00  0.00    +0.000 OA
ATOM     12  N   UNL     1       2.134   4.951  18.408  0.00  0.00    +0.000 N 
ATOM     13  C   UNL     1       3.097   5.748  17.845  0.00  0.00    +0.000 A 
ATOM     14  O   UNL     1       3.027   6.965  17.981  0.00  0.00    +0.000 OA
ATOM     15  H   UNL     1       1.352   5.423  18.836  0.00  0.00    +0.000 HD
ENDBRANCH   3   6
BRANCH   5  16
ATOM     16  O   UNL     1       6.724   4.270  18.443  0.00  0.00    +0.000 OA
ATOM     17  H   UNL     1       5.844   3.962  18.159  0.00  0.00    +0.000 HD
ENDBRANCH   5  16
BRANCH   1  18
ATOM     18  C   UNL     1       7.802   7.700  17.619  0.00  0.00    +0.000 C 
BRANCH  18  22
ATOM     19  N   UNL     1       9.489   9.930  19.922  0.00  0.00    +0.000 N 
ATOM     20  C   UNL     1       8.821   9.534  18.785  0.00  0.00    +0.000 C 
ATOM     21  O   UNL     1       8.439  10.258  17.875  0.00  0.00    +0.000 OA
ATOM     22  N   UNL     1       8.614   8.166  18.734  0.00  0.00    +0.000 N 
ATOM     23  H   UNL     1       9.839   9.197  20.519  0.00  0.00    +0.000 HD
ATOM     24  H   UNL     1       8.472   7.697  19.617  0.00  0.00    +0.000 HD
BRANCH  19  28
ATOM     25  C   UNL     1      10.635  13.922  20.777  0.00  0.00    +0.000 A 
ATOM     26  C   UNL     1       9.507  13.380  21.386  0.00  0.00    +0.000 A 
ATOM     27  C   UNL     1       9.126  12.060  21.133  0.00  0.00    +0.000 A 
ATOM     28  C   UNL     1       9.851  11.260  20.247  0.00  0.00    +0.000 A 
ATOM     29  C   UNL     1      10.988  11.806  19.640  0.00  0.00    +0.000 A 
ATOM     30  C   UNL     1      11.378  13.131  19.904  0.00  0.00    +0.000 A 
BRANCH  25  32
ATOM     31  C   UNL     1       9.828  16.145  20.797  0.00  0.00    +0.000 C 
ATOM     32  O   UNL     1      10.874  15.230  21.087  0.00  0.00    +0.000 OA
ENDBRANCH  25  32
ENDBRANCH  19  28
ENDBRANCH  18  22
ENDBRANCH   1  18
TORSDOF 6
ENDMDL
MODEL 4
REMARK VINA RESULT:      -7.6      1.345      1.436
REMARK  Name = 
REMARK  8 active torsions:
REMARK  status: ('A' for Active; 'I' for Inactive)
REMARK    1  A    between atoms: C_1  and  O_2
REMARK    2  A    between atoms: O_2  and  C_3
REMARK    3  A    between atoms: C_6  and  N_7
REMARK    4  A    between atoms: N_10  and  C_11
REMARK    5  A    between atoms: C_11  and  C_12
REMARK    6  A    between atoms: C_14  and  N_15
REMARK    7  A    between atoms: C_17  and  C_18
REMARK    8  A    between atoms: C_25  and  O_26
REMARK                            x       y       z     vdW  Elec       q    Type
REMARK                         _______ _______ _______ _____ _____    ______ ____
ROOT
ATOM      1  C   UNL     1       6.992   6.668  18.201  0.00  0.00    +0.000 C 
ATOM      2  O   UNL     1       5.619   6.930  17.805  0.00  0.00    +0.000 OA
ATOM      3  C   UNL     1       5.191   5.901  16.873  0.00  0.00    +0.000 C 
ATOM      4  C   UNL     1       6.499   5.404  16.260  0.00  0.00    +0.000 C 
ATOM      5  C   UNL     1       7.443   5.421  17.437  0.00  0.00    +0.000 C 
ENDROOT
BRANCH   3   6
ATOM      6  N   UNL     1       4.373   4.910  17.604  0.00  0.00    +0.000 N 
ATOM      7  C   UNL     1       3.570   5.333  18.655  0.00  0.00    +0.000 A 
ATOM      8  C   UNL     1       2.783   4.504  19.353  0.00  0.00    +0.000 A 
ATOM      9  C   UNL     1       1.884   4.926  20.467  0.00  0.00    +0.000 C 
ATOM     10  C   UNL     1       2.792   3.073  18.984  0.00  0.00    +0.000 A 
ATOM     11  O   UNL     1       2.216   2.224  19.655  0.00  0.00    +0.000 OA
ATOM     12  N   UNL     1       3.467   2.767  17.841  0.00  0.00    +0.000 N 
ATOM     13  C   UNL     1       4.205   3.631  17.074  0.00  0.00    +0.000 A 
ATOM     14  O   UNL     1       4.674   3.241  16.009  0.00  0.00    +0.000 OA
ATOM     15  H   UNL     1       3.425   1.810  17.527  0.00  0.00    +0.000 HD
ENDBRANCH   3   6
BRANCH   5  16
ATOM     16  O   UNL     1       7.286   4.242  18.223  0.00  0.00    +0.000 OA
ATOM     17  H   UNL     1       6.644   3.656  17.784  0.00  0.00    +0.000 HD
ENDBRANCH   5  16
BRANCH   1  18
ATOM     18  C   UNL     1       7.858   7.864  17.810  0.00  0.00    +0.000 C 
BRANCH  18  22
ATOM     19  N   UNL     1       9.619  10.228  19.914  0.00  0.00    +0.000 N 
ATOM     20  C   UNL     1       8.949   9.753  18.810  0.00  0.00    +0.000 C 
ATOM     21  O   UNL     1       8.618  10.400  17.824  0.00  0.00    +0.000 OA
ATOM     22  N   UNL     1       8.675   8.398  18.889  0.00  0.00    +0.000 N 
ATOM     23  H   UNL     1       9.923   9.541  20.588  0.00  0.00    +0.000 HD
ATOM     24  H   UNL     1       8.496   8.027  19.812  0.00  0.00    +0.000 HD
BRANCH  19  28
ATOM     25  C   UNL     1      10.833  14.226  20.634  0.00  0.00    +0.000 A 
ATOM     26  C   UNL     1      11.549  13.435  19.741  0.00  0.00    +0.000 A 
ATOM     27  C   UNL     1      11.152  12.123  19.475  0.00  0.00    +0.000 A 
ATOM     28  C   UNL     1      10.043  11.564  20.114  0.00  0.00    +0.000 A 
ATOM     29  C   UNL     1       9.322  12.363  21.009  0.00  0.00    +0.000 A 
ATOM     30  C   UNL     1       9.715  13.689  21.268  0.00  0.00    +0.000 A 
BRANCH  25  32
ATOM     31  C   UNL     1      10.752  16.522  20.074  0.00  0.00    +0.000 C 
ATOM     32  O   UNL     1      11.349  15.476  20.826  0.00  0.00    +0.000 OA
ENDBRANCH  25  32
ENDBRANCH  19  28
ENDBRANCH  18  22
ENDBRANCH   1  18
TORSDOF 6
ENDMDL
MODEL 5
REMARK VINA RESULT:      -7.5      5.255      8.703
REMARK  Name = 
REMARK  8 active torsions:
REMARK  status: ('A' for Active; 'I' for Inactive)
REMARK    1  A    between atoms: C_1  and  O_2
REMARK    2  A    between atoms: O_2  and  C_3
REMARK    3  A    between atoms: C_6  and  N_7
REMARK    4  A    between atoms: N_10  and  C_11
REMARK    5  A    between atoms: C_11  and  C_12
REMARK    6  A    between atoms: C_14  and  N_15
REMARK    7  A    between atoms: C_17  and  C_18
REMARK    8  A    between atoms: C_25  and  O_26
REMARK                            x       y       z     vdW  Elec       q    Type
REMARK                         _______ _______ _______ _____ _____    ______ ____
ROOT
ATOM      1  C   UNL     1       2.723   7.245  19.657  0.00  0.00    +0.000 C 
ATOM      2  O   UNL     1       3.134   5.920  20.092  0.00  0.00    +0.000 OA
ATOM      3  C   UNL     1       3.048   5.006  18.967  0.00  0.00    +0.000 C 
ATOM      4  C   UNL     1       2.010   5.654  18.053  0.00  0.00    +0.000 C 
ATOM      5  C   UNL     1       2.327   7.123  18.184  0.00  0.00    +0.000 C 
ENDROOT
BRANCH   3   6
ATOM      6  N   UNL     1       4.403   4.811  18.410  0.00  0.00    +0.000 N 
ATOM      7  C   UNL     1       5.496   5.357  19.072  0.00  0.00    +0.000 A 
ATOM      8  C   UNL     1       6.757   5.207  18.646  0.00  0.00    +0.000 A 
ATOM      9  C   UNL     1       7.958   5.750  19.346  0.00  0.00    +0.000 C 
ATOM     10  C   UNL     1       6.979   4.436  17.406  0.00  0.00    +0.000 A 
ATOM     11  O   UNL     1       8.078   4.369  16.868  0.00  0.00    +0.000 OA
ATOM     12  N   UNL     1       5.883   3.792  16.913  0.00  0.00    +0.000 N 
ATOM     13  C   UNL     1       4.603   3.873  17.397  0.00  0.00    +0.000 A 
ATOM     14  O   UNL     1       3.732   3.153  16.920  0.00  0.00    +0.000 OA
ATOM     15  H   UNL     1       6.024   3.198  16.110  0.00  0.00    +0.000 HD
ENDBRANCH   3   6
BRANCH   5  16
ATOM     16  O   UNL     1       3.406   7.482  17.323  0.00  0.00    +0.000 OA
ATOM     17  H   UNL     1       3.956   6.694  17.165  0.00  0.00    +0.000 HD
ENDBRANCH   5  16
BRANCH   1  18
ATOM     18  C   UNL     1       1.520   7.688  20.488  0.00  0.00    +0.000 C 
BRANCH  18  22
ATOM     19  N   UNL     1      -0.142  10.863  21.007  0.00  0.00    +0.000 N 
ATOM     20  C   UNL     1       0.049   9.501  21.044  0.00  0.00    +0.000 C 
ATOM     21  O   UNL     1      -0.683   8.676  21.574  0.00  0.00    +0.000 OA
ATOM     22  N   UNL     1       1.196   9.102  20.377  0.00  0.00    +0.000 N 
ATOM     23  H   UNL     1       0.491  11.393  20.428  0.00  0.00    +0.000 HD
ATOM     24  H   UNL     1       1.976   9.743  20.398  0.00  0.00    +0.000 HD
BRANCH  19  28
ATOM     25  C   UNL     1      -3.464  12.934  22.639  0.00  0.00    +0.000 A 
ATOM     26  C   UNL     1      -2.546  12.321  23.485  0.00  0.00    +0.000 A 
ATOM     27  C   UNL     1      -1.434  11.653  22.968  0.00  0.00    +0.000 A 
ATOM     28  C   UNL     1      -1.228  11.562  21.589  0.00  0.00    +0.000 A 
ATOM     29  C   UNL     1      -2.150  12.184  20.739  0.00  0.00    +0.000 A 
ATOM     30  C   UNL     1      -3.263  12.867  21.261  0.00  0.00    +0.000 A 
BRANCH  25  32
ATOM     31  C   UNL     1      -5.337  12.667  24.057  0.00  0.00    +0.000 C 
ATOM     32  O   UNL     1      -4.518  13.523  23.274  0.00  0.00    +0.000 OA
ENDBRANCH  25  32
ENDBRANCH  19  28
ENDBRANCH  18  22
ENDBRANCH   1  18
TORSDOF 6
ENDMDL
MODEL 6
REMARK VINA RESULT:      -7.5      5.202      8.212
REMARK  Name = 
REMARK  8 active torsions:
REMARK  status: ('A' for Active; 'I' for Inactive)
REMARK    1  A    between atoms: C_1  and  O_2
REMARK    2  A    between atoms: O_2  and  C_3
REMARK    3  A    between atoms: C_6  and  N_7
REMARK    4  A    between atoms: N_10  and  C_11
REMARK    5  A    between atoms: C_11  and  C_12
REMARK    6  A    between atoms: C_14  and  N_15
REMARK    7  A    between atoms: C_17  and  C_18
REMARK    8  A    between atoms: C_25  and  O_26
REMARK                            x       y       z     vdW  Elec       q    Type
REMARK                         _______ _______ _______ _____ _____    ______ ____
ROOT
ATOM      1  C   UNL     1       2.658   6.835  19.897  0.00  0.00    +0.000 C 
ATOM      2  O   UNL     1       3.118   5.482  20.159  0.00  0.00    +0.000 OA
ATOM      3  C   UNL     1       3.046   4.712  18.930  0.00  0.00    +0.000 C 
ATOM      4  C   UNL     1       1.975   5.432  18.115  0.00  0.00    +0.000 C 
ATOM      5  C   UNL     1       2.245   6.884  18.424  0.00  0.00    +0.000 C 
ENDROOT
BRANCH   3   6
ATOM      6  N   UNL     1       4.399   4.634  18.339  0.00  0.00    +0.000 N 
ATOM      7  C   UNL     1       5.467   5.223  19.004  0.00  0.00    +0.000 A 
ATOM      8  C   UNL     1       6.725   5.178  18.548  0.00  0.00    +0.000 A 
ATOM      9  C   UNL     1       7.903   5.770  19.248  0.00  0.00    +0.000 C 
ATOM     10  C   UNL     1       6.971   4.478  17.270  0.00  0.00    +0.000 A 
ATOM     11  O   UNL     1       8.059   4.509  16.708  0.00  0.00    +0.000 OA
ATOM     12  N   UNL     1       5.910   3.783  16.770  0.00  0.00    +0.000 N 
ATOM     13  C   UNL     1       4.639   3.756  17.282  0.00  0.00    +0.000 A 
ATOM     14  O   UNL     1       3.807   3.001  16.789  0.00  0.00    +0.000 OA
ATOM     15  H   UNL     1       6.073   3.236  15.938  0.00  0.00    +0.000 HD
ENDBRANCH   3   6
BRANCH   5  16
ATOM     16  O   UNL     1       3.299   7.383  17.604  0.00  0.00    +0.000 OA
ATOM     17  H   UNL     1       2.965   8.141  17.091  0.00  0.00    +0.000 HD
ENDBRANCH   5  16
BRANCH   1  18
ATOM     18  C   UNL     1       1.454   7.130  20.789  0.00  0.00    +0.000 C 
BRANCH  18  22
ATOM     19  N   UNL     1       0.529  10.311  22.254  0.00  0.00    +0.000 N 
ATOM     20  C   UNL     1       0.441   9.208  21.435  0.00  0.00    +0.000 C 
ATOM     21  O   UNL     1      -0.474   8.942  20.667  0.00  0.00    +0.000 OA
ATOM     22  N   UNL     1       1.545   8.376  21.535  0.00  0.00    +0.000 N 
ATOM     23  H   UNL     1       1.403  10.445  22.739  0.00  0.00    +0.000 HD
ATOM     24  H   UNL     1       1.990   8.325  22.440  0.00  0.00    +0.000 HD
BRANCH  19  28
ATOM     25  C   UNL     1      -2.399  13.347  22.693  0.00  0.00    +0.000 A 
ATOM     26  C   UNL     1      -1.281  13.573  21.896  0.00  0.00    +0.000 A 
ATOM     27  C   UNL     1      -0.317  12.577  21.722  0.00  0.00    +0.000 A 
ATOM     28  C   UNL     1      -0.437  11.341  22.361  0.00  0.00    +0.000 A 
ATOM     29  C   UNL     1      -1.564  11.115  23.159  0.00  0.00    +0.000 A 
ATOM     30  C   UNL     1      -2.541  12.113  23.324  0.00  0.00    +0.000 A 
BRANCH  25  32
ATOM     31  C   UNL     1      -4.629  14.111  22.877  0.00  0.00    +0.000 C 
ATOM     32  O   UNL     1      -3.244  14.413  22.802  0.00  0.00    +0.000 OA
ENDBRANCH  25  32
ENDBRANCH  19  28
ENDBRANCH  18  22
ENDBRANCH   1  18
TORSDOF 6
ENDMDL
MODEL 7
REMARK VINA RESULT:      -7.4      5.054      7.655
REMARK  Name = 
REMARK  8 active torsions:
REMARK  status: ('A' for Active; 'I' for Inactive)
REMARK    1  A    between atoms: C_1  and  O_2
REMARK    2  A    between atoms: O_2  and  C_3
REMARK    3  A    between atoms: C_6  and  N_7
REMARK    4  A    between atoms: N_10  and  C_11
REMARK    5  A    between atoms: C_11  and  C_12
REMARK    6  A    between atoms: C_14  and  N_15
REMARK    7  A    between atoms: C_17  and  C_18
REMARK    8  A    between atoms: C_25  and  O_26
REMARK                            x       y       z     vdW  Elec       q    Type
REMARK                         _______ _______ _______ _____ _____    ______ ____
ROOT
ATOM      1  C   UNL     1       4.497   3.827  18.274  0.00  0.00    +0.000 C 
ATOM      2  O   UNL     1       3.922   4.534  17.141  0.00  0.00    +0.000 OA
ATOM      3  C   UNL     1       4.813   5.613  16.756  0.00  0.00    +0.000 C 
ATOM      4  C   UNL     1       5.589   5.916  18.036  0.00  0.00    +0.000 C 
ATOM      5  C   UNL     1       5.803   4.543  18.624  0.00  0.00    +0.000 C 
ENDROOT
BRANCH   3   6
ATOM      6  N   UNL     1       5.600   5.182  15.581  0.00  0.00    +0.000 N 
ATOM      7  C   UNL     1       4.962   4.518  14.541  0.00  0.00    +0.000 A 
ATOM      8  C   UNL     1       5.597   4.115  13.433  0.00  0.00    +0.000 A 
ATOM      9  C   UNL     1       4.941   3.428  12.282  0.00  0.00    +0.000 C 
ATOM     10  C   UNL     1       7.047   4.383  13.334  0.00  0.00    +0.000 A 
ATOM     11  O   UNL     1       7.734   3.927  12.427  0.00  0.00    +0.000 OA
ATOM     12  N   UNL     1       7.562   5.184  14.309  0.00  0.00    +0.000 N 
ATOM     13  C   UNL     1       6.893   5.672  15.401  0.00  0.00    +0.000 A 
ATOM     14  O   UNL     1       7.455   6.472  16.143  0.00  0.00    +0.000 OA
ATOM     15  H   UNL     1       8.533   5.444  14.222  0.00  0.00    +0.000 HD
ENDBRANCH   3   6
BRANCH   5  16
ATOM     16  O   UNL     1       6.925   3.907  18.016  0.00  0.00    +0.000 OA
ATOM     17  H   UNL     1       7.255   3.214  18.615  0.00  0.00    +0.000 HD
ENDBRANCH   5  16
BRANCH   1  18
ATOM     18  C   UNL     1       3.526   3.904  19.450  0.00  0.00    +0.000 C 
BRANCH  18  22
ATOM     19  N   UNL     1       2.415   7.186  20.503  0.00  0.00    +0.000 N 
ATOM     20  C   UNL     1       2.468   6.038  19.747  0.00  0.00    +0.000 C 
ATOM     21  O   UNL     1       1.729   5.743  18.817  0.00  0.00    +0.000 OA
ATOM     22  N   UNL     1       3.496   5.191  20.128  0.00  0.00    +0.000 N 
ATOM     23  H   UNL     1       3.170   7.333  21.156  0.00  0.00    +0.000 HD
ATOM     24  H   UNL     1       3.737   5.187  21.109  0.00  0.00    +0.000 HD
BRANCH  19  28
ATOM     25  C   UNL     1      -0.371  10.324  19.891  0.00  0.00    +0.000 A 
ATOM     26  C   UNL     1      -0.378   9.616  21.088  0.00  0.00    +0.000 A 
ATOM     27  C   UNL     1       0.546   8.594  21.317  0.00  0.00    +0.000 A 
ATOM     28  C   UNL     1       1.483   8.240  20.343  0.00  0.00    +0.000 A 
ATOM     29  C   UNL     1       1.491   8.957  19.141  0.00  0.00    +0.000 A 
ATOM     30  C   UNL     1       0.568   9.995  18.915  0.00  0.00    +0.000 A 
BRANCH  25  32
ATOM     31  C   UNL     1      -2.149  11.222  18.616  0.00  0.00    +0.000 C 
ATOM     32  O   UNL     1      -1.346  11.273  19.786  0.00  0.00    +0.000 OA
ENDBRANCH  25  32
ENDBRANCH  19  28
ENDBRANCH  18  22
ENDBRANCH   1  18
TORSDOF 6
ENDMDL
MODEL 8
REMARK VINA RESULT:      -7.4      1.900      2.521
REMARK  Name = 
REMARK  8 active torsions:
REMARK  status: ('A' for Active; 'I' for Inactive)
REMARK    1  A    between atoms: C_1  and  O_2
REMARK    2  A    between atoms: O_2  and  C_3
REMARK    3  A    between atoms: C_6  and  N_7
REMARK    4  A    between atoms: N_10  and  C_11
REMARK    5  A    between atoms: C_11  and  C_12
REMARK    6  A    between atoms: C_14  and  N_15
REMARK    7  A    between atoms: C_17  and  C_18
REMARK    8  A    between atoms: C_25  and  O_26
REMARK                            x       y       z     vdW  Elec       q    Type
REMARK                         _______ _______ _______ _____ _____    ______ ____
ROOT
ATOM      1  C   UNL     1       7.003   6.544  18.415  0.00  0.00    +0.000 C 
ATOM      2  O   UNL     1       5.970   7.016  17.509  0.00  0.00    +0.000 OA
ATOM      3  C   UNL     1       5.652   5.960  16.564  0.00  0.00    +0.000 C 
ATOM      4  C   UNL     1       6.921   5.111  16.531  0.00  0.00    +0.000 C 
ATOM      5  C   UNL     1       7.364   5.124  17.973  0.00  0.00    +0.000 C 
ENDROOT
BRANCH   3   6
ATOM      6  N   UNL     1       4.409   5.291  17.000  0.00  0.00    +0.000 N 
ATOM      7  C   UNL     1       4.385   3.907  17.116  0.00  0.00    +0.000 A 
ATOM      8  C   UNL     1       3.307   3.227  17.526  0.00  0.00    +0.000 A 
ATOM      9  C   UNL     1       3.252   1.745  17.693  0.00  0.00    +0.000 C 
ATOM     10  C   UNL     1       2.089   3.997  17.853  0.00  0.00    +0.000 A 
ATOM     11  O   UNL     1       1.019   3.452  18.097  0.00  0.00    +0.000 OA
ATOM     12  N   UNL     1       2.243   5.351  17.881  0.00  0.00    +0.000 N 
ATOM     13  C   UNL     1       3.373   6.050  17.545  0.00  0.00    +0.000 A 
ATOM     14  O   UNL     1       3.404   7.264  17.719  0.00  0.00    +0.000 OA
ATOM     15  H   UNL     1       1.447   5.896  18.175  0.00  0.00    +0.000 HD
ENDBRANCH   3   6
BRANCH   5  16
ATOM     16  O   UNL     1       6.650   4.147  18.726  0.00  0.00    +0.000 OA
ATOM     17  H   UNL     1       7.029   4.101  19.621  0.00  0.00    +0.000 HD
ENDBRANCH   5  16
BRANCH   1  18
ATOM     18  C   UNL     1       8.223   7.456  18.295  0.00  0.00    +0.000 C 
BRANCH  18  22
ATOM     19  N   UNL     1       8.456  10.997  17.574  0.00  0.00    +0.000 N 
ATOM     20  C   UNL     1       8.663   9.815  18.247  0.00  0.00    +0.000 C 
ATOM     21  O   UNL     1       9.373   9.650  19.230  0.00  0.00    +0.000 OA
ATOM     22  N   UNL     1       7.948   8.758  17.706  0.00  0.00    +0.000 N 
ATOM     23  H   UNL     1       7.749  10.991  16.855  0.00  0.00    +0.000 HD
ATOM     24  H   UNL     1       7.803   8.776  16.707  0.00  0.00    +0.000 HD
BRANCH  19  28
ATOM     25  C   UNL     1      10.294  14.717  18.452  0.00  0.00    +0.000 A 
ATOM     26  C   UNL     1       8.940  14.536  18.710  0.00  0.00    +0.000 A 
ATOM     27  C   UNL     1       8.321  13.311  18.448  0.00  0.00    +0.000 A 
ATOM     28  C   UNL     1       9.039  12.246  17.899  0.00  0.00    +0.000 A 
ATOM     29  C   UNL     1      10.403  12.430  17.644  0.00  0.00    +0.000 A 
ATOM     30  C   UNL     1      11.029  13.659  17.919  0.00  0.00    +0.000 A 
BRANCH  25  32
ATOM     31  C   UNL     1       9.958  16.768  19.579  0.00  0.00    +0.000 C 
ATOM     32  O   UNL     1      10.763  15.970  18.724  0.00  0.00    +0.000 OA
ENDBRANCH  25  32
ENDBRANCH  19  28
ENDBRANCH  18  22
ENDBRANCH   1  18
TORSDOF 6
ENDMDL
MODEL 9
REMARK VINA RESULT:      -7.3      5.357      7.945
REMARK  Name = 
REMARK  8 active torsions:
REMARK  status: ('A' for Active; 'I' for Inactive)
REMARK    1  A    between atoms: C_1  and  O_2
REMARK    2  A    between atoms: O_2  and  C_3
REMARK    3  A    between atoms: C_6  and  N_7
REMARK    4  A    between atoms: N_10  and  C_11
REMARK    5  A    between atoms: C_11  and  C_12
REMARK    6  A    between atoms: C_14  and  N_15
REMARK    7  A    between atoms: C_17  and  C_18
REMARK    8  A    between atoms: C_25  and  O_26
REMARK                            x       y       z     vdW  Elec       q    Type
REMARK                         _______ _______ _______ _____ _____    ______ ____
ROOT
ATOM      1  C   UNL     1       2.661   7.043  19.890  0.00  0.00    +0.000 C 
ATOM      2  O   UNL     1       3.080   5.683  20.184  0.00  0.00    +0.000 OA
ATOM      3  C   UNL     1       2.990   4.888  18.972  0.00  0.00    +0.000 C 
ATOM      4  C   UNL     1       1.944   5.622  18.136  0.00  0.00    +0.000 C 
ATOM      5  C   UNL     1       2.256   7.071  18.415  0.00  0.00    +0.000 C 
ENDROOT
BRANCH   3   6
ATOM      6  N   UNL     1       4.342   4.757  18.389  0.00  0.00    +0.000 N 
ATOM      7  C   UNL     1       5.429   5.301  19.062  0.00  0.00    +0.000 A 
ATOM      8  C   UNL     1       6.687   5.207  18.614  0.00  0.00    +0.000 A 
ATOM      9  C   UNL     1       7.883   5.750  19.323  0.00  0.00    +0.000 C 
ATOM     10  C   UNL     1       6.912   4.501  17.335  0.00  0.00    +0.000 A 
ATOM     11  O   UNL     1       8.005   4.490  16.781  0.00  0.00    +0.000 OA
ATOM     12  N   UNL     1       5.828   3.851  16.827  0.00  0.00    +0.000 N 
ATOM     13  C   UNL     1       4.553   3.873  17.331  0.00  0.00    +0.000 A 
ATOM     14  O   UNL     1       3.695   3.153  16.831  0.00  0.00    +0.000 OA
ATOM     15  H   UNL     1       5.974   3.299  15.995  0.00  0.00    +0.000 HD
ENDBRANCH   3   6
BRANCH   5  16
ATOM     16  O   UNL     1       3.327   7.521  17.589  0.00  0.00    +0.000 OA
ATOM     17  H   UNL     1       2.963   8.083  16.882  0.00  0.00    +0.000 HD
ENDBRANCH   5  16
BRANCH   1  18
ATOM     18  C   UNL     1       1.463   7.393  20.770  0.00  0.00    +0.000 C 
BRANCH  18  22
ATOM     19  N   UNL     1      -0.086  10.663  20.936  0.00  0.00    +0.000 N 
ATOM     20  C   UNL     1       0.479   9.493  21.390  0.00  0.00    +0.000 C 
ATOM     21  O   UNL     1       0.726   9.205  22.554  0.00  0.00    +0.000 OA
ATOM     22  N   UNL     1       0.749   8.596  20.369  0.00  0.00    +0.000 N 
ATOM     23  H   UNL     1      -0.334  10.696  19.960  0.00  0.00    +0.000 HD
ATOM     24  H   UNL     1       1.006   8.993  19.477  0.00  0.00    +0.000 HD
BRANCH  19  28
ATOM     25  C   UNL     1      -1.219  14.025  23.259  0.00  0.00    +0.000 A 
ATOM     26  C   UNL     1      -1.907  12.824  23.398  0.00  0.00    +0.000 A 
ATOM     27  C   UNL     1      -1.534  11.700  22.658  0.00  0.00    +0.000 A 
ATOM     28  C   UNL     1      -0.480  11.758  21.743  0.00  0.00    +0.000 A 
ATOM     29  C   UNL     1       0.213  12.966  21.609  0.00  0.00    +0.000 A 
ATOM     30  C   UNL     1      -0.154  14.095  22.363  0.00  0.00    +0.000 A 
BRANCH  25  32
ATOM     31  C   UNL     1      -2.824  14.747  24.838  0.00  0.00    +0.000 C 
ATOM     32  O   UNL     1      -1.706  15.050  24.018  0.00  0.00    +0.000 OA
ENDBRANCH  25  32
ENDBRANCH  19  28
ENDBRANCH  18  22
ENDBRANCH   1  18
TORSDOF 6
ENDMDL
