MODEL 1
REMARK VINA RESULT:      -7.4      0.000      0.000
REMARK  Name = 
REMARK  13 active torsions:
REMARK  status: ('A' for Active; 'I' for Inactive)
REMARK    1  A    between atoms: C_1  and  C_2
REMARK    2  A    between atoms: C_2  and  C_3
REMARK    3  A    between atoms: C_3  and  C_4
REMARK    4  A    between atoms: C_4  and  C_5
REMARK    5  A    between atoms: C_5  and  N_6
REMARK    6  A    between atoms: C_9  and  C_10
REMARK    7  A    between atoms: N_12  and  C_13
REMARK    8  A    between atoms: C_16  and  C_17
REMARK    9  A    between atoms: C_17  and  O_19
REMARK   10  A    between atoms: O_19  and  C_20
REMARK   11  A    between atoms: C_20  and  C_21
REMARK   12  A    between atoms: C_21  and  C_22
REMARK   13  A    between atoms: C_25  and  O_26
REMARK                            x       y       z     vdW  Elec       q    Type
REMARK                         _______ _______ _______ _____ _____    ______ ____
ROOT
ATOM      1  N   UNL     1      -1.048  11.714  20.560  0.00  0.00    +0.000 N 
ATOM      2  C   UNL     1       0.085  10.962  20.236  0.00  0.00    +0.000 A 
ATOM      3  O   UNL     1       1.068  10.877  20.979  0.00  0.00    +0.000 OA
ATOM      4  C   UNL     1       0.099  10.219  18.945  0.00  0.00    +0.000 A 
ATOM      5  C   UNL     1      -0.988  10.247  18.145  0.00  0.00    +0.000 A 
ATOM      6  C   UNL     1      -2.179  11.019  18.509  0.00  0.00    +0.000 A 
ATOM      7  C   UNL     1      -3.318  11.006  17.684  0.00  0.00    +0.000 A 
ATOM      8  C   UNL     1      -4.456  11.729  18.016  0.00  0.00    +0.000 A 
ATOM      9  C   UNL     1      -4.451  12.514  19.158  0.00  0.00    +0.000 A 
ATOM     10  C   UNL     1      -3.314  12.560  19.970  0.00  0.00    +0.000 A 
ATOM     11  C   UNL     1      -2.180  11.782  19.686  0.00  0.00    +0.000 A 
ENDROOT
BRANCH   4  12
ATOM     12  C   UNL     1       1.271   9.390  18.491  0.00  0.00    +0.000 C 
ATOM     13  O   UNL     1       1.870   9.743  17.471  0.00  0.00    +0.000 OA
ATOM     14  N   UNL     1       1.570   8.247  19.206  0.00  0.00    +0.000 N 
ATOM     15  H   UNL     1       0.929   7.991  19.960  0.00  0.00    +0.000 HD
BRANCH  14  16
ATOM     16  C   UNL     1       2.573   7.314  18.849  0.00  0.00    +0.000 A 
ATOM     17  C   UNL     1       2.863   6.191  19.629  0.00  0.00    +0.000 A 
ATOM     18  C   UNL     1       3.956   5.375  19.342  0.00  0.00    +0.000 A 
ATOM     19  C   UNL     1       4.780   5.657  18.251  0.00  0.00    +0.000 A 
ATOM     20  C   UNL     1       4.446   6.725  17.407  0.00  0.00    +0.000 A 
ATOM     21  C   UNL     1       3.337   7.542  17.698  0.00  0.00    +0.000 A 
BRANCH  19  22
ATOM     22  C   UNL     1       6.026   4.854  18.126  0.00  0.00    +0.000 C 
ATOM     23  O   UNL     1       6.955   4.933  18.916  0.00  0.00    +0.000 OA
BRANCH  22  24
ATOM     24  O   UNL     1       6.040   4.170  16.954  0.00  0.00    +0.000 OA
BRANCH  24  25
ATOM     25  C   UNL     1       7.133   4.494  16.082  0.00  0.00    +0.000 C 
BRANCH  25  26
ATOM     26  C   UNL     1       6.655   5.022  14.737  0.00  0.00    +0.000 C 
ATOM     27  C   UNL     1       6.085   3.889  13.896  0.00  0.00    +0.000 C 
ENDBRANCH  25  26
ENDBRANCH  24  25
ENDBRANCH  22  24
ENDBRANCH  19  22
ENDBRANCH  14  16
ENDBRANCH   4  12
BRANCH   5  28
ATOM     28  O   UNL     1      -1.099   9.578  16.936  0.00  0.00    +0.000 OA
ATOM     29  H   UNL     1      -0.859  10.198  16.208  0.00  0.00    +0.000 HD
ENDBRANCH   5  28
BRANCH   1  30
ATOM     30  C   UNL     1      -1.082  12.376  21.872  0.00  0.00    +0.000 C 
BRANCH  30  31
ATOM     31  C   UNL     1      -1.798  11.585  22.978  0.00  0.00    +0.000 C 
BRANCH  31  32
ATOM     32  C   UNL     1      -2.958  12.338  23.626  0.00  0.00    +0.000 C 
BRANCH  32  34
ATOM     33  C   UNL     1      -4.123  14.499  23.065  0.00  0.00    +0.000 C 
ATOM     34  C   UNL     1      -2.800  13.845  23.422  0.00  0.00    +0.000 C 
ENDBRANCH  32  34
ENDBRANCH  31  32
ENDBRANCH  30  31
ENDBRANCH   1  30
TORSDOF 11
ENDMDL
MODEL 2
REMARK VINA RESULT:      -7.4      2.407     10.402
REMARK  Name = 
REMARK  13 active torsions:
REMARK  status: ('A' for Active; 'I' for Inactive)
REMARK    1  A    between atoms: C_1  and  C_2
REMARK    2  A    between atoms: C_2  and  C_3
REMARK    3  A    between atoms: C_3  and  C_4
REMARK    4  A    between atoms: C_4  and  C_5
REMARK    5  A    between atoms: C_5  and  N_6
REMARK    6  A    between atoms: C_9  and  C_10
REMARK    7  A    between atoms: N_12  and  C_13
REMARK    8  A    between atoms: C_16  and  C_17
REMARK    9  A    between atoms: C_17  and  O_19
REMARK   10  A    between atoms: O_19  and  C_20
REMARK   11  A    between atoms: C_20  and  C_21
REMARK   12  A    between atoms: C_21  and  C_22
REMARK   13  A    between atoms: C_25  and  O_26
REMARK                            x       y       z     vdW  Elec       q    Type
REMARK                         _______ _______ _______ _____ _____    ______ ____
ROOT
ATOM      1  N   UNL     1       3.901   5.566  17.452  0.00  0.00    +0.000 N 
ATOM      2  C   UNL     1       3.422   6.775  17.964  0.00  0.00    +0.000 A 
ATOM      3  O   UNL     1       3.731   7.873  17.491  0.00  0.00    +0.000 OA
ATOM      4  C   UNL     1       2.483   6.735  19.121  0.00  0.00    +0.000 A 
ATOM      5  C   UNL     1       2.082   5.544  19.615  0.00  0.00    +0.000 A 
ATOM      6  C   UNL     1       2.574   4.284  19.053  0.00  0.00    +0.000 A 
ATOM      7  C   UNL     1       2.116   3.052  19.554  0.00  0.00    +0.000 A 
ATOM      8  C   UNL     1       2.569   1.848  19.030  0.00  0.00    +0.000 A 
ATOM      9  C   UNL     1       3.524   1.862  18.025  0.00  0.00    +0.000 A 
ATOM     10  C   UNL     1       4.010   3.080  17.540  0.00  0.00    +0.000 A 
ATOM     11  C   UNL     1       3.513   4.306  18.011  0.00  0.00    +0.000 A 
ENDROOT
BRANCH   4  12
ATOM     12  C   UNL     1       1.917   7.975  19.759  0.00  0.00    +0.000 C 
ATOM     13  O   UNL     1       1.864   8.021  20.991  0.00  0.00    +0.000 OA
ATOM     14  N   UNL     1       1.430   8.964  18.927  0.00  0.00    +0.000 N 
ATOM     15  H   UNL     1       1.416   8.762  17.925  0.00  0.00    +0.000 HD
BRANCH  14  16
ATOM     16  C   UNL     1       0.778  10.140  19.371  0.00  0.00    +0.000 A 
ATOM     17  C   UNL     1      -0.529  10.130  19.863  0.00  0.00    +0.000 A 
ATOM     18  C   UNL     1      -1.204  11.317  20.146  0.00  0.00    +0.000 A 
ATOM     19  C   UNL     1      -0.574  12.548  19.957  0.00  0.00    +0.000 A 
ATOM     20  C   UNL     1       0.768  12.570  19.553  0.00  0.00    +0.000 A 
ATOM     21  C   UNL     1       1.446  11.367  19.276  0.00  0.00    +0.000 A 
BRANCH  19  22
ATOM     22  C   UNL     1      -1.420  13.764  20.101  0.00  0.00    +0.000 C 
ATOM     23  O   UNL     1      -1.016  14.892  19.858  0.00  0.00    +0.000 OA
BRANCH  22  24
ATOM     24  O   UNL     1      -2.609  13.456  20.678  0.00  0.00    +0.000 OA
BRANCH  24  25
ATOM     25  C   UNL     1      -2.900  14.186  21.880  0.00  0.00    +0.000 C 
BRANCH  25  26
ATOM     26  C   UNL     1      -2.257  13.552  23.105  0.00  0.00    +0.000 C 
ATOM     27  C   UNL     1      -2.809  12.151  23.326  0.00  0.00    +0.000 C 
ENDBRANCH  25  26
ENDBRANCH  24  25
ENDBRANCH  22  24
ENDBRANCH  19  22
ENDBRANCH  14  16
ENDBRANCH   4  12
BRANCH   5  28
ATOM     28  O   UNL     1       1.197   5.382  20.670  0.00  0.00    +0.000 OA
ATOM     29  H   UNL     1       0.326   5.767  20.415  0.00  0.00    +0.000 HD
ENDBRANCH   5  28
BRANCH   1  30
ATOM     30  C   UNL     1       4.762   5.617  16.262  0.00  0.00    +0.000 C 
BRANCH  30  31
ATOM     31  C   UNL     1       6.215   5.172  16.495  0.00  0.00    +0.000 C 
BRANCH  31  32
ATOM     32  C   UNL     1       6.904   4.628  15.245  0.00  0.00    +0.000 C 
BRANCH  32  34
ATOM     33  C   UNL     1       6.515   3.739  12.921  0.00  0.00    +0.000 C 
ATOM     34  C   UNL     1       5.868   4.119  14.241  0.00  0.00    +0.000 C 
ENDBRANCH  32  34
ENDBRANCH  31  32
ENDBRANCH  30  31
ENDBRANCH   1  30
TORSDOF 11
ENDMDL
MODEL 3
REMARK VINA RESULT:      -7.4      2.474     10.301
REMARK  Name = 
REMARK  13 active torsions:
REMARK  status: ('A' for Active; 'I' for Inactive)
REMARK    1  A    between atoms: C_1  and  C_2
REMARK    2  A    between atoms: C_2  and  C_3
REMARK    3  A    between atoms: C_3  and  C_4
REMARK    4  A    between atoms: C_4  and  C_5
REMARK    5  A    between atoms: C_5  and  N_6
REMARK    6  A    between atoms: C_9  and  C_10
REMARK    7  A    between atoms: N_12  and  C_13
REMARK    8  A    between atoms: C_16  and  C_17
REMARK    9  A    between atoms: C_17  and  O_19
REMARK   10  A    between atoms: O_19  and  C_20
REMARK   11  A    between atoms: C_20  and  C_21
REMARK   12  A    between atoms: C_21  and  C_22
REMARK   13  A    between atoms: C_25  and  O_26
REMARK                            x       y       z     vdW  Elec       q    Type
REMARK                         _______ _______ _______ _____ _____    ______ ____
ROOT
ATOM      1  N   UNL     1       4.445   5.108  17.640  0.00  0.00    +0.000 N 
ATOM      2  C   UNL     1       3.959   6.390  17.912  0.00  0.00    +0.000 A 
ATOM      3  O   UNL     1       4.484   7.415  17.468  0.00  0.00    +0.000 OA
ATOM      4  C   UNL     1       2.742   6.523  18.763  0.00  0.00    +0.000 A 
ATOM      5  C   UNL     1       2.113   5.414  19.209  0.00  0.00    +0.000 A 
ATOM      6  C   UNL     1       2.621   4.076  18.896  0.00  0.00    +0.000 A 
ATOM      7  C   UNL     1       1.932   2.931  19.336  0.00  0.00    +0.000 A 
ATOM      8  C   UNL     1       2.397   1.655  19.044  0.00  0.00    +0.000 A 
ATOM      9  C   UNL     1       3.586   1.509  18.346  0.00  0.00    +0.000 A 
ATOM     10  C   UNL     1       4.295   2.640  17.931  0.00  0.00    +0.000 A 
ATOM     11  C   UNL     1       3.805   3.936  18.157  0.00  0.00    +0.000 A 
ENDROOT
BRANCH   4  12
ATOM     12  C   UNL     1       2.141   7.854  19.129  0.00  0.00    +0.000 C 
ATOM     13  O   UNL     1       1.904   8.075  20.320  0.00  0.00    +0.000 OA
ATOM     14  N   UNL     1       1.832   8.726  18.104  0.00  0.00    +0.000 N 
ATOM     15  H   UNL     1       1.960   8.385  17.149  0.00  0.00    +0.000 HD
BRANCH  14  16
ATOM     16  C   UNL     1       1.173   9.968  18.276  0.00  0.00    +0.000 A 
ATOM     17  C   UNL     1       1.869  11.162  18.483  0.00  0.00    +0.000 A 
ATOM     18  C   UNL     1       1.199  12.342  18.807  0.00  0.00    +0.000 A 
ATOM     19  C   UNL     1      -0.192  12.355  18.916  0.00  0.00    +0.000 A 
ATOM     20  C   UNL     1      -0.908  11.187  18.619  0.00  0.00    +0.000 A 
ATOM     21  C   UNL     1      -0.227  10.001  18.287  0.00  0.00    +0.000 A 
BRANCH  19  22
ATOM     22  C   UNL     1      -0.811  13.600  19.446  0.00  0.00    +0.000 C 
ATOM     23  O   UNL     1      -0.297  14.704  19.332  0.00  0.00    +0.000 OA
BRANCH  22  24
ATOM     24  O   UNL     1      -1.908  13.311  20.190  0.00  0.00    +0.000 OA
BRANCH  24  25
ATOM     25  C   UNL     1      -1.734  13.477  21.606  0.00  0.00    +0.000 C 
BRANCH  25  26
ATOM     26  C   UNL     1      -0.909  12.353  22.217  0.00  0.00    +0.000 C 
ATOM     27  C   UNL     1      -1.770  11.509  23.145  0.00  0.00    +0.000 C 
ENDBRANCH  25  26
ENDBRANCH  24  25
ENDBRANCH  22  24
ENDBRANCH  19  22
ENDBRANCH  14  16
ENDBRANCH   4  12
BRANCH   5  28
ATOM     28  O   UNL     1       0.965   5.413  19.986  0.00  0.00    +0.000 OA
ATOM     29  H   UNL     1       0.750   6.343  20.234  0.00  0.00    +0.000 HD
ENDBRANCH   5  28
BRANCH   1  30
ATOM     30  C   UNL     1       5.596   4.987  16.735  0.00  0.00    +0.000 C 
BRANCH  30  31
ATOM     31  C   UNL     1       5.237   4.837  15.248  0.00  0.00    +0.000 C 
BRANCH  31  32
ATOM     32  C   UNL     1       5.922   3.656  14.562  0.00  0.00    +0.000 C 
BRANCH  32  34
ATOM     33  C   UNL     1       5.676   3.169  12.104  0.00  0.00    +0.000 C 
ATOM     34  C   UNL     1       6.357   4.038  13.146  0.00  0.00    +0.000 C 
ENDBRANCH  32  34
ENDBRANCH  31  32
ENDBRANCH  30  31
ENDBRANCH   1  30
TORSDOF 11
ENDMDL
MODEL 4
REMARK VINA RESULT:      -7.3      2.687     10.452
REMARK  Name = 
REMARK  13 active torsions:
REMARK  status: ('A' for Active; 'I' for Inactive)
REMARK    1  A    between atoms: C_1  and  C_2
REMARK    2  A    between atoms: C_2  and  C_3
REMARK    3  A    between atoms: C_3  and  C_4
REMARK    4  A    between atoms: C_4  and  C_5
REMARK    5  A    between atoms: C_5  and  N_6
REMARK    6  A    between atoms: C_9  and  C_10
REMARK    7  A    between atoms: N_12  and  C_13
REMARK    8  A    between atoms: C_16  and  C_17
REMARK    9  A    between atoms: C_17  and  O_19
REMARK   10  A    between atoms: O_19  and  C_20
REMARK   11  A    between atoms: C_20  and  C_21
REMARK   12  A    between atoms: C_21  and  C_22
REMARK   13  A    between atoms: C_25  and  O_26
REMARK                            x       y       z     vdW  Elec       q    Type
REMARK                         _______ _______ _______ _____ _____    ______ ____
ROOT
ATOM      1  N   UNL     1       3.883   5.591  17.523  0.00  0.00    +0.000 N 
ATOM      2  C   UNL     1       3.430   6.765  18.130  0.00  0.00    +0.000 A 
ATOM      3  O   UNL     1       3.760   7.890  17.744  0.00  0.00    +0.000 OA
ATOM      4  C   UNL     1       2.493   6.653  19.283  0.00  0.00    +0.000 A 
ATOM      5  C   UNL     1       2.068   5.435  19.684  0.00  0.00    +0.000 A 
ATOM      6  C   UNL     1       2.533   4.214  19.023  0.00  0.00    +0.000 A 
ATOM      7  C   UNL     1       2.051   2.956  19.428  0.00  0.00    +0.000 A 
ATOM      8  C   UNL     1       2.478   1.787  18.809  0.00  0.00    +0.000 A 
ATOM      9  C   UNL     1       3.432   1.861  17.806  0.00  0.00    +0.000 A 
ATOM     10  C   UNL     1       3.942   3.104  17.416  0.00  0.00    +0.000 A 
ATOM     11  C   UNL     1       3.470   4.298  17.983  0.00  0.00    +0.000 A 
ENDROOT
BRANCH   4  12
ATOM     12  C   UNL     1       1.953   7.850  20.018  0.00  0.00    +0.000 C 
ATOM     13  O   UNL     1       1.913   7.804  21.251  0.00  0.00    +0.000 OA
ATOM     14  N   UNL     1       1.475   8.907  19.268  0.00  0.00    +0.000 N 
ATOM     15  H   UNL     1       1.447   8.781  18.254  0.00  0.00    +0.000 HD
BRANCH  14  16
ATOM     16  C   UNL     1       0.846  10.056  19.807  0.00  0.00    +0.000 A 
ATOM     17  C   UNL     1       1.239  11.353  19.464  0.00  0.00    +0.000 A 
ATOM     18  C   UNL     1       0.714  12.464  20.123  0.00  0.00    +0.000 A 
ATOM     19  C   UNL     1      -0.233  12.301  21.135  0.00  0.00    +0.000 A 
ATOM     20  C   UNL     1      -0.703  11.013  21.424  0.00  0.00    +0.000 A 
ATOM     21  C   UNL     1      -0.174   9.895  20.751  0.00  0.00    +0.000 A 
BRANCH  19  22
ATOM     22  C   UNL     1      -0.600  13.516  21.913  0.00  0.00    +0.000 C 
ATOM     23  O   UNL     1       0.227  14.252  22.433  0.00  0.00    +0.000 OA
BRANCH  22  24
ATOM     24  O   UNL     1      -1.943  13.585  22.089  0.00  0.00    +0.000 OA
BRANCH  24  25
ATOM     25  C   UNL     1      -2.379  13.452  23.451  0.00  0.00    +0.000 C 
BRANCH  25  26
ATOM     26  C   UNL     1      -3.308  12.262  23.641  0.00  0.00    +0.000 C 
ATOM     27  C   UNL     1      -4.388  12.592  24.661  0.00  0.00    +0.000 C 
ENDBRANCH  25  26
ENDBRANCH  24  25
ENDBRANCH  22  24
ENDBRANCH  19  22
ENDBRANCH  14  16
ENDBRANCH   4  12
BRANCH   5  28
ATOM     28  O   UNL     1       1.182   5.209  20.727  0.00  0.00    +0.000 OA
ATOM     29  H   UNL     1       1.558   4.515  21.317  0.00  0.00    +0.000 HD
ENDBRANCH   5  28
BRANCH   1  30
ATOM     30  C   UNL     1       4.742   5.717  16.337  0.00  0.00    +0.000 C 
BRANCH  30  31
ATOM     31  C   UNL     1       6.252   5.652  16.622  0.00  0.00    +0.000 C 
BRANCH  31  32
ATOM     32  C   UNL     1       7.009   4.674  15.727  0.00  0.00    +0.000 C 
BRANCH  32  34
ATOM     33  C   UNL     1       6.529   4.043  13.337  0.00  0.00    +0.000 C 
ATOM     34  C   UNL     1       6.047   3.963  14.774  0.00  0.00    +0.000 C 
ENDBRANCH  32  34
ENDBRANCH  31  32
ENDBRANCH  30  31
ENDBRANCH   1  30
TORSDOF 11
ENDMDL
MODEL 5
REMARK VINA RESULT:      -7.3      2.893      9.982
REMARK  Name = 
REMARK  13 active torsions:
REMARK  status: ('A' for Active; 'I' for Inactive)
REMARK    1  A    between atoms: C_1  and  C_2
REMARK    2  A    between atoms: C_2  and  C_3
REMARK    3  A    between atoms: C_3  and  C_4
REMARK    4  A    between atoms: C_4  and  C_5
REMARK    5  A    between atoms: C_5  and  N_6
REMARK    6  A    between atoms: C_9  and  C_10
REMARK    7  A    between atoms: N_12  and  C_13
REMARK    8  A    between atoms: C_16  and  C_17
REMARK    9  A    between atoms: C_17  and  O_19
REMARK   10  A    between atoms: O_19  and  C_20
REMARK   11  A    between atoms: C_20  and  C_21
REMARK   12  A    between atoms: C_21  and  C_22
REMARK   13  A    between atoms: C_25  and  O_26
REMARK                            x       y       z     vdW  Elec       q    Type
REMARK                         _______ _______ _______ _____ _____    ______ ____
ROOT
ATOM      1  N   UNL     1       3.985   5.348  17.543  0.00  0.00    +0.000 N 
ATOM      2  C   UNL     1       3.531   6.596  17.979  0.00  0.00    +0.000 A 
ATOM      3  O   UNL     1       3.923   7.660  17.491  0.00  0.00    +0.000 OA
ATOM      4  C   UNL     1       2.516   6.641  19.069  0.00  0.00    +0.000 A 
ATOM      5  C   UNL     1       2.026   5.489  19.576  0.00  0.00    +0.000 A 
ATOM      6  C   UNL     1       2.494   4.188  19.092  0.00  0.00    +0.000 A 
ATOM      7  C   UNL     1       1.945   2.998  19.602  0.00  0.00    +0.000 A 
ATOM      8  C   UNL     1       2.373   1.755  19.152  0.00  0.00    +0.000 A 
ATOM      9  C   UNL     1       3.394   1.689  18.216  0.00  0.00    +0.000 A 
ATOM     10  C   UNL     1       3.969   2.864  17.724  0.00  0.00    +0.000 A 
ATOM     11  C   UNL     1       3.500   4.128  18.117  0.00  0.00    +0.000 A 
ENDROOT
BRANCH   4  12
ATOM     12  C   UNL     1       1.969   7.929  19.624  0.00  0.00    +0.000 C 
ATOM     13  O   UNL     1       1.883   8.042  20.850  0.00  0.00    +0.000 OA
ATOM     14  N   UNL     1       1.534   8.885  18.727  0.00  0.00    +0.000 N 
ATOM     15  H   UNL     1       1.541   8.630  17.737  0.00  0.00    +0.000 HD
BRANCH  14  16
ATOM     16  C   UNL     1       0.905  10.101  19.089  0.00  0.00    +0.000 A 
ATOM     17  C   UNL     1       1.548  11.336  18.986  0.00  0.00    +0.000 A 
ATOM     18  C   UNL     1       0.968  12.498  19.495  0.00  0.00    +0.000 A 
ATOM     19  C   UNL     1      -0.285  12.450  20.108  0.00  0.00    +0.000 A 
ATOM     20  C   UNL     1      -0.982  11.234  20.134  0.00  0.00    +0.000 A 
ATOM     21  C   UNL     1      -0.393  10.066  19.613  0.00  0.00    +0.000 A 
BRANCH  19  22
ATOM     22  C   UNL     1      -0.747  13.690  20.788  0.00  0.00    +0.000 C 
ATOM     23  O   UNL     1      -0.704  13.843  22.001  0.00  0.00    +0.000 OA
BRANCH  22  24
ATOM     24  O   UNL     1      -1.352  14.524  19.906  0.00  0.00    +0.000 OA
BRANCH  24  25
ATOM     25  C   UNL     1      -0.834  15.863  19.892  0.00  0.00    +0.000 C 
BRANCH  25  26
ATOM     26  C   UNL     1      -0.032  16.154  18.632  0.00  0.00    +0.000 C 
ATOM     27  C   UNL     1      -0.621  17.346  17.893  0.00  0.00    +0.000 C 
ENDBRANCH  25  26
ENDBRANCH  24  25
ENDBRANCH  22  24
ENDBRANCH  19  22
ENDBRANCH  14  16
ENDBRANCH   4  12
BRANCH   5  28
ATOM     28  O   UNL     1       1.066   5.407  20.572  0.00  0.00    +0.000 OA
ATOM     29  H   UNL     1       0.222   5.089  20.174  0.00  0.00    +0.000 HD
ENDBRANCH   5  28
BRANCH   1  30
ATOM     30  C   UNL     1       4.925   5.314  16.413  0.00  0.00    +0.000 C 
BRANCH  30  31
ATOM     31  C   UNL     1       6.398   5.115  16.804  0.00  0.00    +0.000 C 
BRANCH  31  32
ATOM     32  C   UNL     1       7.239   6.388  16.716  0.00  0.00    +0.000 C 
BRANCH  32  34
ATOM     33  C   UNL     1       7.770   5.799  19.106  0.00  0.00    +0.000 C 
ATOM     34  C   UNL     1       7.543   6.926  18.115  0.00  0.00    +0.000 C 
ENDBRANCH  32  34
ENDBRANCH  31  32
ENDBRANCH  30  31
ENDBRANCH   1  30
TORSDOF 11
ENDMDL
MODEL 6
REMARK VINA RESULT:      -7.2      2.633     10.099
REMARK  Name = 
REMARK  13 active torsions:
REMARK  status: ('A' for Active; 'I' for Inactive)
REMARK    1  A    between atoms: C_1  and  C_2
REMARK    2  A    between atoms: C_2  and  C_3
REMARK    3  A    between atoms: C_3  and  C_4
REMARK    4  A    between atoms: C_4  and  C_5
REMARK    5  A    between atoms: C_5  and  N_6
REMARK    6  A    between atoms: C_9  and  C_10
REMARK    7  A    between atoms: N_12  and  C_13
REMARK    8  A    between atoms: C_16  and  C_17
REMARK    9  A    between atoms: C_17  and  O_19
REMARK   10  A    between atoms: O_19  and  C_20
REMARK   11  A    between atoms: C_20  and  C_21
REMARK   12  A    between atoms: C_21  and  C_22
REMARK   13  A    between atoms: C_25  and  O_26
REMARK                            x       y       z     vdW  Elec       q    Type
REMARK                         _______ _______ _______ _____ _____    ______ ____
ROOT
ATOM      1  N   UNL     1       3.986   5.329  17.576  0.00  0.00    +0.000 N 
ATOM      2  C   UNL     1       3.516   6.551  18.065  0.00  0.00    +0.000 A 
ATOM      3  O   UNL     1       3.877   7.640  17.608  0.00  0.00    +0.000 OA
ATOM      4  C   UNL     1       2.521   6.537  19.175  0.00  0.00    +0.000 A 
ATOM      5  C   UNL     1       2.064   5.358  19.649  0.00  0.00    +0.000 A 
ATOM      6  C   UNL     1       2.548   4.084  19.111  0.00  0.00    +0.000 A 
ATOM      7  C   UNL     1       2.033   2.866  19.588  0.00  0.00    +0.000 A 
ATOM      8  C   UNL     1       2.478   1.649  19.086  0.00  0.00    +0.000 A 
ATOM      9  C   UNL     1       3.481   1.637  18.129  0.00  0.00    +0.000 A 
ATOM     10  C   UNL     1       4.023   2.841  17.669  0.00  0.00    +0.000 A 
ATOM     11  C   UNL     1       3.537   4.080  18.116  0.00  0.00    +0.000 A 
ENDROOT
BRANCH   4  12
ATOM     12  C   UNL     1       1.959   7.793  19.785  0.00  0.00    +0.000 C 
ATOM     13  O   UNL     1       1.845   7.840  21.013  0.00  0.00    +0.000 OA
ATOM     14  N   UNL     1       1.544   8.796  18.931  0.00  0.00    +0.000 N 
ATOM     15  H   UNL     1       1.574   8.594  17.929  0.00  0.00    +0.000 HD
BRANCH  14  16
ATOM     16  C   UNL     1       0.904   9.990  19.343  0.00  0.00    +0.000 A 
ATOM     17  C   UNL     1      -0.181   9.991  20.224  0.00  0.00    +0.000 A 
ATOM     18  C   UNL     1      -0.892  11.160  20.492  0.00  0.00    +0.000 A 
ATOM     19  C   UNL     1      -0.522  12.364  19.892  0.00  0.00    +0.000 A 
ATOM     20  C   UNL     1       0.620  12.395  19.079  0.00  0.00    +0.000 A 
ATOM     21  C   UNL     1       1.339  11.212  18.818  0.00  0.00    +0.000 A 
BRANCH  19  22
ATOM     22  C   UNL     1      -1.441  13.519  20.080  0.00  0.00    +0.000 C 
ATOM     23  O   UNL     1      -1.052  14.645  20.357  0.00  0.00    +0.000 OA
BRANCH  22  24
ATOM     24  O   UNL     1      -2.735  13.111  20.062  0.00  0.00    +0.000 OA
BRANCH  24  25
ATOM     25  C   UNL     1      -3.561  13.686  21.086  0.00  0.00    +0.000 C 
BRANCH  25  26
ATOM     26  C   UNL     1      -3.625  12.811  22.330  0.00  0.00    +0.000 C 
ATOM     27  C   UNL     1      -3.001  13.531  23.516  0.00  0.00    +0.000 C 
ENDBRANCH  25  26
ENDBRANCH  24  25
ENDBRANCH  22  24
ENDBRANCH  19  22
ENDBRANCH  14  16
ENDBRANCH   4  12
BRANCH   5  28
ATOM     28  O   UNL     1       1.125   5.221  20.660  0.00  0.00    +0.000 OA
ATOM     29  H   UNL     1       1.570   5.370  21.527  0.00  0.00    +0.000 HD
ENDBRANCH   5  28
BRANCH   1  30
ATOM     30  C   UNL     1       4.904   5.354  16.429  0.00  0.00    +0.000 C 
BRANCH  30  31
ATOM     31  C   UNL     1       6.393   5.221  16.789  0.00  0.00    +0.000 C 
BRANCH  31  32
ATOM     32  C   UNL     1       7.178   6.525  16.665  0.00  0.00    +0.000 C 
BRANCH  32  34
ATOM     33  C   UNL     1       8.215   8.418  17.962  0.00  0.00    +0.000 C 
ATOM     34  C   UNL     1       7.586   7.039  18.046  0.00  0.00    +0.000 C 
ENDBRANCH  32  34
ENDBRANCH  31  32
ENDBRANCH  30  31
ENDBRANCH   1  30
TORSDOF 11
ENDMDL
MODEL 7
REMARK VINA RESULT:      -7.2      2.461     10.122
REMARK  Name = 
REMARK  13 active torsions:
REMARK  status: ('A' for Active; 'I' for Inactive)
REMARK    1  A    between atoms: C_1  and  C_2
REMARK    2  A    between atoms: C_2  and  C_3
REMARK    3  A    between atoms: C_3  and  C_4
REMARK    4  A    between atoms: C_4  and  C_5
REMARK    5  A    between atoms: C_5  and  N_6
REMARK    6  A    between atoms: C_9  and  C_10
REMARK    7  A    between atoms: N_12  and  C_13
REMARK    8  A    between atoms: C_16  and  C_17
REMARK    9  A    between atoms: C_17  and  O_19
REMARK   10  A    between atoms: O_19  and  C_20
REMARK   11  A    between atoms: C_20  and  C_21
REMARK   12  A    between atoms: C_21  and  C_22
REMARK   13  A    between atoms: C_25  and  O_26
REMARK                            x       y       z     vdW  Elec       q    Type
REMARK                         _______ _______ _______ _____ _____    ______ ____
ROOT
ATOM      1  N   UNL     1       4.078   5.495  17.483  0.00  0.00    +0.000 N 
ATOM      2  C   UNL     1       3.551   6.744  17.825  0.00  0.00    +0.000 A 
ATOM      3  O   UNL     1       3.888   7.791  17.264  0.00  0.00    +0.000 OA
ATOM      4  C   UNL     1       2.524   6.810  18.904  0.00  0.00    +0.000 A 
ATOM      5  C   UNL     1       2.094   5.671  19.488  0.00  0.00    +0.000 A 
ATOM      6  C   UNL     1       2.638   4.367  19.102  0.00  0.00    +0.000 A 
ATOM      7  C   UNL     1       2.151   3.187  19.693  0.00  0.00    +0.000 A 
ATOM      8  C   UNL     1       2.652   1.942  19.336  0.00  0.00    +0.000 A 
ATOM      9  C   UNL     1       3.684   1.866  18.413  0.00  0.00    +0.000 A 
ATOM     10  C   UNL     1       4.198   3.034  17.842  0.00  0.00    +0.000 A 
ATOM     11  C   UNL     1       3.656   4.295  18.140  0.00  0.00    +0.000 A 
ENDROOT
BRANCH   4  12
ATOM     12  C   UNL     1       1.900   8.101  19.361  0.00  0.00    +0.000 C 
ATOM     13  O   UNL     1       1.714   8.258  20.571  0.00  0.00    +0.000 OA
ATOM     14  N   UNL     1       1.515   9.010  18.394  0.00  0.00    +0.000 N 
ATOM     15  H   UNL     1       1.608   8.718  17.420  0.00  0.00    +0.000 HD
BRANCH  14  16
ATOM     16  C   UNL     1       0.827  10.219  18.657  0.00  0.00    +0.000 A 
ATOM     17  C   UNL     1       1.494  11.419  18.914  0.00  0.00    +0.000 A 
ATOM     18  C   UNL     1       0.801  12.558  19.323  0.00  0.00    +0.000 A 
ATOM     19  C   UNL     1      -0.586  12.524  19.471  0.00  0.00    +0.000 A 
ATOM     20  C   UNL     1      -1.277  11.355  19.127  0.00  0.00    +0.000 A 
ATOM     21  C   UNL     1      -0.572  10.210  18.707  0.00  0.00    +0.000 A 
BRANCH  19  22
ATOM     22  C   UNL     1      -1.224  13.718  20.090  0.00  0.00    +0.000 C 
ATOM     23  O   UNL     1      -0.929  14.865  19.788  0.00  0.00    +0.000 OA
BRANCH  22  24
ATOM     24  O   UNL     1      -2.032  13.352  21.117  0.00  0.00    +0.000 OA
BRANCH  24  25
ATOM     25  C   UNL     1      -2.110  14.304  22.188  0.00  0.00    +0.000 C 
BRANCH  25  26
ATOM     26  C   UNL     1      -1.321  13.856  23.411  0.00  0.00    +0.000 C 
ATOM     27  C   UNL     1      -1.363  14.929  24.489  0.00  0.00    +0.000 C 
ENDBRANCH  25  26
ENDBRANCH  24  25
ENDBRANCH  22  24
ENDBRANCH  19  22
ENDBRANCH  14  16
ENDBRANCH   4  12
BRANCH   5  28
ATOM     28  O   UNL     1       1.130   5.607  20.483  0.00  0.00    +0.000 OA
ATOM     29  H   UNL     1       1.571   5.391  21.337  0.00  0.00    +0.000 HD
ENDBRANCH   5  28
BRANCH   1  30
ATOM     30  C   UNL     1       5.029   5.434  16.364  0.00  0.00    +0.000 C 
BRANCH  30  31
ATOM     31  C   UNL     1       6.504   5.304  16.776  0.00  0.00    +0.000 C 
BRANCH  31  32
ATOM     32  C   UNL     1       7.166   6.634  17.135  0.00  0.00    +0.000 C 
BRANCH  32  34
ATOM     33  C   UNL     1       7.184   5.539  19.403  0.00  0.00    +0.000 C 
ATOM     34  C   UNL     1       7.876   6.531  18.486  0.00  0.00    +0.000 C 
ENDBRANCH  32  34
ENDBRANCH  31  32
ENDBRANCH  30  31
ENDBRANCH   1  30
TORSDOF 11
ENDMDL
MODEL 8
REMARK VINA RESULT:      -7.2      1.068      3.141
REMARK  Name = 
REMARK  13 active torsions:
REMARK  status: ('A' for Active; 'I' for Inactive)
REMARK    1  A    between atoms: C_1  and  C_2
REMARK    2  A    between atoms: C_2  and  C_3
REMARK    3  A    between atoms: C_3  and  C_4
REMARK    4  A    between atoms: C_4  and  C_5
REMARK    5  A    between atoms: C_5  and  N_6
REMARK    6  A    between atoms: C_9  and  C_10
REMARK    7  A    between atoms: N_12  and  C_13
REMARK    8  A    between atoms: C_16  and  C_17
REMARK    9  A    between atoms: C_17  and  O_19
REMARK   10  A    between atoms: O_19  and  C_20
REMARK   11  A    between atoms: C_20  and  C_21
REMARK   12  A    between atoms: C_21  and  C_22
REMARK   13  A    between atoms: C_25  and  O_26
REMARK                            x       y       z     vdW  Elec       q    Type
REMARK                         _______ _______ _______ _____ _____    ______ ____
ROOT
ATOM      1  N   UNL     1      -2.155  11.404  18.768  0.00  0.00    +0.000 N 
ATOM      2  C   UNL     1      -1.130  10.605  18.253  0.00  0.00    +0.000 A 
ATOM      3  O   UNL     1      -1.192  10.067  17.144  0.00  0.00    +0.000 OA
ATOM      4  C   UNL     1       0.100  10.411  19.073  0.00  0.00    +0.000 A 
ATOM      5  C   UNL     1       0.218  11.040  20.262  0.00  0.00    +0.000 A 
ATOM      6  C   UNL     1      -0.855  11.894  20.778  0.00  0.00    +0.000 A 
ATOM      7  C   UNL     1      -0.700  12.574  22.000  0.00  0.00    +0.000 A 
ATOM      8  C   UNL     1      -1.705  13.390  22.503  0.00  0.00    +0.000 A 
ATOM      9  C   UNL     1      -2.900  13.500  21.809  0.00  0.00    +0.000 A 
ATOM     10  C   UNL     1      -3.077  12.805  20.609  0.00  0.00    +0.000 A 
ATOM     11  C   UNL     1      -2.047  12.030  20.053  0.00  0.00    +0.000 A 
ENDROOT
BRANCH   4  12
ATOM     12  C   UNL     1       1.258   9.561  18.622  0.00  0.00    +0.000 C 
ATOM     13  O   UNL     1       1.919   9.949  17.655  0.00  0.00    +0.000 OA
ATOM     14  N   UNL     1       1.475   8.365  19.277  0.00  0.00    +0.000 N 
ATOM     15  H   UNL     1       0.788   8.091  19.983  0.00  0.00    +0.000 HD
BRANCH  14  16
ATOM     16  C   UNL     1       2.455   7.412  18.908  0.00  0.00    +0.000 A 
ATOM     17  C   UNL     1       2.733   6.284  19.685  0.00  0.00    +0.000 A 
ATOM     18  C   UNL     1       3.807   5.447  19.385  0.00  0.00    +0.000 A 
ATOM     19  C   UNL     1       4.622   5.713  18.285  0.00  0.00    +0.000 A 
ATOM     20  C   UNL     1       4.299   6.787  17.444  0.00  0.00    +0.000 A 
ATOM     21  C   UNL     1       3.210   7.625  17.748  0.00  0.00    +0.000 A 
BRANCH  19  22
ATOM     22  C   UNL     1       5.851   4.886  18.144  0.00  0.00    +0.000 C 
ATOM     23  O   UNL     1       6.304   4.203  19.052  0.00  0.00    +0.000 OA
BRANCH  22  24
ATOM     24  O   UNL     1       6.459   5.127  16.955  0.00  0.00    +0.000 OA
BRANCH  24  25
ATOM     25  C   UNL     1       6.106   4.214  15.904  0.00  0.00    +0.000 C 
BRANCH  25  26
ATOM     26  C   UNL     1       6.415   4.781  14.526  0.00  0.00    +0.000 C 
ATOM     27  C   UNL     1       6.146   3.737  13.452  0.00  0.00    +0.000 C 
ENDBRANCH  25  26
ENDBRANCH  24  25
ENDBRANCH  22  24
ENDBRANCH  19  22
ENDBRANCH  14  16
ENDBRANCH   4  12
BRANCH   5  28
ATOM     28  O   UNL     1       1.320  10.953  21.098  0.00  0.00    +0.000 OA
ATOM     29  H   UNL     1       2.138  10.978  20.547  0.00  0.00    +0.000 HD
ENDBRANCH   5  28
BRANCH   1  30
ATOM     30  C   UNL     1      -3.326  11.654  17.917  0.00  0.00    +0.000 C 
BRANCH  30  31
ATOM     31  C   UNL     1      -4.458  10.623  18.057  0.00  0.00    +0.000 C 
BRANCH  31  32
ATOM     32  C   UNL     1      -5.856  11.208  17.859  0.00  0.00    +0.000 C 
BRANCH  32  34
ATOM     33  C   UNL     1      -6.861  11.166  20.167  0.00  0.00    +0.000 C 
ATOM     34  C   UNL     1      -6.859  10.526  18.791  0.00  0.00    +0.000 C 
ENDBRANCH  32  34
ENDBRANCH  31  32
ENDBRANCH  30  31
ENDBRANCH   1  30
TORSDOF 11
ENDMDL
MODEL 9
REMARK VINA RESULT:      -7.2      2.341     10.193
REMARK  Name = 
REMARK  13 active torsions:
REMARK  status: ('A' for Active; 'I' for Inactive)
REMARK    1  A    between atoms: C_1  and  C_2
REMARK    2  A    between atoms: C_2  and  C_3
REMARK    3  A    between atoms: C_3  and  C_4
REMARK    4  A    between atoms: C_4  and  C_5
REMARK    5  A    between atoms: C_5  and  N_6
REMARK    6  A    between atoms: C_9  and  C_10
REMARK    7  A    between atoms: N_12  and  C_13
REMARK    8  A    between atoms: C_16  and  C_17
REMARK    9  A    between atoms: C_17  and  O_19
REMARK   10  A    between atoms: O_19  and  C_20
REMARK   11  A    between atoms: C_20  and  C_21
REMARK   12  A    between atoms: C_21  and  C_22
REMARK   13  A    between atoms: C_25  and  O_26
REMARK                            x       y       z     vdW  Elec       q    Type
REMARK                         _______ _______ _______ _____ _____    ______ ____
ROOT
ATOM      1  N   UNL     1       3.827   5.583  17.696  0.00  0.00    +0.000 N 
ATOM      2  C   UNL     1       3.359   6.876  17.946  0.00  0.00    +0.000 A 
ATOM      3  O   UNL     1       3.656   7.844  17.239  0.00  0.00    +0.000 OA
ATOM      4  C   UNL     1       2.450   7.091  19.107  0.00  0.00    +0.000 A 
ATOM      5  C   UNL     1       2.061   6.037  19.856  0.00  0.00    +0.000 A 
ATOM      6  C   UNL     1       2.540   4.683  19.568  0.00  0.00    +0.000 A 
ATOM      7  C   UNL     1       2.095   3.591  20.334  0.00  0.00    +0.000 A 
ATOM      8  C   UNL     1       2.535   2.300  20.072  0.00  0.00    +0.000 A 
ATOM      9  C   UNL     1       3.465   2.092  19.065  0.00  0.00    +0.000 A 
ATOM     10  C   UNL     1       3.938   3.174  18.317  0.00  0.00    +0.000 A 
ATOM     11  C   UNL     1       3.452   4.475  18.524  0.00  0.00    +0.000 A 
ENDROOT
BRANCH   4  12
ATOM     12  C   UNL     1       1.899   8.443  19.475  0.00  0.00    +0.000 C 
ATOM     13  O   UNL     1       1.803   8.723  20.673  0.00  0.00    +0.000 OA
ATOM     14  N   UNL     1       1.473   9.267  18.451  0.00  0.00    +0.000 N 
ATOM     15  H   UNL     1       1.488   8.879  17.506  0.00  0.00    +0.000 HD
BRANCH  14  16
ATOM     16  C   UNL     1       0.842  10.521  18.638  0.00  0.00    +0.000 A 
ATOM     17  C   UNL     1       1.560  11.717  18.708  0.00  0.00    +0.000 A 
ATOM     18  C   UNL     1       0.935  12.916  19.049  0.00  0.00    +0.000 A 
ATOM     19  C   UNL     1      -0.434  12.947  19.315  0.00  0.00    +0.000 A 
ATOM     20  C   UNL     1      -1.183  11.772  19.157  0.00  0.00    +0.000 A 
ATOM     21  C   UNL     1      -0.547  10.566  18.806  0.00  0.00    +0.000 A 
BRANCH  19  22
ATOM     22  C   UNL     1      -0.985  14.220  19.852  0.00  0.00    +0.000 C 
ATOM     23  O   UNL     1      -0.740  15.314  19.363  0.00  0.00    +0.000 OA
BRANCH  22  24
ATOM     24  O   UNL     1      -1.640  14.004  21.021  0.00  0.00    +0.000 OA
BRANCH  24  25
ATOM     25  C   UNL     1      -0.805  14.018  22.189  0.00  0.00    +0.000 C 
BRANCH  25  26
ATOM     26  C   UNL     1      -1.309  13.067  23.265  0.00  0.00    +0.000 C 
ATOM     27  C   UNL     1      -2.276  12.056  22.665  0.00  0.00    +0.000 C 
ENDBRANCH  25  26
ENDBRANCH  24  25
ENDBRANCH  22  24
ENDBRANCH  19  22
ENDBRANCH  14  16
ENDBRANCH   4  12
BRANCH   5  28
ATOM     28  O   UNL     1       1.203   6.112  20.943  0.00  0.00    +0.000 OA
ATOM     29  H   UNL     1       0.686   5.274  20.996  0.00  0.00    +0.000 HD
ENDBRANCH   5  28
BRANCH   1  30
ATOM     30  C   UNL     1       4.657   5.370  16.502  0.00  0.00    +0.000 C 
BRANCH  30  31
ATOM     31  C   UNL     1       6.168   5.544  16.726  0.00  0.00    +0.000 C 
BRANCH  31  32
ATOM     32  C   UNL     1       7.032   4.658  15.831  0.00  0.00    +0.000 C 
BRANCH  32  34
ATOM     33  C   UNL     1       6.432   4.003  13.475  0.00  0.00    +0.000 C 
ATOM     34  C   UNL     1       6.155   3.769  14.949  0.00  0.00    +0.000 C 
ENDBRANCH  32  34
ENDBRANCH  31  32
ENDBRANCH  30  31
ENDBRANCH   1  30
TORSDOF 11
ENDMDL
