MODEL 1
REMARK VINA RESULT:      -8.1      0.000      0.000
REMARK  Name = 
REMARK  9 active torsions:
REMARK  status: ('A' for Active; 'I' for Inactive)
REMARK    1  A    between atoms: C_1  and  O_2
REMARK    2  A    between atoms: O_2  and  C_3
REMARK    3  A    between atoms: C_8  and  N_9
REMARK    4  A    between atoms: C_10  and  C_12
REMARK    5  A    between atoms: N_14  and  C_15
REMARK    6  A    between atoms: C_15  and  C_16
REMARK    7  A    between atoms: C_16  and  C_17
REMARK    8  A    between atoms: N_22  and  S_23
REMARK    9  A    between atoms: S_23  and  C_26
REMARK                            x       y       z     vdW  Elec       q    Type
REMARK                         _______ _______ _______ _____ _____    ______ ____
ROOT
ATOM      1  C   UNL     1       2.813   6.684  19.027  0.00  0.00    +0.000 C 
ENDROOT
BRANCH   1   4
ATOM      2  C   UNL     1       1.728   8.859  18.564  0.00  0.00    +0.000 C 
ATOM      3  O   UNL     1       2.163   9.006  17.431  0.00  0.00    +0.000 OA
ATOM      4  N   UNL     1       2.027   7.825  19.434  0.00  0.00    +0.000 N 
ATOM      5  H   UNL     1       1.446   7.770  20.269  0.00  0.00    +0.000 HD
BRANCH   2   7
ATOM      6  N   UNL     1       1.094  10.327  20.440  0.00  0.00    +0.000 N 
ATOM      7  C   UNL     1       0.760   9.889  19.170  0.00  0.00    +0.000 C 
ATOM      8  O   UNL     1      -0.196  10.228  18.478  0.00  0.00    +0.000 OA
ATOM      9  H   UNL     1       2.017  10.081  20.792  0.00  0.00    +0.000 HD
BRANCH   6  15
ATOM     10  C   UNL     1       0.325  12.523  21.215  0.00  0.00    +0.000 A 
ATOM     11  C   UNL     1      -0.448  13.287  22.103  0.00  0.00    +0.000 A 
ATOM     12  C   UNL     1      -1.307  12.670  23.012  0.00  0.00    +0.000 A 
ATOM     13  C   UNL     1      -1.386  11.287  23.059  0.00  0.00    +0.000 A 
ATOM     14  C   UNL     1      -0.594  10.518  22.206  0.00  0.00    +0.000 A 
ATOM     15  C   UNL     1       0.268  11.114  21.278  0.00  0.00    +0.000 A 
BRANCH  10  17
ATOM     16  C   UNL     1       0.893  14.478  20.019  0.00  0.00    +0.000 C 
ATOM     17  O   UNL     1       1.145  13.091  20.265  0.00  0.00    +0.000 OA
ENDBRANCH  10  17
ENDBRANCH   6  15
ENDBRANCH   2   7
ENDBRANCH   1   4
BRANCH   1  18
ATOM     18  C   UNL     1       1.965   5.604  18.352  0.00  0.00    +0.000 C 
BRANCH  18  19
ATOM     19  C   UNL     1       1.838   4.301  19.175  0.00  0.00    +0.000 C 
ATOM     20  C   UNL     1       1.448   4.662  20.624  0.00  0.00    +0.000 C 
ATOM     21  C   UNL     1       1.295   3.443  21.512  0.00  0.00    +0.000 C 
ATOM     22  C   UNL     1       2.587   2.648  21.481  0.00  0.00    +0.000 C 
ATOM     23  C   UNL     1       2.924   2.232  20.057  0.00  0.00    +0.000 C 
ATOM     24  N   UNL     1       3.093   3.427  19.153  0.00  0.00    +0.000 NA
BRANCH  24  25
ATOM     25  S   UNL     1       3.540   2.941  17.531  0.00  0.00    +0.000 S 
ATOM     26  O   UNL     1       4.051   1.587  17.637  0.00  0.00    +0.000 OA
ATOM     27  O   UNL     1       2.453   3.262  16.634  0.00  0.00    +0.000 OA
BRANCH  25  28
ATOM     28  C   UNL     1       4.897   4.001  17.089  0.00  0.00    +0.000 A 
ATOM     29  C   UNL     1       5.145   4.278  15.739  0.00  0.00    +0.000 A 
ATOM     30  C   UNL     1       6.231   5.077  15.391  0.00  0.00    +0.000 A 
ATOM     31  C   UNL     1       7.060   5.597  16.386  0.00  0.00    +0.000 A 
ATOM     32  C   UNL     1       6.797   5.334  17.736  0.00  0.00    +0.000 A 
ATOM     33  C   UNL     1       5.706   4.537  18.089  0.00  0.00    +0.000 A 
ENDBRANCH  25  28
ENDBRANCH  24  25
ENDBRANCH  18  19
ENDBRANCH   1  18
TORSDOF 8
ENDMDL
MODEL 2
REMARK VINA RESULT:      -8.1      2.957      4.885
REMARK  Name = 
REMARK  9 active torsions:
REMARK  status: ('A' for Active; 'I' for Inactive)
REMARK    1  A    between atoms: C_1  and  O_2
REMARK    2  A    between atoms: O_2  and  C_3
REMARK    3  A    between atoms: C_8  and  N_9
REMARK    4  A    between atoms: C_10  and  C_12
REMARK    5  A    between atoms: N_14  and  C_15
REMARK    6  A    between atoms: C_15  and  C_16
REMARK    7  A    between atoms: C_16  and  C_17
REMARK    8  A    between atoms: N_22  and  S_23
REMARK    9  A    between atoms: S_23  and  C_26
REMARK                            x       y       z     vdW  Elec       q    Type
REMARK                         _______ _______ _______ _____ _____    ______ ____
ROOT
ATOM      1  C   UNL     1       3.215   8.047  17.619  0.00  0.00    +0.000 C 
ENDROOT
BRANCH   1   4
ATOM      2  C   UNL     1       1.564   9.794  18.207  0.00  0.00    +0.000 C 
ATOM      3  O   UNL     1       2.267  10.759  17.947  0.00  0.00    +0.000 OA
ATOM      4  N   UNL     1       1.938   8.462  18.149  0.00  0.00    +0.000 N 
ATOM      5  H   UNL     1       1.178   7.788  18.233  0.00  0.00    +0.000 HD
BRANCH   2   7
ATOM      6  N   UNL     1      -0.755  10.453  17.694  0.00  0.00    +0.000 N 
ATOM      7  C   UNL     1       0.110   9.987  18.669  0.00  0.00    +0.000 C 
ATOM      8  O   UNL     1      -0.146   9.704  19.836  0.00  0.00    +0.000 OA
ATOM      9  H   UNL     1      -0.417  10.460  16.733  0.00  0.00    +0.000 HD
BRANCH   6  15
ATOM     10  C   UNL     1      -3.118  10.508  17.040  0.00  0.00    +0.000 A 
ATOM     11  C   UNL     1      -4.414  11.012  17.237  0.00  0.00    +0.000 A 
ATOM     12  C   UNL     1      -4.697  11.846  18.317  0.00  0.00    +0.000 A 
ATOM     13  C   UNL     1      -3.688  12.204  19.197  0.00  0.00    +0.000 A 
ATOM     14  C   UNL     1      -2.390  11.740  18.989  0.00  0.00    +0.000 A 
ATOM     15  C   UNL     1      -2.082  10.892  17.918  0.00  0.00    +0.000 A 
BRANCH  10  17
ATOM     16  C   UNL     1      -3.051  10.154  14.707  0.00  0.00    +0.000 C 
ATOM     17  O   UNL     1      -2.806   9.639  16.018  0.00  0.00    +0.000 OA
ENDBRANCH  10  17
ENDBRANCH   6  15
ENDBRANCH   2   7
ENDBRANCH   1   4
BRANCH   1  18
ATOM     18  C   UNL     1       3.311   6.529  17.453  0.00  0.00    +0.000 C 
BRANCH  18  19
ATOM     19  C   UNL     1       4.728   6.026  17.094  0.00  0.00    +0.000 C 
ATOM     20  C   UNL     1       4.977   6.267  15.590  0.00  0.00    +0.000 C 
ATOM     21  C   UNL     1       6.350   5.807  15.140  0.00  0.00    +0.000 C 
ATOM     22  C   UNL     1       6.513   4.339  15.488  0.00  0.00    +0.000 C 
ATOM     23  C   UNL     1       6.341   4.123  16.984  0.00  0.00    +0.000 C 
ATOM     24  N   UNL     1       4.979   4.562  17.456  0.00  0.00    +0.000 NA
BRANCH  24  25
ATOM     25  S   UNL     1       4.768   4.252  19.167  0.00  0.00    +0.000 S 
ATOM     26  O   UNL     1       5.602   3.108  19.481  0.00  0.00    +0.000 OA
ATOM     27  O   UNL     1       4.908   5.500  19.885  0.00  0.00    +0.000 OA
BRANCH  25  28
ATOM     28  C   UNL     1       3.071   3.752  19.341  0.00  0.00    +0.000 A 
ATOM     29  C   UNL     1       2.546   2.778  18.482  0.00  0.00    +0.000 A 
ATOM     30  C   UNL     1       1.207   2.414  18.594  0.00  0.00    +0.000 A 
ATOM     31  C   UNL     1       0.400   3.018  19.560  0.00  0.00    +0.000 A 
ATOM     32  C   UNL     1       0.933   3.977  20.430  0.00  0.00    +0.000 A 
ATOM     33  C   UNL     1       2.277   4.340  20.324  0.00  0.00    +0.000 A 
ENDBRANCH  25  28
ENDBRANCH  24  25
ENDBRANCH  18  19
ENDBRANCH   1  18
TORSDOF 8
ENDMDL
MODEL 3
REMARK VINA RESULT:      -8.0      2.992      9.102
REMARK  Name = 
REMARK  9 active torsions:
REMARK  status: ('A' for Active; 'I' for Inactive)
REMARK    1  A    between atoms: C_1  and  O_2
REMARK    2  A    between atoms: O_2  and  C_3
REMARK    3  A    between atoms: C_8  and  N_9
REMARK    4  A    between atoms: C_10  and  C_12
REMARK    5  A    between atoms: N_14  and  C_15
REMARK    6  A    between atoms: C_15  and  C_16
REMARK    7  A    between atoms: C_16  and  C_17
REMARK    8  A    between atoms: N_22  and  S_23
REMARK    9  A    between atoms: S_23  and  C_26
REMARK                            x       y       z     vdW  Elec       q    Type
REMARK                         _______ _______ _______ _____ _____    ______ ____
ROOT
ATOM      1  C   UNL     1       1.570   7.160  20.846  0.00  0.00    +0.000 C 
ENDROOT
BRANCH   1   4
ATOM      2  C   UNL     1       2.372   4.996  19.954  0.00  0.00    +0.000 C 
ATOM      3  O   UNL     1       1.536   4.290  20.498  0.00  0.00    +0.000 OA
ATOM      4  N   UNL     1       2.519   6.364  20.104  0.00  0.00    +0.000 N 
ATOM      5  H   UNL     1       3.156   6.813  19.447  0.00  0.00    +0.000 HD
BRANCH   2   7
ATOM      6  N   UNL     1       4.270   5.294  18.411  0.00  0.00    +0.000 N 
ATOM      7  C   UNL     1       3.416   4.382  19.006  0.00  0.00    +0.000 C 
ATOM      8  O   UNL     1       3.401   3.162  18.877  0.00  0.00    +0.000 OA
ATOM      9  H   UNL     1       4.262   6.247  18.769  0.00  0.00    +0.000 HD
BRANCH   6  15
ATOM     10  C   UNL     1       6.535   4.749  17.645  0.00  0.00    +0.000 A 
ATOM     11  C   UNL     1       7.433   4.534  16.588  0.00  0.00    +0.000 A 
ATOM     12  C   UNL     1       6.989   4.521  15.267  0.00  0.00    +0.000 A 
ATOM     13  C   UNL     1       5.650   4.745  14.986  0.00  0.00    +0.000 A 
ATOM     14  C   UNL     1       4.756   4.997  16.027  0.00  0.00    +0.000 A 
ATOM     15  C   UNL     1       5.176   5.004  17.362  0.00  0.00    +0.000 A 
BRANCH  10  17
ATOM     16  C   UNL     1       7.796   5.779  19.355  0.00  0.00    +0.000 C 
ATOM     17  O   UNL     1       6.921   4.716  18.967  0.00  0.00    +0.000 OA
ENDBRANCH  10  17
ENDBRANCH   6  15
ENDBRANCH   2   7
ENDBRANCH   1   4
BRANCH   1  18
ATOM     18  C   UNL     1       1.321   8.523  20.197  0.00  0.00    +0.000 C 
BRANCH  18  19
ATOM     19  C   UNL     1       0.804   9.600  21.178  0.00  0.00    +0.000 C 
ATOM     20  C   UNL     1       0.503   8.933  22.538  0.00  0.00    +0.000 C 
ATOM     21  C   UNL     1      -0.008   9.915  23.574  0.00  0.00    +0.000 C 
ATOM     22  C   UNL     1      -1.242  10.607  23.026  0.00  0.00    +0.000 C 
ATOM     23  C   UNL     1      -0.917  11.325  21.724  0.00  0.00    +0.000 C 
ATOM     24  N   UNL     1      -0.416  10.369  20.672  0.00  0.00    +0.000 NA
BRANCH  24  25
ATOM     25  S   UNL     1      -0.104  11.195  19.159  0.00  0.00    +0.000 S 
ATOM     26  O   UNL     1      -0.020  12.608  19.475  0.00  0.00    +0.000 OA
ATOM     27  O   UNL     1       0.974  10.517  18.473  0.00  0.00    +0.000 OA
BRANCH  25  28
ATOM     28  C   UNL     1      -1.568  10.942  18.183  0.00  0.00    +0.000 A 
ATOM     29  C   UNL     1      -1.553  10.000  17.147  0.00  0.00    +0.000 A 
ATOM     30  C   UNL     1      -2.689   9.831  16.359  0.00  0.00    +0.000 A 
ATOM     31  C   UNL     1      -3.830  10.595  16.607  0.00  0.00    +0.000 A 
ATOM     32  C   UNL     1      -3.846  11.523  17.656  0.00  0.00    +0.000 A 
ATOM     33  C   UNL     1      -2.712  11.692  18.452  0.00  0.00    +0.000 A 
ENDBRANCH  25  28
ENDBRANCH  24  25
ENDBRANCH  18  19
ENDBRANCH   1  18
TORSDOF 8
ENDMDL
MODEL 4
REMARK VINA RESULT:      -7.9      0.923      1.892
REMARK  Name = 
REMARK  9 active torsions:
REMARK  status: ('A' for Active; 'I' for Inactive)
REMARK    1  A    between atoms: C_1  and  O_2
REMARK    2  A    between atoms: O_2  and  C_3
REMARK    3  A    between atoms: C_8  and  N_9
REMARK    4  A    between atoms: C_10  and  C_12
REMARK    5  A    between atoms: N_14  and  C_15
REMARK    6  A    between atoms: C_15  and  C_16
REMARK    7  A    between atoms: C_16  and  C_17
REMARK    8  A    between atoms: N_22  and  S_23
REMARK    9  A    between atoms: S_23  and  C_26
REMARK                            x       y       z     vdW  Elec       q    Type
REMARK                         _______ _______ _______ _____ _____    ______ ____
ROOT
ATOM      1  C   UNL     1       2.716   6.796  19.235  0.00  0.00    +0.000 C 
ENDROOT
BRANCH   1   4
ATOM      2  C   UNL     1       1.789   8.881  18.278  0.00  0.00    +0.000 C 
ATOM      3  O   UNL     1       2.439   8.874  17.244  0.00  0.00    +0.000 OA
ATOM      4  N   UNL     1       1.890   7.977  19.322  0.00  0.00    +0.000 N 
ATOM      5  H   UNL     1       1.155   8.034  20.026  0.00  0.00    +0.000 HD
BRANCH   2   7
ATOM      6  N   UNL     1       1.136  10.959  19.431  0.00  0.00    +0.000 N 
ATOM      7  C   UNL     1       0.743   9.978  18.537  0.00  0.00    +0.000 C 
ATOM      8  O   UNL     1      -0.319   9.889  17.929  0.00  0.00    +0.000 OA
ATOM      9  H   UNL     1       2.117  10.979  19.703  0.00  0.00    +0.000 HD
BRANCH   6  15
ATOM     10  C   UNL     1      -0.358  11.739  21.212  0.00  0.00    +0.000 A 
ATOM     11  C   UNL     1      -1.248  12.707  21.704  0.00  0.00    +0.000 A 
ATOM     12  C   UNL     1      -1.459  13.898  21.011  0.00  0.00    +0.000 A 
ATOM     13  C   UNL     1      -0.802  14.126  19.812  0.00  0.00    +0.000 A 
ATOM     14  C   UNL     1       0.055  13.154  19.296  0.00  0.00    +0.000 A 
ATOM     15  C   UNL     1       0.291  11.955  19.978  0.00  0.00    +0.000 A 
BRANCH  10  17
ATOM     16  C   UNL     1      -0.862  10.373  23.071  0.00  0.00    +0.000 C 
ATOM     17  O   UNL     1      -0.080  10.573  21.890  0.00  0.00    +0.000 OA
ENDBRANCH  10  17
ENDBRANCH   6  15
ENDBRANCH   2   7
ENDBRANCH   1   4
BRANCH   1  18
ATOM     18  C   UNL     1       2.040   5.669  18.450  0.00  0.00    +0.000 C 
BRANCH  18  19
ATOM     19  C   UNL     1       1.885   4.355  19.247  0.00  0.00    +0.000 C 
ATOM     20  C   UNL     1       1.526   4.696  20.708  0.00  0.00    +0.000 C 
ATOM     21  C   UNL     1       1.347   3.464  21.573  0.00  0.00    +0.000 C 
ATOM     22  C   UNL     1       2.613   2.631  21.508  0.00  0.00    +0.000 C 
ATOM     23  C   UNL     1       2.918   2.235  20.070  0.00  0.00    +0.000 C 
ATOM     24  N   UNL     1       3.111   3.443  19.190  0.00  0.00    +0.000 NA
BRANCH  24  25
ATOM     25  S   UNL     1       3.521   2.978  17.552  0.00  0.00    +0.000 S 
ATOM     26  O   UNL     1       3.996   1.609  17.623  0.00  0.00    +0.000 OA
ATOM     27  O   UNL     1       2.430   3.347  16.677  0.00  0.00    +0.000 OA
BRANCH  25  28
ATOM     28  C   UNL     1       4.900   4.008  17.109  0.00  0.00    +0.000 A 
ATOM     29  C   UNL     1       5.746   4.498  18.112  0.00  0.00    +0.000 A 
ATOM     30  C   UNL     1       6.804   5.337  17.768  0.00  0.00    +0.000 A 
ATOM     31  C   UNL     1       7.015   5.679  16.431  0.00  0.00    +0.000 A 
ATOM     32  C   UNL     1       6.178   5.172  15.430  0.00  0.00    +0.000 A 
ATOM     33  C   UNL     1       5.120   4.327  15.770  0.00  0.00    +0.000 A 
ENDBRANCH  25  28
ENDBRANCH  24  25
ENDBRANCH  18  19
ENDBRANCH   1  18
TORSDOF 8
ENDMDL
MODEL 5
REMARK VINA RESULT:      -7.8      1.630      2.241
REMARK  Name = 
REMARK  9 active torsions:
REMARK  status: ('A' for Active; 'I' for Inactive)
REMARK    1  A    between atoms: C_1  and  O_2
REMARK    2  A    between atoms: O_2  and  C_3
REMARK    3  A    between atoms: C_8  and  N_9
REMARK    4  A    between atoms: C_10  and  C_12
REMARK    5  A    between atoms: N_14  and  C_15
REMARK    6  A    between atoms: C_15  and  C_16
REMARK    7  A    between atoms: C_16  and  C_17
REMARK    8  A    between atoms: N_22  and  S_23
REMARK    9  A    between atoms: S_23  and  C_26
REMARK                            x       y       z     vdW  Elec       q    Type
REMARK                         _______ _______ _______ _____ _____    ______ ____
ROOT
ATOM      1  C   UNL     1       2.006   7.660  18.267  0.00  0.00    +0.000 C 
ENDROOT
BRANCH   1   4
ATOM      2  C   UNL     1       1.626  10.099  18.434  0.00  0.00    +0.000 C 
ATOM      3  O   UNL     1       2.268  10.420  17.445  0.00  0.00    +0.000 OA
ATOM      4  N   UNL     1       1.492   8.822  18.952  0.00  0.00    +0.000 N 
ATOM      5  H   UNL     1       0.784   8.714  19.677  0.00  0.00    +0.000 HD
BRANCH   2   7
ATOM      6  N   UNL     1      -0.046  10.655  20.158  0.00  0.00    +0.000 N 
ATOM      7  C   UNL     1       0.876  11.160  19.257  0.00  0.00    +0.000 C 
ATOM      8  O   UNL     1       1.167  12.334  19.049  0.00  0.00    +0.000 OA
ATOM      9  H   UNL     1      -0.030   9.651  20.331  0.00  0.00    +0.000 HD
BRANCH   6  15
ATOM     10  C   UNL     1      -0.958  11.447  22.291  0.00  0.00    +0.000 A 
ATOM     11  C   UNL     1      -1.946  12.157  22.993  0.00  0.00    +0.000 A 
ATOM     12  C   UNL     1      -2.927  12.875  22.311  0.00  0.00    +0.000 A 
ATOM     13  C   UNL     1      -2.946  12.875  20.925  0.00  0.00    +0.000 A 
ATOM     14  C   UNL     1      -1.991  12.144  20.219  0.00  0.00    +0.000 A 
ATOM     15  C   UNL     1      -0.990  11.423  20.880  0.00  0.00    +0.000 A 
BRANCH  10  17
ATOM     16  C   UNL     1      -0.301   9.470  23.402  0.00  0.00    +0.000 C 
ATOM     17  O   UNL     1       0.060  10.769  22.924  0.00  0.00    +0.000 OA
ENDBRANCH  10  17
ENDBRANCH   6  15
ENDBRANCH   2   7
ENDBRANCH   1   4
BRANCH   1  18
ATOM     18  C   UNL     1       2.917   6.814  19.159  0.00  0.00    +0.000 C 
BRANCH  18  19
ATOM     19  C   UNL     1       2.468   5.342  19.297  0.00  0.00    +0.000 C 
ATOM     20  C   UNL     1       1.709   5.173  20.630  0.00  0.00    +0.000 C 
ATOM     21  C   UNL     1       1.223   3.755  20.855  0.00  0.00    +0.000 C 
ATOM     22  C   UNL     1       2.409   2.812  20.784  0.00  0.00    +0.000 C 
ATOM     23  C   UNL     1       3.105   2.931  19.437  0.00  0.00    +0.000 C 
ATOM     24  N   UNL     1       3.610   4.330  19.192  0.00  0.00    +0.000 NA
BRANCH  24  25
ATOM     25  S   UNL     1       4.463   4.442  17.667  0.00  0.00    +0.000 S 
ATOM     26  O   UNL     1       4.956   3.109  17.376  0.00  0.00    +0.000 OA
ATOM     27  O   UNL     1       3.633   5.156  16.722  0.00  0.00    +0.000 OA
BRANCH  25  28
ATOM     28  C   UNL     1       5.867   5.480  17.997  0.00  0.00    +0.000 A 
ATOM     29  C   UNL     1       6.118   6.586  17.175  0.00  0.00    +0.000 A 
ATOM     30  C   UNL     1       7.240   7.377  17.412  0.00  0.00    +0.000 A 
ATOM     31  C   UNL     1       8.101   7.065  18.464  0.00  0.00    +0.000 A 
ATOM     32  C   UNL     1       7.837   5.970  19.296  0.00  0.00    +0.000 A 
ATOM     33  C   UNL     1       6.711   5.178  19.066  0.00  0.00    +0.000 A 
ENDBRANCH  25  28
ENDBRANCH  24  25
ENDBRANCH  18  19
ENDBRANCH   1  18
TORSDOF 8
ENDMDL
MODEL 6
REMARK VINA RESULT:      -7.8      1.708      1.984
REMARK  Name = 
REMARK  9 active torsions:
REMARK  status: ('A' for Active; 'I' for Inactive)
REMARK    1  A    between atoms: C_1  and  O_2
REMARK    2  A    between atoms: O_2  and  C_3
REMARK    3  A    between atoms: C_8  and  N_9
REMARK    4  A    between atoms: C_10  and  C_12
REMARK    5  A    between atoms: N_14  and  C_15
REMARK    6  A    between atoms: C_15  and  C_16
REMARK    7  A    between atoms: C_16  and  C_17
REMARK    8  A    between atoms: N_22  and  S_23
REMARK    9  A    between atoms: S_23  and  C_26
REMARK                            x       y       z     vdW  Elec       q    Type
REMARK                         _______ _______ _______ _____ _____    ______ ____
ROOT
ATOM      1  C   UNL     1       2.825   6.530  18.732  0.00  0.00    +0.000 C 
ENDROOT
BRANCH   1   4
ATOM      2  C   UNL     1       1.934   8.808  18.361  0.00  0.00    +0.000 C 
ATOM      3  O   UNL     1       2.198   8.881  17.170  0.00  0.00    +0.000 OA
ATOM      4  N   UNL     1       2.248   7.763  19.213  0.00  0.00    +0.000 N 
ATOM      5  H   UNL     1       1.803   7.793  20.129  0.00  0.00    +0.000 HD
BRANCH   2   7
ATOM      6  N   UNL     1       1.330  11.195  18.467  0.00  0.00    +0.000 N 
ATOM      7  C   UNL     1       1.197   9.956  19.070  0.00  0.00    +0.000 C 
ATOM      8  O   UNL     1       0.562   9.670  20.081  0.00  0.00    +0.000 OA
ATOM      9  H   UNL     1       1.740  11.221  17.535  0.00  0.00    +0.000 HD
BRANCH   6  15
ATOM     10  C   UNL     1      -0.331  12.986  18.676  0.00  0.00    +0.000 A 
ATOM     11  C   UNL     1      -0.694  14.243  19.186  0.00  0.00    +0.000 A 
ATOM     12  C   UNL     1       0.141  14.921  20.072  0.00  0.00    +0.000 A 
ATOM     13  C   UNL     1       1.356  14.363  20.441  0.00  0.00    +0.000 A 
ATOM     14  C   UNL     1       1.742  13.132  19.911  0.00  0.00    +0.000 A 
ATOM     15  C   UNL     1       0.916  12.427  19.028  0.00  0.00    +0.000 A 
BRANCH  10  17
ATOM     16  C   UNL     1      -2.276  11.660  18.491  0.00  0.00    +0.000 C 
ATOM     17  O   UNL     1      -1.150  12.258  17.842  0.00  0.00    +0.000 OA
ENDBRANCH  10  17
ENDBRANCH   6  15
ENDBRANCH   2   7
ENDBRANCH   1   4
BRANCH   1  18
ATOM     18  C   UNL     1       1.760   5.514  18.310  0.00  0.00    +0.000 C 
BRANCH  18  19
ATOM     19  C   UNL     1       1.744   4.229  19.167  0.00  0.00    +0.000 C 
ATOM     20  C   UNL     1       1.361   4.599  20.616  0.00  0.00    +0.000 C 
ATOM     21  C   UNL     1       1.314   3.397  21.538  0.00  0.00    +0.000 C 
ATOM     22  C   UNL     1       2.658   2.695  21.496  0.00  0.00    +0.000 C 
ATOM     23  C   UNL     1       2.993   2.266  20.075  0.00  0.00    +0.000 C 
ATOM     24  N   UNL     1       3.057   3.445  19.139  0.00  0.00    +0.000 NA
BRANCH  24  25
ATOM     25  S   UNL     1       3.502   2.948  17.519  0.00  0.00    +0.000 S 
ATOM     26  O   UNL     1       3.989   1.586  17.629  0.00  0.00    +0.000 OA
ATOM     27  O   UNL     1       2.425   3.287  16.616  0.00  0.00    +0.000 OA
BRANCH  25  28
ATOM     28  C   UNL     1       4.879   3.983  17.080  0.00  0.00    +0.000 A 
ATOM     29  C   UNL     1       5.060   4.362  15.744  0.00  0.00    +0.000 A 
ATOM     30  C   UNL     1       6.161   5.142  15.396  0.00  0.00    +0.000 A 
ATOM     31  C   UNL     1       7.070   5.541  16.377  0.00  0.00    +0.000 A 
ATOM     32  C   UNL     1       6.875   5.176  17.714  0.00  0.00    +0.000 A 
ATOM     33  C   UNL     1       5.770   4.399  18.069  0.00  0.00    +0.000 A 
ENDBRANCH  25  28
ENDBRANCH  24  25
ENDBRANCH  18  19
ENDBRANCH   1  18
TORSDOF 8
ENDMDL
MODEL 7
REMARK VINA RESULT:      -7.8      0.844      1.022
REMARK  Name = 
REMARK  9 active torsions:
REMARK  status: ('A' for Active; 'I' for Inactive)
REMARK    1  A    between atoms: C_1  and  O_2
REMARK    2  A    between atoms: O_2  and  C_3
REMARK    3  A    between atoms: C_8  and  N_9
REMARK    4  A    between atoms: C_10  and  C_12
REMARK    5  A    between atoms: N_14  and  C_15
REMARK    6  A    between atoms: C_15  and  C_16
REMARK    7  A    between atoms: C_16  and  C_17
REMARK    8  A    between atoms: N_22  and  S_23
REMARK    9  A    between atoms: S_23  and  C_26
REMARK                            x       y       z     vdW  Elec       q    Type
REMARK                         _______ _______ _______ _____ _____    ______ ____
ROOT
ATOM      1  C   UNL     1       2.699   6.918  19.174  0.00  0.00    +0.000 C 
ENDROOT
BRANCH   1   4
ATOM      2  C   UNL     1       1.601   9.077  18.672  0.00  0.00    +0.000 C 
ATOM      3  O   UNL     1       2.022   9.199  17.531  0.00  0.00    +0.000 OA
ATOM      4  N   UNL     1       1.913   8.065  19.563  0.00  0.00    +0.000 N 
ATOM      5  H   UNL     1       1.341   8.028  20.406  0.00  0.00    +0.000 HD
BRANCH   2   7
ATOM      6  N   UNL     1       0.971  10.571  20.529  0.00  0.00    +0.000 N 
ATOM      7  C   UNL     1       0.636  10.118  19.264  0.00  0.00    +0.000 C 
ATOM      8  O   UNL     1      -0.319  10.451  18.568  0.00  0.00    +0.000 OA
ATOM      9  H   UNL     1       1.893  10.327  20.884  0.00  0.00    +0.000 HD
BRANCH   6  15
ATOM     10  C   UNL     1       0.238  12.779  21.305  0.00  0.00    +0.000 A 
ATOM     11  C   UNL     1      -0.535  13.554  22.184  0.00  0.00    +0.000 A 
ATOM     12  C   UNL     1      -1.425  12.952  23.071  0.00  0.00    +0.000 A 
ATOM     13  C   UNL     1      -1.537  11.571  23.106  0.00  0.00    +0.000 A 
ATOM     14  C   UNL     1      -0.747  10.789  22.263  0.00  0.00    +0.000 A 
ATOM     15  C   UNL     1       0.147  11.371  21.357  0.00  0.00    +0.000 A 
BRANCH  10  17
ATOM     16  C   UNL     1       1.241  14.753  20.486  0.00  0.00    +0.000 C 
ATOM     17  O   UNL     1       1.090  13.335  20.376  0.00  0.00    +0.000 OA
ENDBRANCH  10  17
ENDBRANCH   6  15
ENDBRANCH   2   7
ENDBRANCH   1   4
BRANCH   1  18
ATOM     18  C   UNL     1       1.860   5.850  18.468  0.00  0.00    +0.000 C 
BRANCH  18  19
ATOM     19  C   UNL     1       1.954   4.450  19.115  0.00  0.00    +0.000 C 
ATOM     20  C   UNL     1       1.184   4.465  20.453  0.00  0.00    +0.000 C 
ATOM     21  C   UNL     1       1.216   3.126  21.165  0.00  0.00    +0.000 C 
ATOM     22  C   UNL     1       2.661   2.718  21.376  0.00  0.00    +0.000 C 
ATOM     23  C   UNL     1       3.392   2.632  20.045  0.00  0.00    +0.000 C 
ATOM     24  N   UNL     1       3.386   3.954  19.320  0.00  0.00    +0.000 NA
BRANCH  24  25
ATOM     25  S   UNL     1       4.281   3.860  17.818  0.00  0.00    +0.000 S 
ATOM     26  O   UNL     1       4.826   2.517  17.750  0.00  0.00    +0.000 OA
ATOM     27  O   UNL     1       3.459   4.390  16.753  0.00  0.00    +0.000 OA
BRANCH  25  28
ATOM     28  C   UNL     1       5.641   4.988  18.020  0.00  0.00    +0.000 A 
ATOM     29  C   UNL     1       5.947   5.892  16.995  0.00  0.00    +0.000 A 
ATOM     30  C   UNL     1       7.036   6.748  17.138  0.00  0.00    +0.000 A 
ATOM     31  C   UNL     1       7.810   6.703  18.298  0.00  0.00    +0.000 A 
ATOM     32  C   UNL     1       7.489   5.810  19.329  0.00  0.00    +0.000 A 
ATOM     33  C   UNL     1       6.396   4.954  19.192  0.00  0.00    +0.000 A 
ENDBRANCH  25  28
ENDBRANCH  24  25
ENDBRANCH  18  19
ENDBRANCH   1  18
TORSDOF 8
ENDMDL
MODEL 8
REMARK VINA RESULT:      -7.8      1.164      1.499
REMARK  Name = 
REMARK  9 active torsions:
REMARK  status: ('A' for Active; 'I' for Inactive)
REMARK    1  A    between atoms: C_1  and  O_2
REMARK    2  A    between atoms: O_2  and  C_3
REMARK    3  A    between atoms: C_8  and  N_9
REMARK    4  A    between atoms: C_10  and  C_12
REMARK    5  A    between atoms: N_14  and  C_15
REMARK    6  A    between atoms: C_15  and  C_16
REMARK    7  A    between atoms: C_16  and  C_17
REMARK    8  A    between atoms: N_22  and  S_23
REMARK    9  A    between atoms: S_23  and  C_26
REMARK                            x       y       z     vdW  Elec       q    Type
REMARK                         _______ _______ _______ _____ _____    ______ ____
ROOT
ATOM      1  C   UNL     1       2.815   6.493  18.732  0.00  0.00    +0.000 C 
ENDROOT
BRANCH   1   4
ATOM      2  C   UNL     1       2.094   8.807  18.235  0.00  0.00    +0.000 C 
ATOM      3  O   UNL     1       2.401   8.809  17.052  0.00  0.00    +0.000 OA
ATOM      4  N   UNL     1       2.308   7.781  19.140  0.00  0.00    +0.000 N 
ATOM      5  H   UNL     1       1.837   7.882  20.039  0.00  0.00    +0.000 HD
BRANCH   2   7
ATOM      6  N   UNL     1       0.499   9.740  19.866  0.00  0.00    +0.000 N 
ATOM      7  C   UNL     1       1.414  10.032  18.870  0.00  0.00    +0.000 C 
ATOM      8  O   UNL     1       1.749  11.135  18.448  0.00  0.00    +0.000 OA
ATOM      9  H   UNL     1       0.477   8.784  20.217  0.00  0.00    +0.000 HD
BRANCH   6  15
ATOM     10  C   UNL     1      -1.507  11.145  19.738  0.00  0.00    +0.000 A 
ATOM     11  C   UNL     1      -2.337  12.119  20.314  0.00  0.00    +0.000 A 
ATOM     12  C   UNL     1      -2.100  12.584  21.607  0.00  0.00    +0.000 A 
ATOM     13  C   UNL     1      -1.021  12.098  22.328  0.00  0.00    +0.000 A 
ATOM     14  C   UNL     1      -0.167  11.158  21.751  0.00  0.00    +0.000 A 
ATOM     15  C   UNL     1      -0.390  10.668  20.458  0.00  0.00    +0.000 A 
BRANCH  10  17
ATOM     16  C   UNL     1      -2.008  11.595  17.475  0.00  0.00    +0.000 C 
ATOM     17  O   UNL     1      -1.736  10.619  18.485  0.00  0.00    +0.000 OA
ENDBRANCH  10  17
ENDBRANCH   6  15
ENDBRANCH   2   7
ENDBRANCH   1   4
BRANCH   1  18
ATOM     18  C   UNL     1       1.696   5.514  18.371  0.00  0.00    +0.000 C 
BRANCH  18  19
ATOM     19  C   UNL     1       1.706   4.214  19.206  0.00  0.00    +0.000 C 
ATOM     20  C   UNL     1       1.334   4.554  20.665  0.00  0.00    +0.000 C 
ATOM     21  C   UNL     1       1.313   3.335  21.566  0.00  0.00    +0.000 C 
ATOM     22  C   UNL     1       2.665   2.651  21.497  0.00  0.00    +0.000 C 
ATOM     23  C   UNL     1       2.990   2.252  20.065  0.00  0.00    +0.000 C 
ATOM     24  N   UNL     1       3.028   3.448  19.149  0.00  0.00    +0.000 NA
BRANCH  24  25
ATOM     25  S   UNL     1       3.462   2.985  17.516  0.00  0.00    +0.000 S 
ATOM     26  O   UNL     1       3.929   1.614  17.591  0.00  0.00    +0.000 OA
ATOM     27  O   UNL     1       2.387   3.362  16.626  0.00  0.00    +0.000 OA
BRANCH  25  28
ATOM     28  C   UNL     1       4.852   4.011  17.099  0.00  0.00    +0.000 A 
ATOM     29  C   UNL     1       5.051   4.398  15.768  0.00  0.00    +0.000 A 
ATOM     30  C   UNL     1       6.162   5.170  15.437  0.00  0.00    +0.000 A 
ATOM     31  C   UNL     1       7.064   5.554  16.429  0.00  0.00    +0.000 A 
ATOM     32  C   UNL     1       6.852   5.180  17.762  0.00  0.00    +0.000 A 
ATOM     33  C   UNL     1       5.737   4.411  18.100  0.00  0.00    +0.000 A 
ENDBRANCH  25  28
ENDBRANCH  24  25
ENDBRANCH  18  19
ENDBRANCH   1  18
TORSDOF 8
ENDMDL
MODEL 9
REMARK VINA RESULT:      -7.7      1.520      2.382
REMARK  Name = 
REMARK  9 active torsions:
REMARK  status: ('A' for Active; 'I' for Inactive)
REMARK    1  A    between atoms: C_1  and  O_2
REMARK    2  A    between atoms: O_2  and  C_3
REMARK    3  A    between atoms: C_8  and  N_9
REMARK    4  A    between atoms: C_10  and  C_12
REMARK    5  A    between atoms: N_14  and  C_15
REMARK    6  A    between atoms: C_15  and  C_16
REMARK    7  A    between atoms: C_16  and  C_17
REMARK    8  A    between atoms: N_22  and  S_23
REMARK    9  A    between atoms: S_23  and  C_26
REMARK                            x       y       z     vdW  Elec       q    Type
REMARK                         _______ _______ _______ _____ _____    ______ ____
ROOT
ATOM      1  C   UNL     1       2.113   7.832  18.138  0.00  0.00    +0.000 C 
ENDROOT
BRANCH   1   4
ATOM      2  C   UNL     1       1.576  10.233  18.393  0.00  0.00    +0.000 C 
ATOM      3  O   UNL     1       2.342  10.651  17.538  0.00  0.00    +0.000 OA
ATOM      4  N   UNL     1       1.436   8.919  18.804  0.00  0.00    +0.000 N 
ATOM      5  H   UNL     1       0.633   8.728  19.402  0.00  0.00    +0.000 HD
BRANCH   2   7
ATOM      6  N   UNL     1       1.048  11.493  20.445  0.00  0.00    +0.000 N 
ATOM      7  C   UNL     1       0.650  11.198  19.153  0.00  0.00    +0.000 C 
ATOM      8  O   UNL     1      -0.333  11.618  18.548  0.00  0.00    +0.000 OA
ATOM      9  H   UNL     1       1.984  11.203  20.725  0.00  0.00    +0.000 HD
BRANCH   6  15
ATOM     10  C   UNL     1      -0.623  11.490  22.240  0.00  0.00    +0.000 A 
ATOM     11  C   UNL     1      -1.436  12.205  23.133  0.00  0.00    +0.000 A 
ATOM     12  C   UNL     1      -1.334  13.592  23.237  0.00  0.00    +0.000 A 
ATOM     13  C   UNL     1      -0.436  14.280  22.435  0.00  0.00    +0.000 A 
ATOM     14  C   UNL     1       0.350  13.583  21.518  0.00  0.00    +0.000 A 
ATOM     15  C   UNL     1       0.272  12.190  21.402  0.00  0.00    +0.000 A 
BRANCH  10  17
ATOM     16  C   UNL     1      -0.049   9.433  23.246  0.00  0.00    +0.000 C 
ATOM     17  O   UNL     1      -0.653  10.117  22.144  0.00  0.00    +0.000 OA
ENDBRANCH  10  17
ENDBRANCH   6  15
ENDBRANCH   2   7
ENDBRANCH   1   4
BRANCH   1  18
ATOM     18  C   UNL     1       2.960   6.996  19.100  0.00  0.00    +0.000 C 
BRANCH  18  19
ATOM     19  C   UNL     1       2.492   5.530  19.236  0.00  0.00    +0.000 C 
ATOM     20  C   UNL     1       1.725   5.372  20.567  0.00  0.00    +0.000 C 
ATOM     21  C   UNL     1       1.220   3.960  20.790  0.00  0.00    +0.000 C 
ATOM     22  C   UNL     1       2.394   3.003  20.726  0.00  0.00    +0.000 C 
ATOM     23  C   UNL     1       3.098   3.111  19.381  0.00  0.00    +0.000 C 
ATOM     24  N   UNL     1       3.621   4.504  19.138  0.00  0.00    +0.000 NA
BRANCH  24  25
ATOM     25  S   UNL     1       4.483   4.604  17.616  0.00  0.00    +0.000 S 
ATOM     26  O   UNL     1       4.897   3.252  17.292  0.00  0.00    +0.000 OA
ATOM     27  O   UNL     1       3.698   5.389  16.689  0.00  0.00    +0.000 OA
BRANCH  25  28
ATOM     28  C   UNL     1       5.945   5.549  17.973  0.00  0.00    +0.000 A 
ATOM     29  C   UNL     1       6.764   5.176  19.047  0.00  0.00    +0.000 A 
ATOM     30  C   UNL     1       7.889   5.939  19.349  0.00  0.00    +0.000 A 
ATOM     31  C   UNL     1       8.193   7.065  18.582  0.00  0.00    +0.000 A 
ATOM     32  C   UNL     1       7.383   7.423  17.498  0.00  0.00    +0.000 A 
ATOM     33  C   UNL     1       6.257   6.658  17.188  0.00  0.00    +0.000 A 
ENDBRANCH  25  28
ENDBRANCH  24  25
ENDBRANCH  18  19
ENDBRANCH   1  18
TORSDOF 8
ENDMDL
