MODEL 1
REMARK VINA RESULT:      -7.8      0.000      0.000
REMARK  Name = 
REMARK  6 active torsions:
REMARK  status: ('A' for Active; 'I' for Inactive)
REMARK    1  A    between atoms: C_1  and  C_2
REMARK    2  A    between atoms: C_2  and  O_3
REMARK    3  A    between atoms: O_3  and  C_4
REMARK    4  A    between atoms: N_9  and  C_10
REMARK    5  A    between atoms: N_14  and  C_15
REMARK    6  A    between atoms: N_18  and  C_19
REMARK                            x       y       z     vdW  Elec       q    Type
REMARK                         _______ _______ _______ _____ _____    ______ ____
ROOT
ATOM      1  C   UNL     1       2.966   5.716  18.446  0.00  0.00    +0.000 C 
ATOM      2  C   UNL     1       2.923   5.210  19.904  0.00  0.00    +0.000 C 
ATOM      3  C   UNL     1       1.757   5.794  20.677  0.00  0.00    +0.000 C 
ATOM      4  C   UNL     1       1.756   7.314  20.602  0.00  0.00    +0.000 C 
ATOM      5  N   UNL     1       1.598   7.795  19.222  0.00  0.00    +0.000 NA
ATOM      6  C   UNL     1       2.703   7.256  18.376  0.00  0.00    +0.000 C 
ENDROOT
BRANCH   1  12
ATOM      7  C   UNL     1       7.778   6.781  17.843  0.00  0.00    +0.000 C 
ATOM      8  O   UNL     1       8.270   6.645  18.958  0.00  0.00    +0.000 OA
ATOM      9  N   UNL     1       7.041   5.798  17.201  0.00  0.00    +0.000 N 
ATOM     10  C   UNL     1       6.647   4.626  17.968  0.00  0.00    +0.000 C 
ATOM     11  C   UNL     1       5.285   4.884  18.641  0.00  0.00    +0.000 C 
ATOM     12  N   UNL     1       4.210   5.311  17.708  0.00  0.00    +0.000 NA
ATOM     13  C   UNL     1       4.674   6.321  16.719  0.00  0.00    +0.000 C 
ATOM     14  C   UNL     1       6.094   6.112  16.141  0.00  0.00    +0.000 C 
BRANCH   7  15
ATOM     15  O   UNL     1       7.852   7.930  17.119  0.00  0.00    +0.000 OA
BRANCH  15  17
ATOM     16  C   UNL     1       8.837   9.801  18.230  0.00  0.00    +0.000 C 
ATOM     17  C   UNL     1       7.533   9.137  17.826  0.00  0.00    +0.000 C 
ENDBRANCH  15  17
ENDBRANCH   7  15
ENDBRANCH   1  12
BRANCH   5  18
ATOM     18  C   UNL     1       1.601   9.294  19.137  0.00  0.00    +0.000 C 
ATOM     19  C   UNL     1       1.023  10.073  20.347  0.00  0.00    +0.000 C 
ATOM     20  C   UNL     1      -0.499  10.009  20.432  0.00  0.00    +0.000 C 
ATOM     21  N   UNL     1      -1.034  10.522  19.174  0.00  0.00    +0.000 N 
ATOM     22  C   UNL     1      -0.644   9.737  17.996  0.00  0.00    +0.000 C 
ATOM     23  C   UNL     1       0.876   9.780  17.861  0.00  0.00    +0.000 C 
BRANCH  21  24
ATOM     24  C   UNL     1      -2.219  11.236  19.132  0.00  0.00    +0.000 A 
ATOM     25  C   UNL     1      -3.221  11.029  18.158  0.00  0.00    +0.000 A 
ATOM     26  C   UNL     1      -4.439  11.730  18.169  0.00  0.00    +0.000 A 
ATOM     27  C   UNL     1      -4.662  12.640  19.180  0.00  0.00    +0.000 A 
ATOM     28  C   UNL     1      -3.691  12.863  20.159  0.00  0.00    +0.000 A 
ATOM     29  C   UNL     1      -2.490  12.176  20.146  0.00  0.00    +0.000 A 
ATOM     30  C   UNL     1      -4.126  13.915  21.123  0.00  0.00    +0.000 C 
ATOM     31  C   UNL     1      -5.638  13.937  20.872  0.00  0.00    +0.000 C 
ATOM     32  C   UNL     1      -5.844  13.528  19.404  0.00  0.00    +0.000 C 
ENDBRANCH  21  24
ENDBRANCH   5  18
TORSDOF 5
ENDMDL
MODEL 2
REMARK VINA RESULT:      -7.7      1.048      1.308
REMARK  Name = 
REMARK  6 active torsions:
REMARK  status: ('A' for Active; 'I' for Inactive)
REMARK    1  A    between atoms: C_1  and  C_2
REMARK    2  A    between atoms: C_2  and  O_3
REMARK    3  A    between atoms: O_3  and  C_4
REMARK    4  A    between atoms: N_9  and  C_10
REMARK    5  A    between atoms: N_14  and  C_15
REMARK    6  A    between atoms: N_18  and  C_19
REMARK                            x       y       z     vdW  Elec       q    Type
REMARK                         _______ _______ _______ _____ _____    ______ ____
ROOT
ATOM      1  C   UNL     1       2.537   5.927  18.388  0.00  0.00    +0.000 C 
ATOM      2  C   UNL     1       3.000   5.594  19.822  0.00  0.00    +0.000 C 
ATOM      3  C   UNL     1       2.116   6.241  20.871  0.00  0.00    +0.000 C 
ATOM      4  C   UNL     1       2.003   7.741  20.644  0.00  0.00    +0.000 C 
ATOM      5  N   UNL     1       1.377   8.054  19.351  0.00  0.00    +0.000 NA
ATOM      6  C   UNL     1       2.176   7.442  18.249  0.00  0.00    +0.000 C 
ENDROOT
BRANCH   1  12
ATOM      7  C   UNL     1       7.348   5.229  17.378  0.00  0.00    +0.000 C 
ATOM      8  O   UNL     1       7.730   4.424  18.220  0.00  0.00    +0.000 OA
ATOM      9  N   UNL     1       6.266   5.012  16.540  0.00  0.00    +0.000 N 
ATOM     10  C   UNL     1       5.407   3.869  16.810  0.00  0.00    +0.000 C 
ATOM     11  C   UNL     1       4.281   4.287  17.775  0.00  0.00    +0.000 C 
ATOM     12  N   UNL     1       3.495   5.465  17.327  0.00  0.00    +0.000 NA
ATOM     13  C   UNL     1       4.349   6.552  16.777  0.00  0.00    +0.000 C 
ATOM     14  C   UNL     1       5.548   6.108  15.907  0.00  0.00    +0.000 C 
BRANCH   7  15
ATOM     15  O   UNL     1       7.907   6.455  17.198  0.00  0.00    +0.000 OA
BRANCH  15  17
ATOM     16  C   UNL     1       8.033   8.731  17.911  0.00  0.00    +0.000 C 
ATOM     17  C   UNL     1       7.993   7.283  18.366  0.00  0.00    +0.000 C 
ENDBRANCH  15  17
ENDBRANCH   7  15
ENDBRANCH   1  12
BRANCH   5  18
ATOM     18  C   UNL     1       1.265   9.532  19.116  0.00  0.00    +0.000 C 
ATOM     19  C   UNL     1       0.402  10.346  20.115  0.00  0.00    +0.000 C 
ATOM     20  C   UNL     1      -1.097  10.129  19.930  0.00  0.00    +0.000 C 
ATOM     21  N   UNL     1      -1.426  10.476  18.550  0.00  0.00    +0.000 N 
ATOM     22  C   UNL     1      -0.753   9.640  17.548  0.00  0.00    +0.000 C 
ATOM     23  C   UNL     1       0.755   9.830  17.687  0.00  0.00    +0.000 C 
BRANCH  21  24
ATOM     24  C   UNL     1      -2.639  11.056  18.222  0.00  0.00    +0.000 A 
ATOM     25  C   UNL     1      -3.232  10.956  16.944  0.00  0.00    +0.000 A 
ATOM     26  C   UNL     1      -4.490  11.509  16.650  0.00  0.00    +0.000 A 
ATOM     27  C   UNL     1      -5.172  12.157  17.659  0.00  0.00    +0.000 A 
ATOM     28  C   UNL     1      -4.613  12.267  18.934  0.00  0.00    +0.000 A 
ATOM     29  C   UNL     1      -3.371  11.727  19.221  0.00  0.00    +0.000 A 
ATOM     30  C   UNL     1      -5.501  13.041  19.849  0.00  0.00    +0.000 C 
ATOM     31  C   UNL     1      -6.836  12.959  19.102  0.00  0.00    +0.000 C 
ATOM     32  C   UNL     1      -6.496  12.850  17.606  0.00  0.00    +0.000 C 
ENDBRANCH  21  24
ENDBRANCH   5  18
TORSDOF 5
ENDMDL
MODEL 3
REMARK VINA RESULT:      -7.7      0.541      1.390
REMARK  Name = 
REMARK  6 active torsions:
REMARK  status: ('A' for Active; 'I' for Inactive)
REMARK    1  A    between atoms: C_1  and  C_2
REMARK    2  A    between atoms: C_2  and  O_3
REMARK    3  A    between atoms: O_3  and  C_4
REMARK    4  A    between atoms: N_9  and  C_10
REMARK    5  A    between atoms: N_14  and  C_15
REMARK    6  A    between atoms: N_18  and  C_19
REMARK                            x       y       z     vdW  Elec       q    Type
REMARK                         _______ _______ _______ _____ _____    ______ ____
ROOT
ATOM      1  C   UNL     1       3.027   5.516  18.297  0.00  0.00    +0.000 C 
ATOM      2  C   UNL     1       2.904   4.884  19.699  0.00  0.00    +0.000 C 
ATOM      3  C   UNL     1       1.712   5.423  20.466  0.00  0.00    +0.000 C 
ATOM      4  C   UNL     1       1.742   6.943  20.527  0.00  0.00    +0.000 C 
ATOM      5  N   UNL     1       1.660   7.548  19.190  0.00  0.00    +0.000 NA
ATOM      6  C   UNL     1       2.796   7.061  18.352  0.00  0.00    +0.000 C 
ENDROOT
BRANCH   1  12
ATOM      7  C   UNL     1       7.825   6.704  17.825  0.00  0.00    +0.000 C 
ATOM      8  O   UNL     1       8.293   6.567  18.950  0.00  0.00    +0.000 OA
ATOM      9  N   UNL     1       7.128   5.712  17.154  0.00  0.00    +0.000 N 
ATOM     10  C   UNL     1       6.744   4.521  17.896  0.00  0.00    +0.000 C 
ATOM     11  C   UNL     1       5.360   4.738  18.539  0.00  0.00    +0.000 C 
ATOM     12  N   UNL     1       4.299   5.151  17.585  0.00  0.00    +0.000 NA
ATOM     13  C   UNL     1       4.762   6.183  16.620  0.00  0.00    +0.000 C 
ATOM     14  C   UNL     1       6.200   6.016  16.075  0.00  0.00    +0.000 C 
BRANCH   7  15
ATOM     15  O   UNL     1       7.888   7.864  17.118  0.00  0.00    +0.000 OA
BRANCH  15  17
ATOM     16  C   UNL     1       8.765   9.856  18.101  0.00  0.00    +0.000 C 
ATOM     17  C   UNL     1       7.507   9.052  17.826  0.00  0.00    +0.000 C 
ENDBRANCH  15  17
ENDBRANCH   7  15
ENDBRANCH   1  12
BRANCH   5  18
ATOM     18  C   UNL     1       1.694   9.048  19.240  0.00  0.00    +0.000 C 
ATOM     19  C   UNL     1       1.085   9.729  20.493  0.00  0.00    +0.000 C 
ATOM     20  C   UNL     1      -0.440   9.690  20.517  0.00  0.00    +0.000 C 
ATOM     21  N   UNL     1      -0.917  10.325  19.291  0.00  0.00    +0.000 N 
ATOM     22  C   UNL     1      -0.497   9.639  18.062  0.00  0.00    +0.000 C 
ATOM     23  C   UNL     1       1.027   9.661  17.987  0.00  0.00    +0.000 C 
BRANCH  21  24
ATOM     24  C   UNL     1      -2.087  11.065  19.270  0.00  0.00    +0.000 A 
ATOM     25  C   UNL     1      -2.347  12.138  20.153  0.00  0.00    +0.000 A 
ATOM     26  C   UNL     1      -3.519  12.908  20.078  0.00  0.00    +0.000 A 
ATOM     27  C   UNL     1      -4.438  12.609  19.093  0.00  0.00    +0.000 A 
ATOM     28  C   UNL     1      -4.206  11.557  18.205  0.00  0.00    +0.000 A 
ATOM     29  C   UNL     1      -3.053  10.796  18.282  0.00  0.00    +0.000 A 
ATOM     30  C   UNL     1      -5.346  11.388  17.257  0.00  0.00    +0.000 C 
ATOM     31  C   UNL     1      -6.042  12.747  17.390  0.00  0.00    +0.000 C 
ATOM     32  C   UNL     1      -5.762  13.245  18.817  0.00  0.00    +0.000 C 
ENDBRANCH  21  24
ENDBRANCH   5  18
TORSDOF 5
ENDMDL
MODEL 4
REMARK VINA RESULT:      -7.6      1.442      1.864
REMARK  Name = 
REMARK  6 active torsions:
REMARK  status: ('A' for Active; 'I' for Inactive)
REMARK    1  A    between atoms: C_1  and  C_2
REMARK    2  A    between atoms: C_2  and  O_3
REMARK    3  A    between atoms: O_3  and  C_4
REMARK    4  A    between atoms: N_9  and  C_10
REMARK    5  A    between atoms: N_14  and  C_15
REMARK    6  A    between atoms: N_18  and  C_19
REMARK                            x       y       z     vdW  Elec       q    Type
REMARK                         _______ _______ _______ _____ _____    ______ ____
ROOT
ATOM      1  C   UNL     1       2.535   5.721  18.469  0.00  0.00    +0.000 C 
ATOM      2  C   UNL     1       2.291   4.652  19.555  0.00  0.00    +0.000 C 
ATOM      3  C   UNL     1       1.203   5.065  20.527  0.00  0.00    +0.000 C 
ATOM      4  C   UNL     1       1.495   6.431  21.129  0.00  0.00    +0.000 C 
ATOM      5  N   UNL     1       1.532   7.486  20.105  0.00  0.00    +0.000 NA
ATOM      6  C   UNL     1       2.574   7.156  19.088  0.00  0.00    +0.000 C 
ENDROOT
BRANCH   1  12
ATOM      7  C   UNL     1       7.439   6.397  18.085  0.00  0.00    +0.000 C 
ATOM      8  O   UNL     1       7.907   5.869  19.087  0.00  0.00    +0.000 OA
ATOM      9  N   UNL     1       6.600   5.749  17.191  0.00  0.00    +0.000 N 
ATOM     10  C   UNL     1       6.074   4.446  17.568  0.00  0.00    +0.000 C 
ATOM     11  C   UNL     1       4.746   4.625  18.328  0.00  0.00    +0.000 C 
ATOM     12  N   UNL     1       3.731   5.435  17.605  0.00  0.00    +0.000 NA
ATOM     13  C   UNL     1       4.310   6.647  16.965  0.00  0.00    +0.000 C 
ATOM     14  C   UNL     1       5.701   6.477  16.310  0.00  0.00    +0.000 C 
BRANCH   7  15
ATOM     15  O   UNL     1       7.644   7.700  17.752  0.00  0.00    +0.000 OA
BRANCH  15  17
ATOM     16  C   UNL     1       8.563   9.870  18.139  0.00  0.00    +0.000 C 
ATOM     17  C   UNL     1       8.592   8.411  18.559  0.00  0.00    +0.000 C 
ENDBRANCH  15  17
ENDBRANCH   7  15
ENDBRANCH   1  12
BRANCH   5  18
ATOM     18  C   UNL     1       1.824   8.837  20.688  0.00  0.00    +0.000 C 
ATOM     19  C   UNL     1       1.253   9.139  22.098  0.00  0.00    +0.000 C 
ATOM     20  C   UNL     1      -0.253   9.386  22.096  0.00  0.00    +0.000 C 
ATOM     21  N   UNL     1      -0.518  10.488  21.174  0.00  0.00    +0.000 N 
ATOM     22  C   UNL     1      -0.135  10.209  19.785  0.00  0.00    +0.000 C 
ATOM     23  C   UNL     1       1.371   9.965  19.733  0.00  0.00    +0.000 C 
BRANCH  21  24
ATOM     24  C   UNL     1      -1.535  11.397  21.412  0.00  0.00    +0.000 A 
ATOM     25  C   UNL     1      -2.150  12.163  20.397  0.00  0.00    +0.000 A 
ATOM     26  C   UNL     1      -3.217  13.040  20.656  0.00  0.00    +0.000 A 
ATOM     27  C   UNL     1      -3.684  13.139  21.950  0.00  0.00    +0.000 A 
ATOM     28  C   UNL     1      -3.098  12.391  22.973  0.00  0.00    +0.000 A 
ATOM     29  C   UNL     1      -2.044  11.531  22.718  0.00  0.00    +0.000 A 
ATOM     30  C   UNL     1      -3.731  12.688  24.291  0.00  0.00    +0.000 C 
ATOM     31  C   UNL     1      -5.050  13.330  23.846  0.00  0.00    +0.000 C 
ATOM     32  C   UNL     1      -4.772  14.008  22.494  0.00  0.00    +0.000 C 
ENDBRANCH  21  24
ENDBRANCH   5  18
TORSDOF 5
ENDMDL
MODEL 5
REMARK VINA RESULT:      -7.6      1.325      1.695
REMARK  Name = 
REMARK  6 active torsions:
REMARK  status: ('A' for Active; 'I' for Inactive)
REMARK    1  A    between atoms: C_1  and  C_2
REMARK    2  A    between atoms: C_2  and  O_3
REMARK    3  A    between atoms: O_3  and  C_4
REMARK    4  A    between atoms: N_9  and  C_10
REMARK    5  A    between atoms: N_14  and  C_15
REMARK    6  A    between atoms: N_18  and  C_19
REMARK                            x       y       z     vdW  Elec       q    Type
REMARK                         _______ _______ _______ _____ _____    ______ ____
ROOT
ATOM      1  C   UNL     1       2.449   6.091  18.280  0.00  0.00    +0.000 C 
ATOM      2  C   UNL     1       2.790   5.659  19.721  0.00  0.00    +0.000 C 
ATOM      3  C   UNL     1       1.887   6.321  20.744  0.00  0.00    +0.000 C 
ATOM      4  C   UNL     1       1.898   7.834  20.586  0.00  0.00    +0.000 C 
ATOM      5  N   UNL     1       1.384   8.253  19.274  0.00  0.00    +0.000 NA
ATOM      6  C   UNL     1       2.209   7.634  18.195  0.00  0.00    +0.000 C 
ENDROOT
BRANCH   1  12
ATOM      7  C   UNL     1       7.285   5.320  17.459  0.00  0.00    +0.000 C 
ATOM      8  O   UNL     1       7.624   4.517  18.321  0.00  0.00    +0.000 OA
ATOM      9  N   UNL     1       6.233   5.110  16.582  0.00  0.00    +0.000 N 
ATOM     10  C   UNL     1       5.349   3.981  16.828  0.00  0.00    +0.000 C 
ATOM     11  C   UNL     1       4.192   4.422  17.747  0.00  0.00    +0.000 C 
ATOM     12  N   UNL     1       3.440   5.607  17.260  0.00  0.00    +0.000 NA
ATOM     13  C   UNL     1       4.329   6.678  16.734  0.00  0.00    +0.000 C 
ATOM     14  C   UNL     1       5.554   6.210  15.913  0.00  0.00    +0.000 C 
BRANCH   7  15
ATOM     15  O   UNL     1       7.867   6.537  17.290  0.00  0.00    +0.000 OA
BRANCH  15  17
ATOM     16  C   UNL     1       8.216   8.762  18.086  0.00  0.00    +0.000 C 
ATOM     17  C   UNL     1       8.075   7.304  18.484  0.00  0.00    +0.000 C 
ENDBRANCH  15  17
ENDBRANCH   7  15
ENDBRANCH   1  12
BRANCH   5  18
ATOM     18  C   UNL     1       1.394   9.744  19.107  0.00  0.00    +0.000 C 
ATOM     19  C   UNL     1       1.444  10.602  20.398  0.00  0.00    +0.000 C 
ATOM     20  C   UNL     1       0.121  10.624  21.156  0.00  0.00    +0.000 C 
ATOM     21  N   UNL     1      -0.905  11.115  20.239  0.00  0.00    +0.000 N 
ATOM     22  C   UNL     1      -1.109  10.263  19.061  0.00  0.00    +0.000 C 
ATOM     23  C   UNL     1       0.190  10.218  18.261  0.00  0.00    +0.000 C 
BRANCH  21  24
ATOM     24  C   UNL     1      -1.961  11.890  20.688  0.00  0.00    +0.000 A 
ATOM     25  C   UNL     1      -2.985  12.376  19.845  0.00  0.00    +0.000 A 
ATOM     26  C   UNL     1      -4.075  13.117  20.333  0.00  0.00    +0.000 A 
ATOM     27  C   UNL     1      -4.147  13.360  21.688  0.00  0.00    +0.000 A 
ATOM     28  C   UNL     1      -3.152  12.888  22.546  0.00  0.00    +0.000 A 
ATOM     29  C   UNL     1      -2.076  12.163  22.064  0.00  0.00    +0.000 A 
ATOM     30  C   UNL     1      -3.410  13.304  23.955  0.00  0.00    +0.000 C 
ATOM     31  C   UNL     1      -4.900  13.660  23.888  0.00  0.00    +0.000 C 
ATOM     32  C   UNL     1      -5.171  14.137  22.452  0.00  0.00    +0.000 C 
ENDBRANCH  21  24
ENDBRANCH   5  18
TORSDOF 5
ENDMDL
MODEL 6
REMARK VINA RESULT:      -7.5      1.830      2.574
REMARK  Name = 
REMARK  6 active torsions:
REMARK  status: ('A' for Active; 'I' for Inactive)
REMARK    1  A    between atoms: C_1  and  C_2
REMARK    2  A    between atoms: C_2  and  O_3
REMARK    3  A    between atoms: O_3  and  C_4
REMARK    4  A    between atoms: N_9  and  C_10
REMARK    5  A    between atoms: N_14  and  C_15
REMARK    6  A    between atoms: N_18  and  C_19
REMARK                            x       y       z     vdW  Elec       q    Type
REMARK                         _______ _______ _______ _____ _____    ______ ____
ROOT
ATOM      1  C   UNL     1       2.974   4.556  18.654  0.00  0.00    +0.000 C 
ATOM      2  C   UNL     1       2.347   3.715  19.786  0.00  0.00    +0.000 C 
ATOM      3  C   UNL     1       1.127   4.387  20.386  0.00  0.00    +0.000 C 
ATOM      4  C   UNL     1       1.448   5.803  20.840  0.00  0.00    +0.000 C 
ATOM      5  N   UNL     1       1.860   6.659  19.718  0.00  0.00    +0.000 NA
ATOM      6  C   UNL     1       3.057   6.066  19.052  0.00  0.00    +0.000 C 
ENDROOT
BRANCH   1  12
ATOM      7  C   UNL     1       6.913   5.597  15.816  0.00  0.00    +0.000 C 
ATOM      8  O   UNL     1       7.393   6.613  16.307  0.00  0.00    +0.000 OA
ATOM      9  N   UNL     1       6.668   4.436  16.532  0.00  0.00    +0.000 N 
ATOM     10  C   UNL     1       6.784   4.488  17.982  0.00  0.00    +0.000 C 
ATOM     11  C   UNL     1       5.424   4.878  18.594  0.00  0.00    +0.000 C 
ATOM     12  N   UNL     1       4.290   4.018  18.167  0.00  0.00    +0.000 NA
ATOM     13  C   UNL     1       4.311   3.717  16.711  0.00  0.00    +0.000 C 
ATOM     14  C   UNL     1       5.701   3.444  16.088  0.00  0.00    +0.000 C 
BRANCH   7  15
ATOM     15  O   UNL     1       6.516   5.500  14.519  0.00  0.00    +0.000 OA
BRANCH  15  17
ATOM     16  C   UNL     1       6.840   4.083  12.623  0.00  0.00    +0.000 C 
ATOM     17  C   UNL     1       7.510   5.042  13.591  0.00  0.00    +0.000 C 
ENDBRANCH  15  17
ENDBRANCH   7  15
ENDBRANCH   1  12
BRANCH   5  18
ATOM     18  C   UNL     1       2.183   8.057  20.157  0.00  0.00    +0.000 C 
ATOM     19  C   UNL     1       1.500   8.570  21.451  0.00  0.00    +0.000 C 
ATOM     20  C   UNL     1       0.021   8.894  21.262  0.00  0.00    +0.000 C 
ATOM     21  N   UNL     1      -0.080   9.880  20.188  0.00  0.00    +0.000 N 
ATOM     22  C   UNL     1       0.416   9.404  18.892  0.00  0.00    +0.000 C 
ATOM     23  C   UNL     1       1.900   9.074  19.028  0.00  0.00    +0.000 C 
BRANCH  21  24
ATOM     24  C   UNL     1      -1.053  10.866  20.205  0.00  0.00    +0.000 A 
ATOM     25  C   UNL     1      -1.868  11.176  19.093  0.00  0.00    +0.000 A 
ATOM     26  C   UNL     1      -2.884  12.145  19.151  0.00  0.00    +0.000 A 
ATOM     27  C   UNL     1      -3.097  12.800  20.345  0.00  0.00    +0.000 A 
ATOM     28  C   UNL     1      -2.310  12.511  21.462  0.00  0.00    +0.000 A 
ATOM     29  C   UNL     1      -1.306  11.561  21.403  0.00  0.00    +0.000 A 
ATOM     30  C   UNL     1      -2.686  13.366  22.625  0.00  0.00    +0.000 C 
ATOM     31  C   UNL     1      -4.079  13.843  22.201  0.00  0.00    +0.000 C 
ATOM     32  C   UNL     1      -4.080  13.881  20.664  0.00  0.00    +0.000 C 
ENDBRANCH  21  24
ENDBRANCH   5  18
TORSDOF 5
ENDMDL
MODEL 7
REMARK VINA RESULT:      -7.4      4.725      9.012
REMARK  Name = 
REMARK  6 active torsions:
REMARK  status: ('A' for Active; 'I' for Inactive)
REMARK    1  A    between atoms: C_1  and  C_2
REMARK    2  A    between atoms: C_2  and  O_3
REMARK    3  A    between atoms: O_3  and  C_4
REMARK    4  A    between atoms: N_9  and  C_10
REMARK    5  A    between atoms: N_14  and  C_15
REMARK    6  A    between atoms: N_18  and  C_19
REMARK                            x       y       z     vdW  Elec       q    Type
REMARK                         _______ _______ _______ _____ _____    ______ ____
ROOT
ATOM      1  C   UNL     1       1.504  13.790  20.342  0.00  0.00    +0.000 C 
ATOM      2  C   UNL     1       0.469  14.531  21.214  0.00  0.00    +0.000 C 
ATOM      3  C   UNL     1      -0.170  13.618  22.242  0.00  0.00    +0.000 C 
ATOM      4  C   UNL     1      -0.762  12.381  21.584  0.00  0.00    +0.000 C 
ATOM      5  N   UNL     1       0.266  11.569  20.917  0.00  0.00    +0.000 NA
ATOM      6  C   UNL     1       0.963  12.395  19.888  0.00  0.00    +0.000 C 
ENDROOT
BRANCH   1  12
ATOM      7  C   UNL     1       5.211  16.755  18.884  0.00  0.00    +0.000 C 
ATOM      8  O   UNL     1       6.219  16.062  18.974  0.00  0.00    +0.000 OA
ATOM      9  N   UNL     1       4.085  16.388  18.163  0.00  0.00    +0.000 N 
ATOM     10  C   UNL     1       4.006  15.025  17.662  0.00  0.00    +0.000 C 
ATOM     11  C   UNL     1       3.338  14.124  18.720  0.00  0.00    +0.000 C 
ATOM     12  N   UNL     1       2.016  14.609  19.192  0.00  0.00    +0.000 NA
ATOM     13  C   UNL     1       1.997  16.075  19.446  0.00  0.00    +0.000 C 
ATOM     14  C   UNL     1       2.774  16.956  18.439  0.00  0.00    +0.000 C 
BRANCH   7  15
ATOM     15  O   UNL     1       5.053  17.945  19.523  0.00  0.00    +0.000 OA
BRANCH  15  17
ATOM     16  C   UNL     1       4.555  17.497  21.816  0.00  0.00    +0.000 C 
ATOM     17  C   UNL     1       5.599  18.023  20.847  0.00  0.00    +0.000 C 
ENDBRANCH  15  17
ENDBRANCH   7  15
ENDBRANCH   1  12
BRANCH   5  18
ATOM     18  C   UNL     1      -0.310  10.348  20.261  0.00  0.00    +0.000 C 
ATOM     19  C   UNL     1      -0.119   8.994  20.992  0.00  0.00    +0.000 C 
ATOM     20  C   UNL     1       1.307   8.458  20.903  0.00  0.00    +0.000 C 
ATOM     21  N   UNL     1       1.647   8.342  19.487  0.00  0.00    +0.000 N 
ATOM     22  C   UNL     1       1.631   9.620  18.764  0.00  0.00    +0.000 C 
ATOM     23  C   UNL     1       0.217  10.193  18.816  0.00  0.00    +0.000 C 
BRANCH  21  24
ATOM     24  C   UNL     1       2.467   7.328  19.023  0.00  0.00    +0.000 A 
ATOM     25  C   UNL     1       2.498   6.032  19.583  0.00  0.00    +0.000 A 
ATOM     26  C   UNL     1       3.301   5.004  19.062  0.00  0.00    +0.000 A 
ATOM     27  C   UNL     1       4.073   5.275  17.952  0.00  0.00    +0.000 A 
ATOM     28  C   UNL     1       4.060   6.546  17.374  0.00  0.00    +0.000 A 
ATOM     29  C   UNL     1       3.273   7.560  17.891  0.00  0.00    +0.000 A 
ATOM     30  C   UNL     1       4.999   6.625  16.217  0.00  0.00    +0.000 C 
ATOM     31  C   UNL     1       5.198   5.139  15.900  0.00  0.00    +0.000 C 
ATOM     32  C   UNL     1       5.026   4.380  17.226  0.00  0.00    +0.000 C 
ENDBRANCH  21  24
ENDBRANCH   5  18
TORSDOF 5
ENDMDL
MODEL 8
REMARK VINA RESULT:      -7.2      4.540     11.012
REMARK  Name = 
REMARK  6 active torsions:
REMARK  status: ('A' for Active; 'I' for Inactive)
REMARK    1  A    between atoms: C_1  and  C_2
REMARK    2  A    between atoms: C_2  and  O_3
REMARK    3  A    between atoms: O_3  and  C_4
REMARK    4  A    between atoms: N_9  and  C_10
REMARK    5  A    between atoms: N_14  and  C_15
REMARK    6  A    between atoms: N_18  and  C_19
REMARK                            x       y       z     vdW  Elec       q    Type
REMARK                         _______ _______ _______ _____ _____    ______ ____
ROOT
ATOM      1  C   UNL     1      -0.650  14.332  20.704  0.00  0.00    +0.000 C 
ATOM      2  C   UNL     1       0.675  14.363  21.493  0.00  0.00    +0.000 C 
ATOM      3  C   UNL     1       1.728  13.462  20.876  0.00  0.00    +0.000 C 
ATOM      4  C   UNL     1       1.203  12.045  20.703  0.00  0.00    +0.000 C 
ATOM      5  N   UNL     1       0.053  11.994  19.788  0.00  0.00    +0.000 NA
ATOM      6  C   UNL     1      -1.038  12.868  20.311  0.00  0.00    +0.000 C 
ENDROOT
BRANCH   1  12
ATOM      7  C   UNL     1      -4.430  13.766  23.874  0.00  0.00    +0.000 C 
ATOM      8  O   UNL     1      -3.911  13.375  24.913  0.00  0.00    +0.000 OA
ATOM      9  N   UNL     1      -4.048  14.920  23.208  0.00  0.00    +0.000 N 
ATOM     10  C   UNL     1      -2.831  15.590  23.641  0.00  0.00    +0.000 C 
ATOM     11  C   UNL     1      -1.626  15.021  22.868  0.00  0.00    +0.000 C 
ATOM     12  N   UNL     1      -1.772  15.058  21.389  0.00  0.00    +0.000 NA
ATOM     13  C   UNL     1      -3.124  14.637  20.934  0.00  0.00    +0.000 C 
ATOM     14  C   UNL     1      -4.318  15.119  21.792  0.00  0.00    +0.000 C 
BRANCH   7  15
ATOM     15  O   UNL     1      -5.411  13.090  23.219  0.00  0.00    +0.000 OA
BRANCH  15  17
ATOM     16  C   UNL     1      -7.550  13.655  24.119  0.00  0.00    +0.000 C 
ATOM     17  C   UNL     1      -6.477  12.584  24.035  0.00  0.00    +0.000 C 
ENDBRANCH  15  17
ENDBRANCH   7  15
ENDBRANCH   1  12
BRANCH   5  18
ATOM     18  C   UNL     1      -0.475  10.600  19.614  0.00  0.00    +0.000 C 
ATOM     19  C   UNL     1      -0.042   9.542  20.662  0.00  0.00    +0.000 C 
ATOM     20  C   UNL     1       1.406   9.092  20.499  0.00  0.00    +0.000 C 
ATOM     21  N   UNL     1       1.558   8.577  19.140  0.00  0.00    +0.000 N 
ATOM     22  C   UNL     1       1.307   9.575  18.093  0.00  0.00    +0.000 C 
ATOM     23  C   UNL     1      -0.139  10.050  18.208  0.00  0.00    +0.000 C 
BRANCH  21  24
ATOM     24  C   UNL     1       2.410   7.522  18.860  0.00  0.00    +0.000 A 
ATOM     25  C   UNL     1       2.454   6.332  19.620  0.00  0.00    +0.000 A 
ATOM     26  C   UNL     1       3.290   5.254  19.284  0.00  0.00    +0.000 A 
ATOM     27  C   UNL     1       4.082   5.364  18.161  0.00  0.00    +0.000 A 
ATOM     28  C   UNL     1       4.056   6.527  17.388  0.00  0.00    +0.000 A 
ATOM     29  C   UNL     1       3.236   7.590  17.722  0.00  0.00    +0.000 A 
ATOM     30  C   UNL     1       5.019   6.443  16.252  0.00  0.00    +0.000 C 
ATOM     31  C   UNL     1       5.257   4.930  16.179  0.00  0.00    +0.000 C 
ATOM     32  C   UNL     1       5.069   4.388  17.606  0.00  0.00    +0.000 C 
ENDBRANCH  21  24
ENDBRANCH   5  18
TORSDOF 5
ENDMDL
MODEL 9
REMARK VINA RESULT:      -7.1      4.896     11.325
REMARK  Name = 
REMARK  6 active torsions:
REMARK  status: ('A' for Active; 'I' for Inactive)
REMARK    1  A    between atoms: C_1  and  C_2
REMARK    2  A    between atoms: C_2  and  O_3
REMARK    3  A    between atoms: O_3  and  C_4
REMARK    4  A    between atoms: N_9  and  C_10
REMARK    5  A    between atoms: N_14  and  C_15
REMARK    6  A    between atoms: N_18  and  C_19
REMARK                            x       y       z     vdW  Elec       q    Type
REMARK                         _______ _______ _______ _____ _____    ______ ____
ROOT
ATOM      1  C   UNL     1      -2.264  11.956  21.433  0.00  0.00    +0.000 C 
ATOM      2  C   UNL     1      -2.884  12.626  20.189  0.00  0.00    +0.000 C 
ATOM      3  C   UNL     1      -2.481  11.928  18.904  0.00  0.00    +0.000 C 
ATOM      4  C   UNL     1      -0.968  11.813  18.794  0.00  0.00    +0.000 C 
ATOM      5  N   UNL     1      -0.399  11.003  19.881  0.00  0.00    +0.000 NA
ATOM      6  C   UNL     1      -0.758  11.611  21.196  0.00  0.00    +0.000 C 
ENDROOT
BRANCH   1  12
ATOM      7  C   UNL     1      -5.395  15.043  23.740  0.00  0.00    +0.000 C 
ATOM      8  O   UNL     1      -6.449  14.422  23.815  0.00  0.00    +0.000 OA
ATOM      9  N   UNL     1      -4.181  14.562  24.206  0.00  0.00    +0.000 N 
ATOM     10  C   UNL     1      -4.107  13.167  24.612  0.00  0.00    +0.000 C 
ATOM     11  C   UNL     1      -3.723  12.297  23.399  0.00  0.00    +0.000 C 
ATOM     12  N   UNL     1      -2.484  12.729  22.702  0.00  0.00    +0.000 NA
ATOM     13  C   UNL     1      -2.407  14.204  22.525  0.00  0.00    +0.000 C 
ATOM     14  C   UNL     1      -2.910  15.064  23.708  0.00  0.00    +0.000 C 
BRANCH   7  15
ATOM     15  O   UNL     1      -5.276  16.260  23.145  0.00  0.00    +0.000 OA
BRANCH  15  17
ATOM     16  C   UNL     1      -5.250  17.834  24.942  0.00  0.00    +0.000 C 
ATOM     17  C   UNL     1      -6.029  17.326  23.742  0.00  0.00    +0.000 C 
ENDBRANCH  15  17
ENDBRANCH   7  15
ENDBRANCH   1  12
BRANCH   5  18
ATOM     18  C   UNL     1       1.094  10.888  19.784  0.00  0.00    +0.000 C 
ATOM     19  C   UNL     1       1.698  10.668  18.372  0.00  0.00    +0.000 C 
ATOM     20  C   UNL     1       1.482   9.254  17.840  0.00  0.00    +0.000 C 
ATOM     21  N   UNL     1       2.059   8.325  18.808  0.00  0.00    +0.000 N 
ATOM     22  C   UNL     1       1.429   8.377  20.133  0.00  0.00    +0.000 C 
ATOM     23  C   UNL     1       1.628   9.774  20.714  0.00  0.00    +0.000 C 
BRANCH  21  24
ATOM     24  C   UNL     1       2.658   7.144  18.405  0.00  0.00    +0.000 A 
ATOM     25  C   UNL     1       2.194   5.864  18.784  0.00  0.00    +0.000 A 
ATOM     26  C   UNL     1       2.788   4.679  18.318  0.00  0.00    +0.000 A 
ATOM     27  C   UNL     1       3.852   4.778  17.447  0.00  0.00    +0.000 A 
ATOM     28  C   UNL     1       4.329   6.029  17.051  0.00  0.00    +0.000 A 
ATOM     29  C   UNL     1       3.747   7.196  17.514  0.00  0.00    +0.000 A 
ATOM     30  C   UNL     1       5.506   5.897  16.144  0.00  0.00    +0.000 C 
ATOM     31  C   UNL     1       5.363   4.442  15.686  0.00  0.00    +0.000 C 
ATOM     32  C   UNL     1       4.671   3.688  16.834  0.00  0.00    +0.000 C 
ENDBRANCH  21  24
ENDBRANCH   5  18
TORSDOF 5
ENDMDL
