MODEL 1
REMARK VINA RESULT:      -8.3      0.000      0.000
REMARK  Name = 
REMARK  8 active torsions:
REMARK  status: ('A' for Active; 'I' for Inactive)
REMARK    1  A    between atoms: C_1  and  N_2
REMARK    2  A    between atoms: C_3  and  C_4
REMARK    3  A    between atoms: C_4  and  O_5
REMARK    4  A    between atoms: O_5  and  C_6
REMARK    5  A    between atoms: C_10  and  C_11
REMARK    6  A    between atoms: C_11  and  O_13
REMARK    7  A    between atoms: C_19  and  O_20
REMARK    8  A    between atoms: O_20  and  C_21
REMARK                            x       y       z     vdW  Elec       q    Type
REMARK                         _______ _______ _______ _____ _____    ______ ____
ROOT
ATOM      1  C   UNL     1      -0.772  10.549  22.859  0.00  0.00    +0.000 C 
ATOM      2  N   UNL     1      -0.731  10.794  21.438  0.00  0.00    +0.000 N 
ATOM      3  C   UNL     1      -1.476  11.685  20.695  0.00  0.00    +0.000 A 
ATOM      4  N   UNL     1      -1.197  11.548  19.404  0.00  0.00    +0.000 NA
ATOM      5  C   UNL     1      -0.237  10.574  19.318  0.00  0.00    +0.000 A 
ATOM      6  C   UNL     1       0.415  10.045  18.197  0.00  0.00    +0.000 A 
ATOM      7  C   UNL     1       1.357   9.016  18.381  0.00  0.00    +0.000 A 
ATOM      8  C   UNL     1       1.645   8.530  19.660  0.00  0.00    +0.000 A 
ATOM      9  C   UNL     1       1.051   9.103  20.794  0.00  0.00    +0.000 A 
ATOM     10  C   UNL     1       0.086  10.093  20.579  0.00  0.00    +0.000 A 
ENDROOT
BRANCH   3  11
ATOM     11  C   UNL     1      -2.470  12.656  21.261  0.00  0.00    +0.000 C 
BRANCH  11  12
ATOM     12  O   UNL     1      -3.434  12.905  20.237  0.00  0.00    +0.000 OA
BRANCH  12  13
ATOM     13  C   UNL     1      -4.740  12.596  20.505  0.00  0.00    +0.000 A 
ATOM     14  C   UNL     1      -5.489  12.231  19.383  0.00  0.00    +0.000 A 
ATOM     15  C   UNL     1      -6.853  11.945  19.492  0.00  0.00    +0.000 A 
ATOM     16  C   UNL     1      -7.484  12.018  20.735  0.00  0.00    +0.000 A 
ATOM     17  C   UNL     1      -6.733  12.349  21.871  0.00  0.00    +0.000 A 
ATOM     18  C   UNL     1      -5.364  12.645  21.752  0.00  0.00    +0.000 A 
BRANCH  17  19
ATOM     19  C   UNL     1      -7.359  12.463  23.213  0.00  0.00    +0.000 C 
ATOM     20  O   UNL     1      -7.642  13.540  23.711  0.00  0.00    +0.000 OA
BRANCH  19  21
ATOM     21  O   UNL     1      -7.561  11.287  23.843  0.00  0.00    +0.000 OA
ATOM     22  H   UNL     1      -7.681  10.511  23.263  0.00  0.00    +0.000 HD
ENDBRANCH  19  21
ENDBRANCH  17  19
ENDBRANCH  12  13
ENDBRANCH  11  12
ENDBRANCH   3  11
BRANCH   8  23
ATOM     23  O   UNL     1       2.574   7.510  19.732  0.00  0.00    +0.000 OA
BRANCH  23  24
ATOM     24  C   UNL     1       2.165   6.207  19.547  0.00  0.00    +0.000 A 
ATOM     25  C   UNL     1       2.222   5.717  18.237  0.00  0.00    +0.000 A 
ATOM     26  C   UNL     1       1.833   4.403  17.959  0.00  0.00    +0.000 A 
ATOM     27  C   UNL     1       1.393   3.576  18.993  0.00  0.00    +0.000 A 
ATOM     28 CL   UNL     1       0.953   1.947  18.654  0.00  0.00    +0.000 Cl
ATOM     29  C   UNL     1       1.312   4.078  20.290  0.00  0.00    +0.000 A 
ATOM     30  F   UNL     1       0.908   3.297  21.304  0.00  0.00    +0.000 F 
ATOM     31  C   UNL     1       1.662   5.395  20.566  0.00  0.00    +0.000 A 
ENDBRANCH  23  24
ENDBRANCH   8  23
TORSDOF 7
ENDMDL
MODEL 2
REMARK VINA RESULT:      -8.2      4.923     10.913
REMARK  Name = 
REMARK  8 active torsions:
REMARK  status: ('A' for Active; 'I' for Inactive)
REMARK    1  A    between atoms: C_1  and  N_2
REMARK    2  A    between atoms: C_3  and  C_4
REMARK    3  A    between atoms: C_4  and  O_5
REMARK    4  A    between atoms: O_5  and  C_6
REMARK    5  A    between atoms: C_10  and  C_11
REMARK    6  A    between atoms: C_11  and  O_13
REMARK    7  A    between atoms: C_19  and  O_20
REMARK    8  A    between atoms: O_20  and  C_21
REMARK                            x       y       z     vdW  Elec       q    Type
REMARK                         _______ _______ _______ _____ _____    ______ ____
ROOT
ATOM      1  C   UNL     1       3.472   5.977  17.042  0.00  0.00    +0.000 C 
ATOM      2  N   UNL     1       3.018   6.032  18.411  0.00  0.00    +0.000 N 
ATOM      3  C   UNL     1       3.094   5.059  19.384  0.00  0.00    +0.000 A 
ATOM      4  N   UNL     1       2.488   5.473  20.491  0.00  0.00    +0.000 NA
ATOM      5  C   UNL     1       2.042   6.742  20.235  0.00  0.00    +0.000 A 
ATOM      6  C   UNL     1       1.347   7.638  21.058  0.00  0.00    +0.000 A 
ATOM      7  C   UNL     1       0.976   8.892  20.537  0.00  0.00    +0.000 A 
ATOM      8  C   UNL     1       1.297   9.244  19.223  0.00  0.00    +0.000 A 
ATOM      9  C   UNL     1       2.056   8.382  18.416  0.00  0.00    +0.000 A 
ATOM     10  C   UNL     1       2.372   7.126  18.944  0.00  0.00    +0.000 A 
ENDROOT
BRANCH   3  11
ATOM     11  C   UNL     1       3.749   3.721  19.212  0.00  0.00    +0.000 C 
BRANCH  11  12
ATOM     12  O   UNL     1       5.120   3.880  19.582  0.00  0.00    +0.000 OA
BRANCH  12  13
ATOM     13  C   UNL     1       5.949   4.508  18.692  0.00  0.00    +0.000 A 
ATOM     14  C   UNL     1       6.695   5.555  19.240  0.00  0.00    +0.000 A 
ATOM     15  C   UNL     1       7.543   6.328  18.441  0.00  0.00    +0.000 A 
ATOM     16  C   UNL     1       7.655   6.056  17.076  0.00  0.00    +0.000 A 
ATOM     17  C   UNL     1       6.936   4.986  16.525  0.00  0.00    +0.000 A 
ATOM     18  C   UNL     1       6.079   4.220  17.334  0.00  0.00    +0.000 A 
BRANCH  17  19
ATOM     19  C   UNL     1       7.001   4.668  15.076  0.00  0.00    +0.000 C 
ATOM     20  O   UNL     1       7.621   5.357  14.284  0.00  0.00    +0.000 OA
BRANCH  19  21
ATOM     21  O   UNL     1       6.297   3.578  14.707  0.00  0.00    +0.000 OA
ATOM     22  H   UNL     1       6.316   3.363  13.755  0.00  0.00    +0.000 HD
ENDBRANCH  19  21
ENDBRANCH  17  19
ENDBRANCH  12  13
ENDBRANCH  11  12
ENDBRANCH   3  11
BRANCH   8  23
ATOM     23  O   UNL     1       0.877  10.491  18.803  0.00  0.00    +0.000 OA
BRANCH  23  24
ATOM     24  C   UNL     1      -0.456  10.694  18.517  0.00  0.00    +0.000 A 
ATOM     25  C   UNL     1      -1.092  11.731  19.210  0.00  0.00    +0.000 A 
ATOM     26  C   UNL     1      -2.441  12.012  18.976  0.00  0.00    +0.000 A 
ATOM     27  C   UNL     1      -3.154  11.260  18.041  0.00  0.00    +0.000 A 
ATOM     28 CL   UNL     1      -4.804  11.635  17.726  0.00  0.00    +0.000 Cl
ATOM     29  C   UNL     1      -2.524  10.212  17.374  0.00  0.00    +0.000 A 
ATOM     30  F   UNL     1      -3.185   9.486  16.459  0.00  0.00    +0.000 F 
ATOM     31  C   UNL     1      -1.192   9.903  17.631  0.00  0.00    +0.000 A 
ENDBRANCH  23  24
ENDBRANCH   8  23
TORSDOF 7
ENDMDL
MODEL 3
REMARK VINA RESULT:      -8.1      4.199     10.235
REMARK  Name = 
REMARK  8 active torsions:
REMARK  status: ('A' for Active; 'I' for Inactive)
REMARK    1  A    between atoms: C_1  and  N_2
REMARK    2  A    between atoms: C_3  and  C_4
REMARK    3  A    between atoms: C_4  and  O_5
REMARK    4  A    between atoms: O_5  and  C_6
REMARK    5  A    between atoms: C_10  and  C_11
REMARK    6  A    between atoms: C_11  and  O_13
REMARK    7  A    between atoms: C_19  and  O_20
REMARK    8  A    between atoms: O_20  and  C_21
REMARK                            x       y       z     vdW  Elec       q    Type
REMARK                         _______ _______ _______ _____ _____    ______ ____
ROOT
ATOM      1  C   UNL     1       1.196  10.284  18.422  0.00  0.00    +0.000 C 
ATOM      2  N   UNL     1       0.992   9.637  19.697  0.00  0.00    +0.000 N 
ATOM      3  C   UNL     1       1.388   8.380  20.099  0.00  0.00    +0.000 A 
ATOM      4  N   UNL     1       0.934   8.128  21.322  0.00  0.00    +0.000 NA
ATOM      5  C   UNL     1       0.261   9.252  21.722  0.00  0.00    +0.000 A 
ATOM      6  C   UNL     1      -0.403   9.526  22.925  0.00  0.00    +0.000 A 
ATOM      7  C   UNL     1      -1.048  10.768  23.077  0.00  0.00    +0.000 A 
ATOM      8  C   UNL     1      -1.024  11.718  22.051  0.00  0.00    +0.000 A 
ATOM      9  C   UNL     1      -0.300  11.480  20.873  0.00  0.00    +0.000 A 
ATOM     10  C   UNL     1       0.293  10.221  20.730  0.00  0.00    +0.000 A 
ENDROOT
BRANCH   3  11
ATOM     11  C   UNL     1       2.198   7.427  19.270  0.00  0.00    +0.000 C 
BRANCH  11  12
ATOM     12  O   UNL     1       2.901   6.580  20.180  0.00  0.00    +0.000 OA
BRANCH  12  13
ATOM     13  C   UNL     1       2.658   5.235  20.113  0.00  0.00    +0.000 A 
ATOM     14  C   UNL     1       1.339   4.872  20.396  0.00  0.00    +0.000 A 
ATOM     15  C   UNL     1       0.954   3.528  20.423  0.00  0.00    +0.000 A 
ATOM     16  C   UNL     1       1.892   2.528  20.161  0.00  0.00    +0.000 A 
ATOM     17  C   UNL     1       3.209   2.885  19.841  0.00  0.00    +0.000 A 
ATOM     18  C   UNL     1       3.591   4.238  19.826  0.00  0.00    +0.000 A 
BRANCH  17  19
ATOM     19  C   UNL     1       4.252   1.861  19.577  0.00  0.00    +0.000 C 
ATOM     20  O   UNL     1       5.106   1.573  20.398  0.00  0.00    +0.000 OA
BRANCH  19  21
ATOM     21  O   UNL     1       4.194   1.302  18.350  0.00  0.00    +0.000 OA
ATOM     22  H   UNL     1       3.973   1.908  17.618  0.00  0.00    +0.000 HD
ENDBRANCH  19  21
ENDBRANCH  17  19
ENDBRANCH  12  13
ENDBRANCH  11  12
ENDBRANCH   3  11
BRANCH   8  23
ATOM     23  O   UNL     1      -1.698  12.898  22.294  0.00  0.00    +0.000 OA
BRANCH  23  24
ATOM     24  C   UNL     1      -3.033  12.858  22.637  0.00  0.00    +0.000 A 
ATOM     25  C   UNL     1      -3.323  12.799  24.005  0.00  0.00    +0.000 A 
ATOM     26  C   UNL     1      -4.651  12.762  24.442  0.00  0.00    +0.000 A 
ATOM     27  C   UNL     1      -5.689  12.792  23.510  0.00  0.00    +0.000 A 
ATOM     28 CL   UNL     1      -7.322  12.788  24.055  0.00  0.00    +0.000 Cl
ATOM     29  C   UNL     1      -5.394  12.823  22.149  0.00  0.00    +0.000 A 
ATOM     30  F   UNL     1      -6.375  12.868  21.236  0.00  0.00    +0.000 F 
ATOM     31  C   UNL     1      -4.075  12.821  21.708  0.00  0.00    +0.000 A 
ENDBRANCH  23  24
ENDBRANCH   8  23
TORSDOF 7
ENDMDL
MODEL 4
REMARK VINA RESULT:      -8.1      4.122     10.057
REMARK  Name = 
REMARK  8 active torsions:
REMARK  status: ('A' for Active; 'I' for Inactive)
REMARK    1  A    between atoms: C_1  and  N_2
REMARK    2  A    between atoms: C_3  and  C_4
REMARK    3  A    between atoms: C_4  and  O_5
REMARK    4  A    between atoms: O_5  and  C_6
REMARK    5  A    between atoms: C_10  and  C_11
REMARK    6  A    between atoms: C_11  and  O_13
REMARK    7  A    between atoms: C_19  and  O_20
REMARK    8  A    between atoms: O_20  and  C_21
REMARK                            x       y       z     vdW  Elec       q    Type
REMARK                         _______ _______ _______ _____ _____    ______ ____
ROOT
ATOM      1  C   UNL     1       1.835   9.801  17.910  0.00  0.00    +0.000 C 
ATOM      2  N   UNL     1       1.568   9.205  19.198  0.00  0.00    +0.000 N 
ATOM      3  C   UNL     1       1.912   7.952  19.656  0.00  0.00    +0.000 A 
ATOM      4  N   UNL     1       1.409   7.757  20.870  0.00  0.00    +0.000 NA
ATOM      5  C   UNL     1       0.758   8.914  21.209  0.00  0.00    +0.000 A 
ATOM      6  C   UNL     1       0.062   9.249  22.377  0.00  0.00    +0.000 A 
ATOM      7  C   UNL     1      -0.549  10.514  22.465  0.00  0.00    +0.000 A 
ATOM      8  C   UNL     1      -0.462  11.426  21.408  0.00  0.00    +0.000 A 
ATOM      9  C   UNL     1       0.294  11.125  20.265  0.00  0.00    +0.000 A 
ATOM     10  C   UNL     1       0.853   9.846  20.186  0.00  0.00    +0.000 A 
ENDROOT
BRANCH   3  11
ATOM     11  C   UNL     1       2.720   6.948  18.889  0.00  0.00    +0.000 C 
BRANCH  11  12
ATOM     12  O   UNL     1       1.831   5.888  18.531  0.00  0.00    +0.000 OA
BRANCH  12  13
ATOM     13  C   UNL     1       1.979   4.690  19.176  0.00  0.00    +0.000 A 
ATOM     14  C   UNL     1       0.954   4.389  20.077  0.00  0.00    +0.000 A 
ATOM     15  C   UNL     1       0.997   3.227  20.853  0.00  0.00    +0.000 A 
ATOM     16  C   UNL     1       2.073   2.346  20.731  0.00  0.00    +0.000 A 
ATOM     17  C   UNL     1       3.088   2.622  19.804  0.00  0.00    +0.000 A 
ATOM     18  C   UNL     1       3.042   3.798  19.035  0.00  0.00    +0.000 A 
BRANCH  17  19
ATOM     19  C   UNL     1       4.267   1.732  19.651  0.00  0.00    +0.000 C 
ATOM     20  O   UNL     1       5.208   1.756  20.425  0.00  0.00    +0.000 OA
BRANCH  19  21
ATOM     21  O   UNL     1       4.222   0.919  18.574  0.00  0.00    +0.000 OA
ATOM     22  H   UNL     1       5.005   0.943  17.993  0.00  0.00    +0.000 HD
ENDBRANCH  19  21
ENDBRANCH  17  19
ENDBRANCH  12  13
ENDBRANCH  11  12
ENDBRANCH   3  11
BRANCH   8  23
ATOM     23  O   UNL     1      -1.107  12.633  21.588  0.00  0.00    +0.000 OA
BRANCH  23  24
ATOM     24  C   UNL     1      -2.391  12.647  22.089  0.00  0.00    +0.000 A 
ATOM     25  C   UNL     1      -3.426  12.697  21.149  0.00  0.00    +0.000 A 
ATOM     26  C   UNL     1      -4.760  12.706  21.568  0.00  0.00    +0.000 A 
ATOM     27  C   UNL     1      -5.059  12.657  22.930  0.00  0.00    +0.000 A 
ATOM     28 CL   UNL     1      -6.702  12.627  23.441  0.00  0.00    +0.000 Cl
ATOM     29  C   UNL     1      -4.024  12.634  23.863  0.00  0.00    +0.000 A 
ATOM     30  F   UNL     1      -4.287  12.570  25.177  0.00  0.00    +0.000 F 
ATOM     31  C   UNL     1      -2.696  12.664  23.452  0.00  0.00    +0.000 A 
ENDBRANCH  23  24
ENDBRANCH   8  23
TORSDOF 7
ENDMDL
MODEL 5
REMARK VINA RESULT:      -8.0      1.251      1.723
REMARK  Name = 
REMARK  8 active torsions:
REMARK  status: ('A' for Active; 'I' for Inactive)
REMARK    1  A    between atoms: C_1  and  N_2
REMARK    2  A    between atoms: C_3  and  C_4
REMARK    3  A    between atoms: C_4  and  O_5
REMARK    4  A    between atoms: O_5  and  C_6
REMARK    5  A    between atoms: C_10  and  C_11
REMARK    6  A    between atoms: C_11  and  O_13
REMARK    7  A    between atoms: C_19  and  O_20
REMARK    8  A    between atoms: O_20  and  C_21
REMARK                            x       y       z     vdW  Elec       q    Type
REMARK                         _______ _______ _______ _____ _____    ______ ____
ROOT
ATOM      1  C   UNL     1      -0.625  10.083  22.645  0.00  0.00    +0.000 C 
ATOM      2  N   UNL     1      -0.390  10.380  21.252  0.00  0.00    +0.000 N 
ATOM      3  C   UNL     1      -0.962  11.361  20.471  0.00  0.00    +0.000 A 
ATOM      4  N   UNL     1      -0.538  11.250  19.217  0.00  0.00    +0.000 NA
ATOM      5  C   UNL     1       0.342  10.201  19.198  0.00  0.00    +0.000 A 
ATOM      6  C   UNL     1       1.083   9.662  18.138  0.00  0.00    +0.000 A 
ATOM      7  C   UNL     1       1.908   8.549  18.382  0.00  0.00    +0.000 A 
ATOM      8  C   UNL     1       1.996   7.989  19.660  0.00  0.00    +0.000 A 
ATOM      9  C   UNL     1       1.315   8.567  20.742  0.00  0.00    +0.000 A 
ATOM     10  C   UNL     1       0.467   9.645  20.463  0.00  0.00    +0.000 A 
ENDROOT
BRANCH   3  11
ATOM     11  C   UNL     1      -1.936  12.391  20.961  0.00  0.00    +0.000 C 
BRANCH  11  12
ATOM     12  O   UNL     1      -2.698  12.811  19.829  0.00  0.00    +0.000 OA
BRANCH  12  13
ATOM     13  C   UNL     1      -3.984  12.354  19.724  0.00  0.00    +0.000 A 
ATOM     14  C   UNL     1      -4.280  11.741  18.503  0.00  0.00    +0.000 A 
ATOM     15  C   UNL     1      -5.569  11.277  18.227  0.00  0.00    +0.000 A 
ATOM     16  C   UNL     1      -6.581  11.418  19.178  0.00  0.00    +0.000 A 
ATOM     17  C   UNL     1      -6.284  11.999  20.419  0.00  0.00    +0.000 A 
ATOM     18  C   UNL     1      -4.988  12.472  20.685  0.00  0.00    +0.000 A 
BRANCH  17  19
ATOM     19  C   UNL     1      -7.328  12.194  21.458  0.00  0.00    +0.000 C 
ATOM     20  O   UNL     1      -7.664  11.304  22.220  0.00  0.00    +0.000 OA
BRANCH  19  21
ATOM     21  O   UNL     1      -7.889  13.421  21.468  0.00  0.00    +0.000 OA
ATOM     22  H   UNL     1      -7.463  14.077  22.051  0.00  0.00    +0.000 HD
ENDBRANCH  19  21
ENDBRANCH  17  19
ENDBRANCH  12  13
ENDBRANCH  11  12
ENDBRANCH   3  11
BRANCH   8  23
ATOM     23  O   UNL     1       2.823   6.891  19.792  0.00  0.00    +0.000 OA
BRANCH  23  24
ATOM     24  C   UNL     1       2.350   5.643  19.448  0.00  0.00    +0.000 A 
ATOM     25  C   UNL     1       1.592   4.975  20.416  0.00  0.00    +0.000 A 
ATOM     26  C   UNL     1       1.067   3.707  20.148  0.00  0.00    +0.000 A 
ATOM     27  C   UNL     1       1.294   3.110  18.907  0.00  0.00    +0.000 A 
ATOM     28 CL   UNL     1       0.611   1.567  18.567  0.00  0.00    +0.000 Cl
ATOM     29  C   UNL     1       2.072   3.768  17.957  0.00  0.00    +0.000 A 
ATOM     30  F   UNL     1       2.290   3.221  16.752  0.00  0.00    +0.000 F 
ATOM     31  C   UNL     1       2.628   5.013  18.232  0.00  0.00    +0.000 A 
ENDBRANCH  23  24
ENDBRANCH   8  23
TORSDOF 7
ENDMDL
MODEL 6
REMARK VINA RESULT:      -8.0      2.858      3.406
REMARK  Name = 
REMARK  8 active torsions:
REMARK  status: ('A' for Active; 'I' for Inactive)
REMARK    1  A    between atoms: C_1  and  N_2
REMARK    2  A    between atoms: C_3  and  C_4
REMARK    3  A    between atoms: C_4  and  O_5
REMARK    4  A    between atoms: O_5  and  C_6
REMARK    5  A    between atoms: C_10  and  C_11
REMARK    6  A    between atoms: C_11  and  O_13
REMARK    7  A    between atoms: C_19  and  O_20
REMARK    8  A    between atoms: O_20  and  C_21
REMARK                            x       y       z     vdW  Elec       q    Type
REMARK                         _______ _______ _______ _____ _____    ______ ____
ROOT
ATOM      1  C   UNL     1      -0.241   9.338  22.108  0.00  0.00    +0.000 C 
ATOM      2  N   UNL     1       0.160   9.670  20.762  0.00  0.00    +0.000 N 
ATOM      3  C   UNL     1      -0.271  10.708  19.965  0.00  0.00    +0.000 A 
ATOM      4  N   UNL     1       0.280  10.617  18.760  0.00  0.00    +0.000 NA
ATOM      5  C   UNL     1       1.101   9.520  18.793  0.00  0.00    +0.000 A 
ATOM      6  C   UNL     1       1.923   8.977  17.797  0.00  0.00    +0.000 A 
ATOM      7  C   UNL     1       2.657   7.810  18.083  0.00  0.00    +0.000 A 
ATOM      8  C   UNL     1       2.575   7.203  19.340  0.00  0.00    +0.000 A 
ATOM      9  C   UNL     1       1.811   7.781  20.365  0.00  0.00    +0.000 A 
ATOM     10  C   UNL     1       1.058   8.914  20.040  0.00  0.00    +0.000 A 
ENDROOT
BRANCH   3  11
ATOM     11  C   UNL     1      -1.237  11.774  20.389  0.00  0.00    +0.000 C 
BRANCH  11  12
ATOM     12  O   UNL     1      -1.783  12.337  19.196  0.00  0.00    +0.000 OA
BRANCH  12  13
ATOM     13  C   UNL     1      -3.050  11.962  18.839  0.00  0.00    +0.000 A 
ATOM     14  C   UNL     1      -3.161  11.469  17.536  0.00  0.00    +0.000 A 
ATOM     15  C   UNL     1      -4.403  11.101  17.010  0.00  0.00    +0.000 A 
ATOM     16  C   UNL     1      -5.554  11.220  17.790  0.00  0.00    +0.000 A 
ATOM     17  C   UNL     1      -5.448  11.680  19.110  0.00  0.00    +0.000 A 
ATOM     18  C   UNL     1      -4.196  12.057  19.628  0.00  0.00    +0.000 A 
BRANCH  17  19
ATOM     19  C   UNL     1      -6.643  11.847  19.976  0.00  0.00    +0.000 C 
ATOM     20  O   UNL     1      -6.744  11.300  21.061  0.00  0.00    +0.000 OA
BRANCH  19  21
ATOM     21  O   UNL     1      -7.612  12.628  19.453  0.00  0.00    +0.000 OA
ATOM     22  H   UNL     1      -8.349  12.846  20.053  0.00  0.00    +0.000 HD
ENDBRANCH  19  21
ENDBRANCH  17  19
ENDBRANCH  12  13
ENDBRANCH  11  12
ENDBRANCH   3  11
BRANCH   8  23
ATOM     23  O   UNL     1       3.323   6.056  19.515  0.00  0.00    +0.000 OA
BRANCH  23  24
ATOM     24  C   UNL     1       4.047   5.551  18.455  0.00  0.00    +0.000 A 
ATOM     25  C   UNL     1       3.468   4.485  17.757  0.00  0.00    +0.000 A 
ATOM     26  C   UNL     1       4.129   3.917  16.664  0.00  0.00    +0.000 A 
ATOM     27  C   UNL     1       5.366   4.422  16.263  0.00  0.00    +0.000 A 
ATOM     28 CL   UNL     1       6.157   3.746  14.892  0.00  0.00    +0.000 Cl
ATOM     29  C   UNL     1       5.950   5.465  16.977  0.00  0.00    +0.000 A 
ATOM     30  F   UNL     1       7.131   5.978  16.600  0.00  0.00    +0.000 F 
ATOM     31  C   UNL     1       5.315   6.009  18.089  0.00  0.00    +0.000 A 
ENDBRANCH  23  24
ENDBRANCH   8  23
TORSDOF 7
ENDMDL
MODEL 7
REMARK VINA RESULT:      -7.9      4.728     10.942
REMARK  Name = 
REMARK  8 active torsions:
REMARK  status: ('A' for Active; 'I' for Inactive)
REMARK    1  A    between atoms: C_1  and  N_2
REMARK    2  A    between atoms: C_3  and  C_4
REMARK    3  A    between atoms: C_4  and  O_5
REMARK    4  A    between atoms: O_5  and  C_6
REMARK    5  A    between atoms: C_10  and  C_11
REMARK    6  A    between atoms: C_11  and  O_13
REMARK    7  A    between atoms: C_19  and  O_20
REMARK    8  A    between atoms: O_20  and  C_21
REMARK                            x       y       z     vdW  Elec       q    Type
REMARK                         _______ _______ _______ _____ _____    ______ ____
ROOT
ATOM      1  C   UNL     1       3.300   7.563  17.625  0.00  0.00    +0.000 C 
ATOM      2  N   UNL     1       2.621   7.394  18.887  0.00  0.00    +0.000 N 
ATOM      3  C   UNL     1       2.716   6.352  19.785  0.00  0.00    +0.000 A 
ATOM      4  N   UNL     1       1.865   6.535  20.788  0.00  0.00    +0.000 NA
ATOM      5  C   UNL     1       1.235   7.728  20.546  0.00  0.00    +0.000 A 
ATOM      6  C   UNL     1       0.255   8.398  21.290  0.00  0.00    +0.000 A 
ATOM      7  C   UNL     1      -0.255   9.615  20.801  0.00  0.00    +0.000 A 
ATOM      8  C   UNL     1       0.210  10.154  19.598  0.00  0.00    +0.000 A 
ATOM      9  C   UNL     1       1.243   9.527  18.885  0.00  0.00    +0.000 A 
ATOM     10  C   UNL     1       1.699   8.297  19.369  0.00  0.00    +0.000 A 
ENDROOT
BRANCH   3  11
ATOM     11  C   UNL     1       3.633   5.174  19.640  0.00  0.00    +0.000 C 
BRANCH  11  12
ATOM     12  O   UNL     1       3.681   4.855  18.248  0.00  0.00    +0.000 OA
BRANCH  12  13
ATOM     13  C   UNL     1       4.914   4.723  17.669  0.00  0.00    +0.000 A 
ATOM     14  C   UNL     1       5.983   4.774  18.568  0.00  0.00    +0.000 A 
ATOM     15  C   UNL     1       7.304   4.712  18.117  0.00  0.00    +0.000 A 
ATOM     16  C   UNL     1       7.572   4.593  16.752  0.00  0.00    +0.000 A 
ATOM     17  C   UNL     1       6.505   4.505  15.846  0.00  0.00    +0.000 A 
ATOM     18  C   UNL     1       5.179   4.579  16.307  0.00  0.00    +0.000 A 
BRANCH  17  19
ATOM     19  C   UNL     1       6.733   4.402  14.383  0.00  0.00    +0.000 C 
ATOM     20  O   UNL     1       7.305   5.271  13.748  0.00  0.00    +0.000 OA
BRANCH  19  21
ATOM     21  O   UNL     1       6.231   3.286  13.812  0.00  0.00    +0.000 OA
ATOM     22  H   UNL     1       5.303   3.342  13.517  0.00  0.00    +0.000 HD
ENDBRANCH  19  21
ENDBRANCH  17  19
ENDBRANCH  12  13
ENDBRANCH  11  12
ENDBRANCH   3  11
BRANCH   8  23
ATOM     23  O   UNL     1      -0.363  11.346  19.199  0.00  0.00    +0.000 OA
BRANCH  23  24
ATOM     24  C   UNL     1      -1.709  11.383  18.904  0.00  0.00    +0.000 A 
ATOM     25  C   UNL     1      -2.135  10.586  17.835  0.00  0.00    +0.000 A 
ATOM     26  C   UNL     1      -3.485  10.558  17.471  0.00  0.00    +0.000 A 
ATOM     27  C   UNL     1      -4.411  11.322  18.182  0.00  0.00    +0.000 A 
ATOM     28 CL   UNL     1      -6.077  11.253  17.757  0.00  0.00    +0.000 Cl
ATOM     29  C   UNL     1      -3.978  12.135  19.227  0.00  0.00    +0.000 A 
ATOM     30  F   UNL     1      -4.852  12.865  19.935  0.00  0.00    +0.000 F 
ATOM     31  C   UNL     1      -2.631  12.196  19.569  0.00  0.00    +0.000 A 
ENDBRANCH  23  24
ENDBRANCH   8  23
TORSDOF 7
ENDMDL
MODEL 8
REMARK VINA RESULT:      -7.9      4.164     10.244
REMARK  Name = 
REMARK  8 active torsions:
REMARK  status: ('A' for Active; 'I' for Inactive)
REMARK    1  A    between atoms: C_1  and  N_2
REMARK    2  A    between atoms: C_3  and  C_4
REMARK    3  A    between atoms: C_4  and  O_5
REMARK    4  A    between atoms: O_5  and  C_6
REMARK    5  A    between atoms: C_10  and  C_11
REMARK    6  A    between atoms: C_11  and  O_13
REMARK    7  A    between atoms: C_19  and  O_20
REMARK    8  A    between atoms: O_20  and  C_21
REMARK                            x       y       z     vdW  Elec       q    Type
REMARK                         _______ _______ _______ _____ _____    ______ ____
ROOT
ATOM      1  C   UNL     1       1.317  10.624  18.369  0.00  0.00    +0.000 C 
ATOM      2  N   UNL     1       1.107   9.776  19.518  0.00  0.00    +0.000 N 
ATOM      3  C   UNL     1       1.477   8.461  19.698  0.00  0.00    +0.000 A 
ATOM      4  N   UNL     1       1.026   8.016  20.865  0.00  0.00    +0.000 NA
ATOM      5  C   UNL     1       0.381   9.070  21.457  0.00  0.00    +0.000 A 
ATOM      6  C   UNL     1      -0.269   9.151  22.695  0.00  0.00    +0.000 A 
ATOM      7  C   UNL     1      -0.884  10.362  23.061  0.00  0.00    +0.000 A 
ATOM      8  C   UNL     1      -0.846  11.471  22.210  0.00  0.00    +0.000 A 
ATOM      9  C   UNL     1      -0.136  11.420  21.002  0.00  0.00    +0.000 A 
ATOM     10  C   UNL     1       0.428  10.191  20.642  0.00  0.00    +0.000 A 
ENDROOT
BRANCH   3  11
ATOM     11  C   UNL     1       2.260   7.645  18.711  0.00  0.00    +0.000 C 
BRANCH  11  12
ATOM     12  O   UNL     1       3.077   6.751  19.469  0.00  0.00    +0.000 OA
BRANCH  12  13
ATOM     13  C   UNL     1       3.518   5.614  18.848  0.00  0.00    +0.000 A 
ATOM     14  C   UNL     1       4.501   5.831  17.878  0.00  0.00    +0.000 A 
ATOM     15  C   UNL     1       5.007   4.772  17.120  0.00  0.00    +0.000 A 
ATOM     16  C   UNL     1       4.534   3.475  17.329  0.00  0.00    +0.000 A 
ATOM     17  C   UNL     1       3.575   3.243  18.324  0.00  0.00    +0.000 A 
ATOM     18  C   UNL     1       3.063   4.316  19.076  0.00  0.00    +0.000 A 
BRANCH  17  19
ATOM     19  C   UNL     1       3.020   1.888  18.572  0.00  0.00    +0.000 C 
ATOM     20  O   UNL     1       1.884   1.712  18.976  0.00  0.00    +0.000 OA
BRANCH  19  21
ATOM     21  O   UNL     1       3.883   0.876  18.341  0.00  0.00    +0.000 OA
ATOM     22  H   UNL     1       3.927   0.559  17.420  0.00  0.00    +0.000 HD
ENDBRANCH  19  21
ENDBRANCH  17  19
ENDBRANCH  12  13
ENDBRANCH  11  12
ENDBRANCH   3  11
BRANCH   8  23
ATOM     23  O   UNL     1      -1.491  12.607  22.657  0.00  0.00    +0.000 OA
BRANCH  23  24
ATOM     24  C   UNL     1      -2.867  12.669  22.603  0.00  0.00    +0.000 A 
ATOM     25  C   UNL     1      -3.440  12.703  21.327  0.00  0.00    +0.000 A 
ATOM     26  C   UNL     1      -4.830  12.758  21.178  0.00  0.00    +0.000 A 
ATOM     27  C   UNL     1      -5.647  12.773  22.309  0.00  0.00    +0.000 A 
ATOM     28 CL   UNL     1      -7.357  12.800  22.122  0.00  0.00    +0.000 Cl
ATOM     29  C   UNL     1      -5.071  12.767  23.577  0.00  0.00    +0.000 A 
ATOM     30  F   UNL     1      -5.837  12.764  24.678  0.00  0.00    +0.000 F 
ATOM     31  C   UNL     1      -3.688  12.750  23.730  0.00  0.00    +0.000 A 
ENDBRANCH  23  24
ENDBRANCH   8  23
TORSDOF 7
ENDMDL
MODEL 9
REMARK VINA RESULT:      -7.9      4.044     10.350
REMARK  Name = 
REMARK  8 active torsions:
REMARK  status: ('A' for Active; 'I' for Inactive)
REMARK    1  A    between atoms: C_1  and  N_2
REMARK    2  A    between atoms: C_3  and  C_4
REMARK    3  A    between atoms: C_4  and  O_5
REMARK    4  A    between atoms: O_5  and  C_6
REMARK    5  A    between atoms: C_10  and  C_11
REMARK    6  A    between atoms: C_11  and  O_13
REMARK    7  A    between atoms: C_19  and  O_20
REMARK    8  A    between atoms: O_20  and  C_21
REMARK                            x       y       z     vdW  Elec       q    Type
REMARK                         _______ _______ _______ _____ _____    ______ ____
ROOT
ATOM      1  C   UNL     1       1.242  10.339  18.435  0.00  0.00    +0.000 C 
ATOM      2  N   UNL     1       1.083   9.673  19.706  0.00  0.00    +0.000 N 
ATOM      3  C   UNL     1       1.541   8.432  20.092  0.00  0.00    +0.000 A 
ATOM      4  N   UNL     1       1.115   8.149  21.317  0.00  0.00    +0.000 NA
ATOM      5  C   UNL     1       0.397   9.238  21.737  0.00  0.00    +0.000 A 
ATOM      6  C   UNL     1      -0.263   9.471  22.951  0.00  0.00    +0.000 A 
ATOM      7  C   UNL     1      -0.961  10.681  23.122  0.00  0.00    +0.000 A 
ATOM      8  C   UNL     1      -0.994  11.640  22.105  0.00  0.00    +0.000 A 
ATOM      9  C   UNL     1      -0.275  11.445  20.916  0.00  0.00    +0.000 A 
ATOM     10  C   UNL     1       0.372  10.216  20.754  0.00  0.00    +0.000 A 
ENDROOT
BRANCH   3  11
ATOM     11  C   UNL     1       2.382   7.524  19.244  0.00  0.00    +0.000 C 
BRANCH  11  12
ATOM     12  O   UNL     1       1.941   6.190  19.502  0.00  0.00    +0.000 OA
BRANCH  12  13
ATOM     13  C   UNL     1       2.510   5.181  18.773  0.00  0.00    +0.000 A 
ATOM     14  C   UNL     1       1.672   4.084  18.554  0.00  0.00    +0.000 A 
ATOM     15  C   UNL     1       2.133   2.952  17.876  0.00  0.00    +0.000 A 
ATOM     16  C   UNL     1       3.446   2.908  17.403  0.00  0.00    +0.000 A 
ATOM     17  C   UNL     1       4.282   4.017  17.588  0.00  0.00    +0.000 A 
ATOM     18  C   UNL     1       3.814   5.148  18.280  0.00  0.00    +0.000 A 
BRANCH  17  19
ATOM     19  C   UNL     1       5.694   4.014  17.127  0.00  0.00    +0.000 C 
ATOM     20  O   UNL     1       6.596   4.508  17.783  0.00  0.00    +0.000 OA
BRANCH  19  21
ATOM     21  O   UNL     1       5.890   3.448  15.918  0.00  0.00    +0.000 OA
ATOM     22  H   UNL     1       5.400   2.621  15.753  0.00  0.00    +0.000 HD
ENDBRANCH  19  21
ENDBRANCH  17  19
ENDBRANCH  12  13
ENDBRANCH  11  12
ENDBRANCH   3  11
BRANCH   8  23
ATOM     23  O   UNL     1      -1.717  12.786  22.368  0.00  0.00    +0.000 OA
BRANCH  23  24
ATOM     24  C   UNL     1      -3.084  12.780  22.192  0.00  0.00    +0.000 A 
ATOM     25  C   UNL     1      -3.541  12.793  20.869  0.00  0.00    +0.000 A 
ATOM     26  C   UNL     1      -4.913  12.780  20.597  0.00  0.00    +0.000 A 
ATOM     27  C   UNL     1      -5.828  12.745  21.650  0.00  0.00    +0.000 A 
ATOM     28 CL   UNL     1      -7.514  12.688  21.311  0.00  0.00    +0.000 Cl
ATOM     29  C   UNL     1      -5.368  12.760  22.965  0.00  0.00    +0.000 A 
ATOM     30  F   UNL     1      -6.228  12.710  23.993  0.00  0.00    +0.000 F 
ATOM     31  C   UNL     1      -4.005  12.811  23.241  0.00  0.00    +0.000 A 
ENDBRANCH  23  24
ENDBRANCH   8  23
TORSDOF 7
ENDMDL
