MODEL 1
REMARK VINA RESULT:      -7.4      0.000      0.000
REMARK  Name = 
REMARK  7 active torsions:
REMARK  status: ('A' for Active; 'I' for Inactive)
REMARK    1  A    between atoms: C_1  and  C_2
REMARK    2  A    between atoms: C_2  and  N_3
REMARK    3  A    between atoms: N_3  and  C_4
REMARK    4  A    between atoms: C_7  and  O_8
REMARK    5  A    between atoms: O_8  and  C_9
REMARK    6  A    between atoms: C_10  and  O_11
REMARK    7  A    between atoms: O_11  and  C_12
REMARK                            x       y       z     vdW  Elec       q    Type
REMARK                         _______ _______ _______ _____ _____    ______ ____
ROOT
ATOM      1  N   UNL     1       2.855   5.444  19.846  0.00  0.00    +0.000 N 
ATOM      2  C   UNL     1       2.218   6.689  19.790  0.00  0.00    +0.000 A 
ATOM      3  N   UNL     1       1.586   7.156  20.824  0.00  0.00    +0.000 NA
ATOM      4  C   UNL     1       0.886   8.328  20.843  0.00  0.00    +0.000 A 
ATOM      5  O   UNL     1       0.017   8.544  21.687  0.00  0.00    +0.000 OA
ATOM      6  C   UNL     1       1.192   9.420  19.912  0.00  0.00    +0.000 A 
ATOM      7  C   UNL     1       0.787  10.734  20.169  0.00  0.00    +0.000 A 
ATOM      8  C   UNL     1       1.090  11.738  19.255  0.00  0.00    +0.000 A 
ATOM      9  C   UNL     1       1.798  11.387  18.117  0.00  0.00    +0.000 A 
ATOM     10  N   UNL     1       2.183  10.124  17.841  0.00  0.00    +0.000 NA
ATOM     11  C   UNL     1       1.858   9.156  18.735  0.00  0.00    +0.000 A 
ATOM     12  S   UNL     1       2.223   7.517  18.235  0.00  0.00    +0.000 S 
ENDROOT
BRANCH   1  13
ATOM     13  C   UNL     1       3.898   5.041  18.972  0.00  0.00    +0.000 A 
ATOM     14  C   UNL     1       3.647   4.313  17.806  0.00  0.00    +0.000 A 
ATOM     15  C   UNL     1       4.676   4.023  16.906  0.00  0.00    +0.000 A 
ATOM     16  C   UNL     1       5.989   4.441  17.141  0.00  0.00    +0.000 A 
ATOM     17  C   UNL     1       6.279   5.140  18.319  0.00  0.00    +0.000 A 
ATOM     18  C   UNL     1       5.237   5.408  19.228  0.00  0.00    +0.000 A 
BRANCH  16  19
ATOM     19  O   UNL     1       6.825   4.089  16.115  0.00  0.00    +0.000 OA
ATOM     20  C   UNL     1       6.838   4.878  14.937  0.00  0.00    +0.000 C 
ENDBRANCH  16  19
BRANCH  17  21
ATOM     21  O   UNL     1       7.576   5.491  18.589  0.00  0.00    +0.000 OA
ATOM     22  C   UNL     1       7.928   6.851  18.343  0.00  0.00    +0.000 C 
ENDBRANCH  17  21
ENDBRANCH   1  13
BRANCH   1  24
ATOM     23  C   UNL     1       1.037   3.804  20.242  0.00  0.00    +0.000 C 
ATOM     24  C   UNL     1       2.338   4.412  20.762  0.00  0.00    +0.000 C 
ENDBRANCH   1  24
TORSDOF 4
ENDMDL
MODEL 2
REMARK VINA RESULT:      -7.1      1.235      1.347
REMARK  Name = 
REMARK  7 active torsions:
REMARK  status: ('A' for Active; 'I' for Inactive)
REMARK    1  A    between atoms: C_1  and  C_2
REMARK    2  A    between atoms: C_2  and  N_3
REMARK    3  A    between atoms: N_3  and  C_4
REMARK    4  A    between atoms: C_7  and  O_8
REMARK    5  A    between atoms: O_8  and  C_9
REMARK    6  A    between atoms: C_10  and  O_11
REMARK    7  A    between atoms: O_11  and  C_12
REMARK                            x       y       z     vdW  Elec       q    Type
REMARK                         _______ _______ _______ _____ _____    ______ ____
ROOT
ATOM      1  N   UNL     1       3.778   5.311  18.898  0.00  0.00    +0.000 N 
ATOM      2  C   UNL     1       2.939   6.415  19.091  0.00  0.00    +0.000 A 
ATOM      3  N   UNL     1       2.355   6.611  20.233  0.00  0.00    +0.000 NA
ATOM      4  C   UNL     1       1.474   7.621  20.493  0.00  0.00    +0.000 A 
ATOM      5  O   UNL     1       0.680   7.557  21.430  0.00  0.00    +0.000 OA
ATOM      6  C   UNL     1       1.489   8.869  19.720  0.00  0.00    +0.000 A 
ATOM      7  C   UNL     1       0.900  10.039  20.212  0.00  0.00    +0.000 A 
ATOM      8  C   UNL     1       0.927  11.198  19.443  0.00  0.00    +0.000 A 
ATOM      9  C   UNL     1       1.555  11.143  18.209  0.00  0.00    +0.000 A 
ATOM     10  N   UNL     1       2.114  10.021  17.709  0.00  0.00    +0.000 NA
ATOM     11  C   UNL     1       2.056   8.896  18.465  0.00  0.00    +0.000 A 
ATOM     12  S   UNL     1       2.634   7.437  17.688  0.00  0.00    +0.000 S 
ENDROOT
BRANCH   1  13
ATOM     13  C   UNL     1       4.771   5.230  17.889  0.00  0.00    +0.000 A 
ATOM     14  C   UNL     1       4.723   4.265  16.878  0.00  0.00    +0.000 A 
ATOM     15  C   UNL     1       5.651   4.273  15.833  0.00  0.00    +0.000 A 
ATOM     16  C   UNL     1       6.661   5.237  15.764  0.00  0.00    +0.000 A 
ATOM     17  C   UNL     1       6.759   6.194  16.782  0.00  0.00    +0.000 A 
ATOM     18  C   UNL     1       5.830   6.162  17.840  0.00  0.00    +0.000 A 
BRANCH  16  19
ATOM     19  O   UNL     1       7.430   5.087  14.641  0.00  0.00    +0.000 OA
ATOM     20  C   UNL     1       6.857   4.488  13.490  0.00  0.00    +0.000 C 
ENDBRANCH  16  19
BRANCH  17  21
ATOM     21  O   UNL     1       7.789   7.098  16.756  0.00  0.00    +0.000 OA
ATOM     22  C   UNL     1       7.775   8.103  17.767  0.00  0.00    +0.000 C 
ENDBRANCH  17  21
ENDBRANCH   1  13
BRANCH   1  24
ATOM     23  C   UNL     1       2.293   3.349  19.212  0.00  0.00    +0.000 C 
ATOM     24  C   UNL     1       3.545   4.086  19.683  0.00  0.00    +0.000 C 
ENDBRANCH   1  24
TORSDOF 4
ENDMDL
MODEL 3
REMARK VINA RESULT:      -7.0      3.832      7.650
REMARK  Name = 
REMARK  7 active torsions:
REMARK  status: ('A' for Active; 'I' for Inactive)
REMARK    1  A    between atoms: C_1  and  C_2
REMARK    2  A    between atoms: C_2  and  N_3
REMARK    3  A    between atoms: N_3  and  C_4
REMARK    4  A    between atoms: C_7  and  O_8
REMARK    5  A    between atoms: O_8  and  C_9
REMARK    6  A    between atoms: C_10  and  O_11
REMARK    7  A    between atoms: O_11  and  C_12
REMARK                            x       y       z     vdW  Elec       q    Type
REMARK                         _______ _______ _______ _____ _____    ______ ____
ROOT
ATOM      1  N   UNL     1       6.362   5.854  17.277  0.00  0.00    +0.000 N 
ATOM      2  C   UNL     1       6.470   5.506  15.926  0.00  0.00    +0.000 A 
ATOM      3  N   UNL     1       7.600   5.625  15.300  0.00  0.00    +0.000 NA
ATOM      4  C   UNL     1       7.784   5.369  13.971  0.00  0.00    +0.000 A 
ATOM      5  O   UNL     1       8.738   5.839  13.351  0.00  0.00    +0.000 OA
ATOM      6  C   UNL     1       6.901   4.455  13.236  0.00  0.00    +0.000 A 
ATOM      7  C   UNL     1       7.296   3.874  12.026  0.00  0.00    +0.000 A 
ATOM      8  C   UNL     1       6.425   3.020  11.357  0.00  0.00    +0.000 A 
ATOM      9  C   UNL     1       5.190   2.772  11.933  0.00  0.00    +0.000 A 
ATOM     10  N   UNL     1       4.783   3.335  13.090  0.00  0.00    +0.000 NA
ATOM     11  C   UNL     1       5.639   4.182  13.715  0.00  0.00    +0.000 A 
ATOM     12  S   UNL     1       4.986   5.018  15.109  0.00  0.00    +0.000 S 
ENDROOT
BRANCH   1  13
ATOM     13  C   UNL     1       5.346   5.379  18.146  0.00  0.00    +0.000 A 
ATOM     14  C   UNL     1       4.348   6.220  18.647  0.00  0.00    +0.000 A 
ATOM     15  C   UNL     1       3.296   5.709  19.411  0.00  0.00    +0.000 A 
ATOM     16  C   UNL     1       3.206   4.345  19.708  0.00  0.00    +0.000 A 
ATOM     17  C   UNL     1       4.211   3.483  19.251  0.00  0.00    +0.000 A 
ATOM     18  C   UNL     1       5.277   4.015  18.500  0.00  0.00    +0.000 A 
BRANCH  16  19
ATOM     19  O   UNL     1       2.079   4.055  20.428  0.00  0.00    +0.000 OA
ATOM     20  C   UNL     1       0.959   3.499  19.759  0.00  0.00    +0.000 C 
ENDBRANCH  16  19
BRANCH  17  21
ATOM     21  O   UNL     1       4.166   2.158  19.597  0.00  0.00    +0.000 OA
ATOM     22  C   UNL     1       3.704   1.257  18.594  0.00  0.00    +0.000 C 
ENDBRANCH  17  21
ENDBRANCH   1  13
BRANCH   1  24
ATOM     23  C   UNL     1       8.078   6.351  18.998  0.00  0.00    +0.000 C 
ATOM     24  C   UNL     1       7.259   6.887  17.826  0.00  0.00    +0.000 C 
ENDBRANCH   1  24
TORSDOF 4
ENDMDL
MODEL 4
REMARK VINA RESULT:      -6.8      3.311      7.624
REMARK  Name = 
REMARK  7 active torsions:
REMARK  status: ('A' for Active; 'I' for Inactive)
REMARK    1  A    between atoms: C_1  and  C_2
REMARK    2  A    between atoms: C_2  and  N_3
REMARK    3  A    between atoms: N_3  and  C_4
REMARK    4  A    between atoms: C_7  and  O_8
REMARK    5  A    between atoms: O_8  and  C_9
REMARK    6  A    between atoms: C_10  and  O_11
REMARK    7  A    between atoms: O_11  and  C_12
REMARK                            x       y       z     vdW  Elec       q    Type
REMARK                         _______ _______ _______ _____ _____    ______ ____
ROOT
ATOM      1  N   UNL     1       6.231   5.706  17.317  0.00  0.00    +0.000 N 
ATOM      2  C   UNL     1       6.379   5.401  15.958  0.00  0.00    +0.000 A 
ATOM      3  N   UNL     1       7.524   5.558  15.366  0.00  0.00    +0.000 NA
ATOM      4  C   UNL     1       7.747   5.347  14.036  0.00  0.00    +0.000 A 
ATOM      5  O   UNL     1       8.708   5.851  13.456  0.00  0.00    +0.000 OA
ATOM      6  C   UNL     1       6.899   4.441  13.250  0.00  0.00    +0.000 A 
ATOM      7  C   UNL     1       7.335   3.904  12.034  0.00  0.00    +0.000 A 
ATOM      8  C   UNL     1       6.496   3.057  11.317  0.00  0.00    +0.000 A 
ATOM      9  C   UNL     1       5.251   2.772  11.852  0.00  0.00    +0.000 A 
ATOM     10  N   UNL     1       4.804   3.292  13.015  0.00  0.00    +0.000 NA
ATOM     11  C   UNL     1       5.629   4.134  13.687  0.00  0.00    +0.000 A 
ATOM     12  S   UNL     1       4.926   4.915  15.088  0.00  0.00    +0.000 S 
ENDROOT
BRANCH   1  13
ATOM     13  C   UNL     1       5.200   5.188  18.143  0.00  0.00    +0.000 A 
ATOM     14  C   UNL     1       5.231   3.879  18.631  0.00  0.00    +0.000 A 
ATOM     15  C   UNL     1       4.262   3.426  19.531  0.00  0.00    +0.000 A 
ATOM     16  C   UNL     1       3.227   4.258  19.967  0.00  0.00    +0.000 A 
ATOM     17  C   UNL     1       3.148   5.564  19.466  0.00  0.00    +0.000 A 
ATOM     18  C   UNL     1       4.119   6.001  18.544  0.00  0.00    +0.000 A 
BRANCH  16  19
ATOM     19  O   UNL     1       2.419   3.630  20.875  0.00  0.00    +0.000 OA
ATOM     20  C   UNL     1       1.360   2.812  20.404  0.00  0.00    +0.000 C 
ENDBRANCH  16  19
BRANCH  17  21
ATOM     21  O   UNL     1       2.097   6.361  19.837  0.00  0.00    +0.000 OA
ATOM     22  C   UNL     1       2.167   7.727  19.435  0.00  0.00    +0.000 C 
ENDBRANCH  17  21
ENDBRANCH   1  13
BRANCH   1  24
ATOM     23  C   UNL     1       7.944   6.160  19.052  0.00  0.00    +0.000 C 
ATOM     24  C   UNL     1       7.095   6.736  17.920  0.00  0.00    +0.000 C 
ENDBRANCH   1  24
TORSDOF 4
ENDMDL
MODEL 5
REMARK VINA RESULT:      -6.8      1.757      2.738
REMARK  Name = 
REMARK  7 active torsions:
REMARK  status: ('A' for Active; 'I' for Inactive)
REMARK    1  A    between atoms: C_1  and  C_2
REMARK    2  A    between atoms: C_2  and  N_3
REMARK    3  A    between atoms: N_3  and  C_4
REMARK    4  A    between atoms: C_7  and  O_8
REMARK    5  A    between atoms: O_8  and  C_9
REMARK    6  A    between atoms: C_10  and  O_11
REMARK    7  A    between atoms: O_11  and  C_12
REMARK                            x       y       z     vdW  Elec       q    Type
REMARK                         _______ _______ _______ _____ _____    ______ ____
ROOT
ATOM      1  N   UNL     1       4.521   3.936  18.211  0.00  0.00    +0.000 N 
ATOM      2  C   UNL     1       3.562   4.792  18.768  0.00  0.00    +0.000 A 
ATOM      3  N   UNL     1       3.054   4.545  19.937  0.00  0.00    +0.000 NA
ATOM      4  C   UNL     1       2.073   5.285  20.530  0.00  0.00    +0.000 A 
ATOM      5  O   UNL     1       1.374   4.823  21.431  0.00  0.00    +0.000 OA
ATOM      6  C   UNL     1       1.858   6.695  20.181  0.00  0.00    +0.000 A 
ATOM      7  C   UNL     1       1.163   7.560  21.033  0.00  0.00    +0.000 A 
ATOM      8  C   UNL     1       0.973   8.887  20.659  0.00  0.00    +0.000 A 
ATOM      9  C   UNL     1       1.498   9.300  19.446  0.00  0.00    +0.000 A 
ATOM     10  N   UNL     1       2.156   8.478  18.602  0.00  0.00    +0.000 NA
ATOM     11  C   UNL     1       2.311   7.183  18.975  0.00  0.00    +0.000 A 
ATOM     12  S   UNL     1       3.009   6.129  17.762  0.00  0.00    +0.000 S 
ENDROOT
BRANCH   1  13
ATOM     13  C   UNL     1       5.428   4.314  17.188  0.00  0.00    +0.000 A 
ATOM     14  C   UNL     1       5.474   3.652  15.958  0.00  0.00    +0.000 A 
ATOM     15  C   UNL     1       6.299   4.110  14.927  0.00  0.00    +0.000 A 
ATOM     16  C   UNL     1       7.111   5.236  15.090  0.00  0.00    +0.000 A 
ATOM     17  C   UNL     1       7.116   5.898  16.324  0.00  0.00    +0.000 A 
ATOM     18  C   UNL     1       6.296   5.414  17.361  0.00  0.00    +0.000 A 
BRANCH  16  19
ATOM     19  O   UNL     1       7.802   5.534  13.945  0.00  0.00    +0.000 OA
ATOM     20  C   UNL     1       7.464   4.862  12.744  0.00  0.00    +0.000 C 
ENDBRANCH  16  19
BRANCH  17  21
ATOM     21  O   UNL     1       7.962   6.960  16.512  0.00  0.00    +0.000 OA
ATOM     22  C   UNL     1       7.621   7.862  17.562  0.00  0.00    +0.000 C 
ENDBRANCH  17  21
ENDBRANCH   1  13
BRANCH   1  24
ATOM     23  C   UNL     1       3.281   1.794  18.050  0.00  0.00    +0.000 C 
ATOM     24  C   UNL     1       4.517   2.512  18.587  0.00  0.00    +0.000 C 
ENDBRANCH   1  24
TORSDOF 4
ENDMDL
MODEL 6
REMARK VINA RESULT:      -6.6      2.086      6.843
REMARK  Name = 
REMARK  7 active torsions:
REMARK  status: ('A' for Active; 'I' for Inactive)
REMARK    1  A    between atoms: C_1  and  C_2
REMARK    2  A    between atoms: C_2  and  N_3
REMARK    3  A    between atoms: N_3  and  C_4
REMARK    4  A    between atoms: C_7  and  O_8
REMARK    5  A    between atoms: O_8  and  C_9
REMARK    6  A    between atoms: C_10  and  O_11
REMARK    7  A    between atoms: O_11  and  C_12
REMARK                            x       y       z     vdW  Elec       q    Type
REMARK                         _______ _______ _______ _____ _____    ______ ____
ROOT
ATOM      1  N   UNL     1       2.435   5.976  19.498  0.00  0.00    +0.000 N 
ATOM      2  C   UNL     1       3.357   5.374  18.632  0.00  0.00    +0.000 A 
ATOM      3  N   UNL     1       3.377   4.085  18.480  0.00  0.00    +0.000 NA
ATOM      4  C   UNL     1       4.277   3.408  17.708  0.00  0.00    +0.000 A 
ATOM      5  O   UNL     1       4.500   2.210  17.881  0.00  0.00    +0.000 OA
ATOM      6  C   UNL     1       4.960   4.054  16.581  0.00  0.00    +0.000 A 
ATOM      7  C   UNL     1       5.550   3.304  15.558  0.00  0.00    +0.000 A 
ATOM      8  C   UNL     1       6.196   3.955  14.513  0.00  0.00    +0.000 A 
ATOM      9  C   UNL     1       6.219   5.341  14.527  0.00  0.00    +0.000 A 
ATOM     10  N   UNL     1       5.672   6.083  15.513  0.00  0.00    +0.000 NA
ATOM     11  C   UNL     1       5.066   5.427  16.534  0.00  0.00    +0.000 A 
ATOM     12  S   UNL     1       4.538   6.434  17.867  0.00  0.00    +0.000 S 
ENDROOT
BRANCH   1  13
ATOM     13  C   UNL     1       2.039   7.336  19.422  0.00  0.00    +0.000 A 
ATOM     14  C   UNL     1       2.000   8.029  18.209  0.00  0.00    +0.000 A 
ATOM     15  C   UNL     1       1.503   9.333  18.142  0.00  0.00    +0.000 A 
ATOM     16  C   UNL     1       1.035   9.993  19.282  0.00  0.00    +0.000 A 
ATOM     17  C   UNL     1       1.096   9.339  20.519  0.00  0.00    +0.000 A 
ATOM     18  C   UNL     1       1.619   8.032  20.576  0.00  0.00    +0.000 A 
BRANCH  16  19
ATOM     19  O   UNL     1       0.554  11.240  18.986  0.00  0.00    +0.000 OA
ATOM     20  C   UNL     1      -0.824  11.393  18.691  0.00  0.00    +0.000 C 
ENDBRANCH  16  19
BRANCH  17  21
ATOM     21  O   UNL     1       0.704  10.006  21.650  0.00  0.00    +0.000 OA
ATOM     22  C   UNL     1      -0.313   9.384  22.432  0.00  0.00    +0.000 C 
ENDBRANCH  17  21
ENDBRANCH   1  13
BRANCH   1  24
ATOM     23  C   UNL     1       0.866   4.208  20.249  0.00  0.00    +0.000 C 
ATOM     24  C   UNL     1       1.938   5.216  20.659  0.00  0.00    +0.000 C 
ENDBRANCH   1  24
TORSDOF 4
ENDMDL
MODEL 7
REMARK VINA RESULT:      -6.4      1.263      1.316
REMARK  Name = 
REMARK  7 active torsions:
REMARK  status: ('A' for Active; 'I' for Inactive)
REMARK    1  A    between atoms: C_1  and  C_2
REMARK    2  A    between atoms: C_2  and  N_3
REMARK    3  A    between atoms: N_3  and  C_4
REMARK    4  A    between atoms: C_7  and  O_8
REMARK    5  A    between atoms: O_8  and  C_9
REMARK    6  A    between atoms: C_10  and  O_11
REMARK    7  A    between atoms: O_11  and  C_12
REMARK                            x       y       z     vdW  Elec       q    Type
REMARK                         _______ _______ _______ _____ _____    ______ ____
ROOT
ATOM      1  N   UNL     1       2.806   6.084  18.919  0.00  0.00    +0.000 N 
ATOM      2  C   UNL     1       2.188   7.321  19.139  0.00  0.00    +0.000 A 
ATOM      3  N   UNL     1       1.544   7.552  20.242  0.00  0.00    +0.000 NA
ATOM      4  C   UNL     1       0.860   8.701  20.517  0.00  0.00    +0.000 A 
ATOM      5  O   UNL     1      -0.021   8.736  21.375  0.00  0.00    +0.000 OA
ATOM      6  C   UNL     1       1.199   9.971  19.862  0.00  0.00    +0.000 A 
ATOM      7  C   UNL     1       0.808  11.199  20.406  0.00  0.00    +0.000 A 
ATOM      8  C   UNL     1       1.142  12.379  19.748  0.00  0.00    +0.000 A 
ATOM      9  C   UNL     1       1.866  12.283  18.571  0.00  0.00    +0.000 A 
ATOM     10  N   UNL     1       2.237  11.108  18.021  0.00  0.00    +0.000 NA
ATOM     11  C   UNL     1       1.882   9.969  18.666  0.00  0.00    +0.000 A 
ATOM     12  S   UNL     1       2.233   8.480  17.812  0.00  0.00    +0.000 S 
ENDROOT
BRANCH   1  13
ATOM     13  C   UNL     1       3.859   5.872  17.993  0.00  0.00    +0.000 A 
ATOM     14  C   UNL     1       3.858   4.792  17.105  0.00  0.00    +0.000 A 
ATOM     15  C   UNL     1       4.849   4.665  16.128  0.00  0.00    +0.000 A 
ATOM     16  C   UNL     1       5.878   5.602  16.009  0.00  0.00    +0.000 A 
ATOM     17  C   UNL     1       5.929   6.675  16.908  0.00  0.00    +0.000 A 
ATOM     18  C   UNL     1       4.935   6.780  17.901  0.00  0.00    +0.000 A 
BRANCH  16  19
ATOM     19  O   UNL     1       6.713   5.310  14.963  0.00  0.00    +0.000 OA
ATOM     20  C   UNL     1       6.365   4.258  14.079  0.00  0.00    +0.000 C 
ENDBRANCH  16  19
BRANCH  17  21
ATOM     21  O   UNL     1       6.974   7.558  16.840  0.00  0.00    +0.000 OA
ATOM     22  C   UNL     1       7.873   7.561  17.947  0.00  0.00    +0.000 C 
ENDBRANCH  17  21
ENDBRANCH   1  13
BRANCH   1  24
ATOM     23  C   UNL     1       3.174   4.379  20.683  0.00  0.00    +0.000 C 
ATOM     24  C   UNL     1       2.257   4.881  19.570  0.00  0.00    +0.000 C 
ENDBRANCH   1  24
TORSDOF 4
ENDMDL
MODEL 8
REMARK VINA RESULT:      -6.3      6.768      9.191
REMARK  Name = 
REMARK  7 active torsions:
REMARK  status: ('A' for Active; 'I' for Inactive)
REMARK    1  A    between atoms: C_1  and  C_2
REMARK    2  A    between atoms: C_2  and  N_3
REMARK    3  A    between atoms: N_3  and  C_4
REMARK    4  A    between atoms: C_7  and  O_8
REMARK    5  A    between atoms: O_8  and  C_9
REMARK    6  A    between atoms: C_10  and  O_11
REMARK    7  A    between atoms: O_11  and  C_12
REMARK                            x       y       z     vdW  Elec       q    Type
REMARK                         _______ _______ _______ _____ _____    ______ ____
ROOT
ATOM      1  N   UNL     1      -2.583  11.702  18.495  0.00  0.00    +0.000 N 
ATOM      2  C   UNL     1      -3.851  11.838  19.073  0.00  0.00    +0.000 A 
ATOM      3  N   UNL     1      -4.875  11.215  18.576  0.00  0.00    +0.000 NA
ATOM      4  C   UNL     1      -6.156  11.336  19.033  0.00  0.00    +0.000 A 
ATOM      5  O   UNL     1      -7.121  11.042  18.329  0.00  0.00    +0.000 OA
ATOM      6  C   UNL     1      -6.442  11.743  20.415  0.00  0.00    +0.000 A 
ATOM      7  C   UNL     1      -7.682  11.485  21.009  0.00  0.00    +0.000 A 
ATOM      8  C   UNL     1      -7.915  11.895  22.318  0.00  0.00    +0.000 A 
ATOM      9  C   UNL     1      -6.890  12.543  22.987  0.00  0.00    +0.000 A 
ATOM     10  N   UNL     1      -5.693  12.818  22.426  0.00  0.00    +0.000 NA
ATOM     11  C   UNL     1      -5.494  12.429  21.142  0.00  0.00    +0.000 A 
ATOM     12  S   UNL     1      -3.996  12.972  20.415  0.00  0.00    +0.000 S 
ENDROOT
BRANCH   1  13
ATOM     13  C   UNL     1      -1.365  11.967  19.172  0.00  0.00    +0.000 A 
ATOM     14  C   UNL     1      -0.560  13.062  18.846  0.00  0.00    +0.000 A 
ATOM     15  C   UNL     1       0.579  13.364  19.598  0.00  0.00    +0.000 A 
ATOM     16  C   UNL     1       0.958  12.582  20.693  0.00  0.00    +0.000 A 
ATOM     17  C   UNL     1       0.192  11.456  21.021  0.00  0.00    +0.000 A 
ATOM     18  C   UNL     1      -0.941  11.150  20.242  0.00  0.00    +0.000 A 
BRANCH  16  19
ATOM     19  O   UNL     1       2.073  13.079  21.311  0.00  0.00    +0.000 OA
ATOM     20  C   UNL     1       2.375  14.459  21.180  0.00  0.00    +0.000 C 
ENDBRANCH  16  19
BRANCH  17  21
ATOM     21  O   UNL     1       0.597  10.646  22.050  0.00  0.00    +0.000 OA
ATOM     22  C   UNL     1       0.103   9.309  22.035  0.00  0.00    +0.000 C 
ENDBRANCH  17  21
ENDBRANCH   1  13
BRANCH   1  24
ATOM     23  C   UNL     1      -1.991   9.980  16.811  0.00  0.00    +0.000 C 
ATOM     24  C   UNL     1      -2.479  11.406  17.055  0.00  0.00    +0.000 C 
ENDBRANCH   1  24
TORSDOF 4
ENDMDL
MODEL 9
REMARK VINA RESULT:      -6.0      7.032      8.525
REMARK  Name = 
REMARK  7 active torsions:
REMARK  status: ('A' for Active; 'I' for Inactive)
REMARK    1  A    between atoms: C_1  and  C_2
REMARK    2  A    between atoms: C_2  and  N_3
REMARK    3  A    between atoms: N_3  and  C_4
REMARK    4  A    between atoms: C_7  and  O_8
REMARK    5  A    between atoms: O_8  and  C_9
REMARK    6  A    between atoms: C_10  and  O_11
REMARK    7  A    between atoms: O_11  and  C_12
REMARK                            x       y       z     vdW  Elec       q    Type
REMARK                         _______ _______ _______ _____ _____    ______ ____
ROOT
ATOM      1  N   UNL     1      -0.392  12.334  20.552  0.00  0.00    +0.000 N 
ATOM      2  C   UNL     1       0.722  13.173  20.425  0.00  0.00    +0.000 A 
ATOM      3  N   UNL     1       1.528  13.358  21.426  0.00  0.00    +0.000 NA
ATOM      4  C   UNL     1       2.600  14.204  21.414  0.00  0.00    +0.000 A 
ATOM      5  O   UNL     1       3.096  14.628  22.457  0.00  0.00    +0.000 OA
ATOM      6  C   UNL     1       3.265  14.582  20.161  0.00  0.00    +0.000 A 
ATOM      7  C   UNL     1       4.567  15.094  20.151  0.00  0.00    +0.000 A 
ATOM      8  C   UNL     1       5.157  15.449  18.943  0.00  0.00    +0.000 A 
ATOM      9  C   UNL     1       4.421  15.268  17.783  0.00  0.00    +0.000 A 
ATOM     10  N   UNL     1       3.157  14.793  17.772  0.00  0.00    +0.000 NA
ATOM     11  C   UNL     1       2.593  14.474  18.964  0.00  0.00    +0.000 A 
ATOM     12  S   UNL     1       0.897  14.037  18.899  0.00  0.00    +0.000 S 
ENDROOT
BRANCH   1  13
ATOM     13  C   UNL     1      -1.067  11.733  19.459  0.00  0.00    +0.000 A 
ATOM     14  C   UNL     1      -0.487  10.710  18.703  0.00  0.00    +0.000 A 
ATOM     15  C   UNL     1      -1.212  10.059  17.701  0.00  0.00    +0.000 A 
ATOM     16  C   UNL     1      -2.534  10.410  17.414  0.00  0.00    +0.000 A 
ATOM     17  C   UNL     1      -3.130  11.456  18.129  0.00  0.00    +0.000 A 
ATOM     18  C   UNL     1      -2.382  12.119  19.121  0.00  0.00    +0.000 A 
BRANCH  16  19
ATOM     19  O   UNL     1      -3.068   9.620  16.431  0.00  0.00    +0.000 OA
ATOM     20  C   UNL     1      -2.995  10.055  15.083  0.00  0.00    +0.000 C 
ENDBRANCH  16  19
BRANCH  17  21
ATOM     21  O   UNL     1      -4.402  11.851  17.804  0.00  0.00    +0.000 OA
ATOM     22  C   UNL     1      -5.464  11.196  18.494  0.00  0.00    +0.000 C 
ENDBRANCH  17  21
ENDBRANCH   1  13
BRANCH   1  24
ATOM     23  C   UNL     1      -0.716  10.777  22.456  0.00  0.00    +0.000 C 
ATOM     24  C   UNL     1      -1.012  12.159  21.878  0.00  0.00    +0.000 C 
ENDBRANCH   1  24
TORSDOF 4
ENDMDL
