MODEL 1
REMARK VINA RESULT:      -7.8      0.000      0.000
REMARK  Name = 
REMARK  5 active torsions:
REMARK  status: ('A' for Active; 'I' for Inactive)
REMARK    1  A    between atoms: C_1  and  C_8
REMARK    2  A    between atoms: C_2  and  C_3
REMARK    3  A    between atoms: C_8  and  N_9
REMARK    4  A    between atoms: N_9  and  C_10
REMARK    5  A    between atoms: C_10  and  C_11
REMARK                            x       y       z     vdW  Elec       q    Type
REMARK                         _______ _______ _______ _____ _____    ______ ____
ROOT
ATOM      1  C   UNL     1       5.373   5.462  18.951  0.00  0.00    +0.000 C 
ENDROOT
BRANCH   1   2
ATOM      2  C   UNL     1       4.289   5.675  17.863  0.00  0.00    +0.000 C 
ATOM      3  C   UNL     1       3.158   6.572  18.375  0.00  0.00    +0.000 C 
ATOM      4  O   UNL     1       2.470   6.023  19.503  0.00  0.00    +0.000 OA
ATOM      5  C   UNL     1       2.182   4.685  19.419  0.00  0.00    +0.000 A 
ATOM      6  C   UNL     1       1.387   4.164  20.440  0.00  0.00    +0.000 A 
ATOM      7  C   UNL     1       1.083   2.803  20.464  0.00  0.00    +0.000 A 
ATOM      8  C   UNL     1       1.555   1.966  19.455  0.00  0.00    +0.000 A 
ATOM      9  C   UNL     1       2.354   2.483  18.435  0.00  0.00    +0.000 A 
ATOM     10  C   UNL     1       2.699   3.841  18.430  0.00  0.00    +0.000 A 
ATOM     11  C   UNL     1       3.626   4.380  17.378  0.00  0.00    +0.000 C 
ENDBRANCH   1   2
BRANCH   1  12
ATOM     12  N   UNL     1       6.209   4.299  18.638  0.00  0.00    +0.000 NA
ATOM     13  H   UNL     1       6.499   3.854  19.507  0.00  0.00    +0.000 HD
BRANCH  12  14
ATOM     14  C   UNL     1       7.430   4.669  17.922  0.00  0.00    +0.000 C 
BRANCH  14  15
ATOM     15  C   UNL     1       7.242   4.305  16.482  0.00  0.00    +0.000 C 
ATOM     16  C   UNL     1       7.095   5.184  15.477  0.00  0.00    +0.000 C 
BRANCH  16  17
ATOM     17  C   UNL     1       6.970   4.743  14.129  0.00  0.00    +0.000 A 
ATOM     18  C   UNL     1       6.119   3.776  13.603  0.00  0.00    +0.000 A 
ATOM     19  C   UNL     1       6.352   3.695  12.209  0.00  0.00    +0.000 A 
ATOM     20  C   UNL     1       7.331   4.616  11.940  0.00  0.00    +0.000 A 
ATOM     21  O   UNL     1       7.711   5.245  13.077  0.00  0.00    +0.000 OA
ENDBRANCH  16  17
ENDBRANCH  14  15
ENDBRANCH  12  14
ENDBRANCH   1  12
TORSDOF 5
ENDMDL
MODEL 2
REMARK VINA RESULT:      -7.5      3.216      6.182
REMARK  Name = 
REMARK  5 active torsions:
REMARK  status: ('A' for Active; 'I' for Inactive)
REMARK    1  A    between atoms: C_1  and  C_8
REMARK    2  A    between atoms: C_2  and  C_3
REMARK    3  A    between atoms: C_8  and  N_9
REMARK    4  A    between atoms: N_9  and  C_10
REMARK    5  A    between atoms: C_10  and  C_11
REMARK                            x       y       z     vdW  Elec       q    Type
REMARK                         _______ _______ _______ _____ _____    ______ ____
ROOT
ATOM      1  C   UNL     1       1.451   3.051  18.946  0.00  0.00    +0.000 C 
ENDROOT
BRANCH   1   2
ATOM      2  C   UNL     1       2.359   2.260  17.969  0.00  0.00    +0.000 C 
ATOM      3  C   UNL     1       3.531   1.607  18.708  0.00  0.00    +0.000 C 
ATOM      4  O   UNL     1       4.390   2.555  19.353  0.00  0.00    +0.000 OA
ATOM      5  C   UNL     1       4.693   3.668  18.612  0.00  0.00    +0.000 A 
ATOM      6  C   UNL     1       5.640   4.530  19.163  0.00  0.00    +0.000 A 
ATOM      7  C   UNL     1       5.977   5.714  18.505  0.00  0.00    +0.000 A 
ATOM      8  C   UNL     1       5.382   6.023  17.283  0.00  0.00    +0.000 A 
ATOM      9  C   UNL     1       4.432   5.164  16.731  0.00  0.00    +0.000 A 
ATOM     10  C   UNL     1       4.058   3.996  17.410  0.00  0.00    +0.000 A 
ATOM     11  C   UNL     1       2.975   3.115  16.856  0.00  0.00    +0.000 C 
ENDBRANCH   1   2
BRANCH   1  12
ATOM     12  N   UNL     1       1.718   2.668  20.336  0.00  0.00    +0.000 NA
ATOM     13  H   UNL     1       0.997   2.018  20.647  0.00  0.00    +0.000 HD
BRANCH  12  14
ATOM     14  C   UNL     1       1.678   3.813  21.245  0.00  0.00    +0.000 C 
BRANCH  14  15
ATOM     15  C   UNL     1       1.513   5.048  20.415  0.00  0.00    +0.000 C 
ATOM     16  C   UNL     1       2.194   6.192  20.591  0.00  0.00    +0.000 C 
BRANCH  16  17
ATOM     17  C   UNL     1       2.003   7.302  19.718  0.00  0.00    +0.000 A 
ATOM     18  C   UNL     1       2.260   7.392  18.355  0.00  0.00    +0.000 A 
ATOM     19  C   UNL     1       1.899   8.692  17.924  0.00  0.00    +0.000 A 
ATOM     20  C   UNL     1       1.436   9.340  19.039  0.00  0.00    +0.000 A 
ATOM     21  O   UNL     1       1.495   8.523  20.117  0.00  0.00    +0.000 OA
ENDBRANCH  16  17
ENDBRANCH  14  15
ENDBRANCH  12  14
ENDBRANCH   1  12
TORSDOF 5
ENDMDL
MODEL 3
REMARK VINA RESULT:      -7.4      0.861      1.022
REMARK  Name = 
REMARK  5 active torsions:
REMARK  status: ('A' for Active; 'I' for Inactive)
REMARK    1  A    between atoms: C_1  and  C_8
REMARK    2  A    between atoms: C_2  and  C_3
REMARK    3  A    between atoms: C_8  and  N_9
REMARK    4  A    between atoms: N_9  and  C_10
REMARK    5  A    between atoms: C_10  and  C_11
REMARK                            x       y       z     vdW  Elec       q    Type
REMARK                         _______ _______ _______ _____ _____    ______ ____
ROOT
ATOM      1  C   UNL     1       5.356   4.834  19.249  0.00  0.00    +0.000 C 
ENDROOT
BRANCH   1   2
ATOM      2  C   UNL     1       4.368   5.620  18.348  0.00  0.00    +0.000 C 
ATOM      3  C   UNL     1       3.473   6.543  19.181  0.00  0.00    +0.000 C 
ATOM      4  O   UNL     1       2.659   5.837  20.124  0.00  0.00    +0.000 OA
ATOM      5  C   UNL     1       2.066   4.697  19.647  0.00  0.00    +0.000 A 
ATOM      6  C   UNL     1       1.156   4.076  20.503  0.00  0.00    +0.000 A 
ATOM      7  C   UNL     1       0.540   2.883  20.123  0.00  0.00    +0.000 A 
ATOM      8  C   UNL     1       0.816   2.323  18.877  0.00  0.00    +0.000 A 
ATOM      9  C   UNL     1       1.728   2.940  18.021  0.00  0.00    +0.000 A 
ATOM     10  C   UNL     1       2.384   4.114  18.415  0.00  0.00    +0.000 A 
ATOM     11  C   UNL     1       3.426   4.732  17.528  0.00  0.00    +0.000 C 
ENDBRANCH   1   2
BRANCH   1  12
ATOM     12  N   UNL     1       6.394   4.183  18.444  0.00  0.00    +0.000 NA
ATOM     13  H   UNL     1       6.930   3.553  19.039  0.00  0.00    +0.000 HD
BRANCH  12  14
ATOM     14  C   UNL     1       7.343   5.142  17.879  0.00  0.00    +0.000 C 
BRANCH  14  15
ATOM     15  C   UNL     1       7.428   4.886  16.406  0.00  0.00    +0.000 C 
ATOM     16  C   UNL     1       6.420   4.434  15.642  0.00  0.00    +0.000 C 
BRANCH  16  17
ATOM     17  C   UNL     1       6.583   4.266  14.237  0.00  0.00    +0.000 A 
ATOM     18  C   UNL     1       7.473   4.904  13.380  0.00  0.00    +0.000 A 
ATOM     19  C   UNL     1       7.268   4.397  12.074  0.00  0.00    +0.000 A 
ATOM     20  C   UNL     1       6.263   3.471  12.187  0.00  0.00    +0.000 A 
ATOM     21  O   UNL     1       5.844   3.385  13.472  0.00  0.00    +0.000 OA
ENDBRANCH  16  17
ENDBRANCH  14  15
ENDBRANCH  12  14
ENDBRANCH   1  12
TORSDOF 5
ENDMDL
MODEL 4
REMARK VINA RESULT:      -7.4      3.530      4.644
REMARK  Name = 
REMARK  5 active torsions:
REMARK  status: ('A' for Active; 'I' for Inactive)
REMARK    1  A    between atoms: C_1  and  C_8
REMARK    2  A    between atoms: C_2  and  C_3
REMARK    3  A    between atoms: C_8  and  N_9
REMARK    4  A    between atoms: N_9  and  C_10
REMARK    5  A    between atoms: C_10  and  C_11
REMARK                            x       y       z     vdW  Elec       q    Type
REMARK                         _______ _______ _______ _____ _____    ______ ____
ROOT
ATOM      1  C   UNL     1       5.685   4.764  18.931  0.00  0.00    +0.000 C 
ENDROOT
BRANCH   1   2
ATOM      2  C   UNL     1       4.784   5.304  17.790  0.00  0.00    +0.000 C 
ATOM      3  C   UNL     1       3.851   6.407  18.297  0.00  0.00    +0.000 C 
ATOM      4  O   UNL     1       2.953   5.960  19.320  0.00  0.00    +0.000 OA
ATOM      5  C   UNL     1       2.372   4.739  19.097  0.00  0.00    +0.000 A 
ATOM      6  C   UNL     1       1.389   4.353  20.007  0.00  0.00    +0.000 A 
ATOM      7  C   UNL     1       0.776   3.105  19.888  0.00  0.00    +0.000 A 
ATOM      8  C   UNL     1       1.131   2.252  18.845  0.00  0.00    +0.000 A 
ATOM      9  C   UNL     1       2.117   2.634  17.935  0.00  0.00    +0.000 A 
ATOM     10  C   UNL     1       2.767   3.867  18.076  0.00  0.00    +0.000 A 
ATOM     11  C   UNL     1       3.886   4.242  17.146  0.00  0.00    +0.000 C 
ENDBRANCH   1   2
BRANCH   1  12
ATOM     12  N   UNL     1       7.096   5.071  18.674  0.00  0.00    +0.000 NA
ATOM     13  H   UNL     1       7.499   5.502  19.505  0.00  0.00    +0.000 HD
BRANCH  12  14
ATOM     14  C   UNL     1       7.266   6.023  17.577  0.00  0.00    +0.000 C 
BRANCH  14  15
ATOM     15  C   UNL     1       7.937   7.242  18.131  0.00  0.00    +0.000 C 
ATOM     16  C   UNL     1       7.852   8.475  17.606  0.00  0.00    +0.000 C 
BRANCH  16  17
ATOM     17  C   UNL     1       8.488   9.585  18.232  0.00  0.00    +0.000 A 
ATOM     18  C   UNL     1       8.569  10.903  17.796  0.00  0.00    +0.000 A 
ATOM     19  C   UNL     1       9.293  11.643  18.762  0.00  0.00    +0.000 A 
ATOM     20  C   UNL     1       9.621  10.749  19.748  0.00  0.00    +0.000 A 
ATOM     21  O   UNL     1       9.149   9.517  19.442  0.00  0.00    +0.000 OA
ENDBRANCH  16  17
ENDBRANCH  14  15
ENDBRANCH  12  14
ENDBRANCH   1  12
TORSDOF 5
ENDMDL
MODEL 5
REMARK VINA RESULT:      -7.3      1.648      7.127
REMARK  Name = 
REMARK  5 active torsions:
REMARK  status: ('A' for Active; 'I' for Inactive)
REMARK    1  A    between atoms: C_1  and  C_8
REMARK    2  A    between atoms: C_2  and  C_3
REMARK    3  A    between atoms: C_8  and  N_9
REMARK    4  A    between atoms: N_9  and  C_10
REMARK    5  A    between atoms: C_10  and  C_11
REMARK                            x       y       z     vdW  Elec       q    Type
REMARK                         _______ _______ _______ _____ _____    ______ ____
ROOT
ATOM      1  C   UNL     1       4.900   6.489  16.291  0.00  0.00    +0.000 C 
ENDROOT
BRANCH   1   2
ATOM      2  C   UNL     1       5.581   5.163  16.717  0.00  0.00    +0.000 C 
ATOM      3  C   UNL     1       7.105   5.306  16.743  0.00  0.00    +0.000 C 
ATOM      4  O   UNL     1       7.663   5.633  15.465  0.00  0.00    +0.000 OA
ATOM      5  C   UNL     1       7.144   4.937  14.404  0.00  0.00    +0.000 A 
ATOM      6  C   UNL     1       7.772   5.136  13.175  0.00  0.00    +0.000 A 
ATOM      7  C   UNL     1       7.283   4.507  12.030  0.00  0.00    +0.000 A 
ATOM      8  C   UNL     1       6.180   3.661  12.118  0.00  0.00    +0.000 A 
ATOM      9  C   UNL     1       5.547   3.463  13.345  0.00  0.00    +0.000 A 
ATOM     10  C   UNL     1       6.007   4.127  14.490  0.00  0.00    +0.000 A 
ATOM     11  C   UNL     1       5.275   3.978  15.794  0.00  0.00    +0.000 C 
ENDBRANCH   1   2
BRANCH   1  12
ATOM     12  N   UNL     1       4.626   7.336  17.456  0.00  0.00    +0.000 NA
ATOM     13  H   UNL     1       4.963   6.866  18.295  0.00  0.00    +0.000 HD
BRANCH  12  14
ATOM     14  C   UNL     1       3.196   7.571  17.648  0.00  0.00    +0.000 C 
BRANCH  14  15
ATOM     15  C   UNL     1       2.613   6.346  18.281  0.00  0.00    +0.000 C 
ATOM     16  C   UNL     1       2.871   5.926  19.531  0.00  0.00    +0.000 C 
BRANCH  16  17
ATOM     17  C   UNL     1       2.230   4.771  20.064  0.00  0.00    +0.000 A 
ATOM     18  C   UNL     1       1.339   3.903  19.442  0.00  0.00    +0.000 A 
ATOM     19  C   UNL     1       0.982   2.897  20.372  0.00  0.00    +0.000 A 
ATOM     20  C   UNL     1       1.670   3.190  21.521  0.00  0.00    +0.000 A 
ATOM     21  O   UNL     1       2.416   4.307  21.351  0.00  0.00    +0.000 OA
ENDBRANCH  16  17
ENDBRANCH  14  15
ENDBRANCH  12  14
ENDBRANCH   1  12
TORSDOF 5
ENDMDL
MODEL 6
REMARK VINA RESULT:      -7.3      1.427      2.868
REMARK  Name = 
REMARK  5 active torsions:
REMARK  status: ('A' for Active; 'I' for Inactive)
REMARK    1  A    between atoms: C_1  and  C_8
REMARK    2  A    between atoms: C_2  and  C_3
REMARK    3  A    between atoms: C_8  and  N_9
REMARK    4  A    between atoms: N_9  and  C_10
REMARK    5  A    between atoms: C_10  and  C_11
REMARK                            x       y       z     vdW  Elec       q    Type
REMARK                         _______ _______ _______ _____ _____    ______ ____
ROOT
ATOM      1  C   UNL     1       4.442   3.178  19.742  0.00  0.00    +0.000 C 
ENDROOT
BRANCH   1   2
ATOM      2  C   UNL     1       2.936   2.968  19.437  0.00  0.00    +0.000 C 
ATOM      3  C   UNL     1       2.627   3.238  17.962  0.00  0.00    +0.000 C 
ATOM      4  O   UNL     1       2.919   4.582  17.561  0.00  0.00    +0.000 OA
ATOM      5  C   UNL     1       2.526   5.554  18.444  0.00  0.00    +0.000 A 
ATOM      6  C   UNL     1       2.669   6.871  18.009  0.00  0.00    +0.000 A 
ATOM      7  C   UNL     1       2.340   7.928  18.858  0.00  0.00    +0.000 A 
ATOM      8  C   UNL     1       1.846   7.668  20.135  0.00  0.00    +0.000 A 
ATOM      9  C   UNL     1       1.705   6.352  20.574  0.00  0.00    +0.000 A 
ATOM     10  C   UNL     1       2.075   5.287  19.742  0.00  0.00    +0.000 A 
ATOM     11  C   UNL     1       2.001   3.874  20.246  0.00  0.00    +0.000 C 
ENDBRANCH   1   2
BRANCH   1  12
ATOM     12  N   UNL     1       5.219   3.278  18.503  0.00  0.00    +0.000 NA
ATOM     13  H   UNL     1       5.856   2.485  18.445  0.00  0.00    +0.000 HD
BRANCH  12  14
ATOM     14  C   UNL     1       6.042   4.486  18.459  0.00  0.00    +0.000 C 
BRANCH  14  15
ATOM     15  C   UNL     1       6.571   4.627  17.066  0.00  0.00    +0.000 C 
ATOM     16  C   UNL     1       5.974   4.149  15.962  0.00  0.00    +0.000 C 
BRANCH  16  17
ATOM     17  C   UNL     1       6.531   4.375  14.670  0.00  0.00    +0.000 A 
ATOM     18  C   UNL     1       6.195   3.778  13.460  0.00  0.00    +0.000 A 
ATOM     19  C   UNL     1       7.017   4.335  12.450  0.00  0.00    +0.000 A 
ATOM     20  C   UNL     1       7.818   5.249  13.084  0.00  0.00    +0.000 A 
ATOM     21  O   UNL     1       7.540   5.280  14.409  0.00  0.00    +0.000 OA
ENDBRANCH  16  17
ENDBRANCH  14  15
ENDBRANCH  12  14
ENDBRANCH   1  12
TORSDOF 5
ENDMDL
MODEL 7
REMARK VINA RESULT:      -7.2      1.688      2.334
REMARK  Name = 
REMARK  5 active torsions:
REMARK  status: ('A' for Active; 'I' for Inactive)
REMARK    1  A    between atoms: C_1  and  C_8
REMARK    2  A    between atoms: C_2  and  C_3
REMARK    3  A    between atoms: C_8  and  N_9
REMARK    4  A    between atoms: N_9  and  C_10
REMARK    5  A    between atoms: C_10  and  C_11
REMARK                            x       y       z     vdW  Elec       q    Type
REMARK                         _______ _______ _______ _____ _____    ______ ____
ROOT
ATOM      1  C   UNL     1       4.867   5.830  16.458  0.00  0.00    +0.000 C 
ENDROOT
BRANCH   1   2
ATOM      2  C   UNL     1       4.360   6.331  17.834  0.00  0.00    +0.000 C 
ATOM      3  C   UNL     1       5.165   5.711  18.980  0.00  0.00    +0.000 C 
ATOM      4  O   UNL     1       5.069   4.283  19.030  0.00  0.00    +0.000 OA
ATOM      5  C   UNL     1       3.811   3.774  18.836  0.00  0.00    +0.000 A 
ATOM      6  C   UNL     1       3.672   2.399  19.024  0.00  0.00    +0.000 A 
ATOM      7  C   UNL     1       2.439   1.784  18.803  0.00  0.00    +0.000 A 
ATOM      8  C   UNL     1       1.340   2.548  18.416  0.00  0.00    +0.000 A 
ATOM      9  C   UNL     1       1.477   3.922  18.225  0.00  0.00    +0.000 A 
ATOM     10  C   UNL     1       2.723   4.539  18.402  0.00  0.00    +0.000 A 
ATOM     11  C   UNL     1       2.888   6.004  18.116  0.00  0.00    +0.000 C 
ENDBRANCH   1   2
BRANCH   1  12
ATOM     12  N   UNL     1       6.308   6.062  16.314  0.00  0.00    +0.000 NA
ATOM     13  H   UNL     1       6.466   6.701  15.537  0.00  0.00    +0.000 HD
BRANCH  12  14
ATOM     14  C   UNL     1       7.041   4.834  16.010  0.00  0.00    +0.000 C 
BRANCH  14  15
ATOM     15  C   UNL     1       6.320   4.136  14.899  0.00  0.00    +0.000 C 
ATOM     16  C   UNL     1       6.663   4.193  13.601  0.00  0.00    +0.000 C 
BRANCH  16  17
ATOM     17  C   UNL     1       5.943   3.454  12.619  0.00  0.00    +0.000 A 
ATOM     18  C   UNL     1       4.661   3.677  12.127  0.00  0.00    +0.000 A 
ATOM     19  C   UNL     1       4.384   2.685  11.155  0.00  0.00    +0.000 A 
ATOM     20  C   UNL     1       5.507   1.901  11.092  0.00  0.00    +0.000 A 
ATOM     21  O   UNL     1       6.443   2.347  11.962  0.00  0.00    +0.000 OA
ENDBRANCH  16  17
ENDBRANCH  14  15
ENDBRANCH  12  14
ENDBRANCH   1  12
TORSDOF 5
ENDMDL
MODEL 8
REMARK VINA RESULT:      -7.2      2.435      4.880
REMARK  Name = 
REMARK  5 active torsions:
REMARK  status: ('A' for Active; 'I' for Inactive)
REMARK    1  A    between atoms: C_1  and  C_8
REMARK    2  A    between atoms: C_2  and  C_3
REMARK    3  A    between atoms: C_8  and  N_9
REMARK    4  A    between atoms: N_9  and  C_10
REMARK    5  A    between atoms: C_10  and  C_11
REMARK                            x       y       z     vdW  Elec       q    Type
REMARK                         _______ _______ _______ _____ _____    ______ ____
ROOT
ATOM      1  C   UNL     1       7.414   4.570  17.111  0.00  0.00    +0.000 C 
ENDROOT
BRANCH   1   2
ATOM      2  C   UNL     1       7.614   5.897  17.888  0.00  0.00    +0.000 C 
ATOM      3  C   UNL     1       7.490   5.678  19.398  0.00  0.00    +0.000 C 
ATOM      4  O   UNL     1       6.203   5.190  19.793  0.00  0.00    +0.000 OA
ATOM      5  C   UNL     1       5.134   5.796  19.184  0.00  0.00    +0.000 A 
ATOM      6  C   UNL     1       3.874   5.436  19.660  0.00  0.00    +0.000 A 
ATOM      7  C   UNL     1       2.726   5.966  19.069  0.00  0.00    +0.000 A 
ATOM      8  C   UNL     1       2.840   6.873  18.017  0.00  0.00    +0.000 A 
ATOM      9  C   UNL     1       4.099   7.231  17.537  0.00  0.00    +0.000 A 
ATOM     10  C   UNL     1       5.254   6.669  18.098  0.00  0.00    +0.000 A 
ATOM     11  C   UNL     1       6.605   6.992  17.526  0.00  0.00    +0.000 C 
ENDBRANCH   1   2
BRANCH   1  12
ATOM     12  N   UNL     1       7.212   4.825  15.681  0.00  0.00    +0.000 NA
ATOM     13  H   UNL     1       6.928   5.795  15.553  0.00  0.00    +0.000 HD
BRANCH  12  14
ATOM     14  C   UNL     1       6.150   3.995  15.113  0.00  0.00    +0.000 C 
BRANCH  14  15
ATOM     15  C   UNL     1       5.227   3.611  16.228  0.00  0.00    +0.000 C 
ATOM     16  C   UNL     1       3.923   3.324  16.085  0.00  0.00    +0.000 C 
BRANCH  16  17
ATOM     17  C   UNL     1       3.133   2.921  17.199  0.00  0.00    +0.000 A 
ATOM     18  C   UNL     1       3.491   2.116  18.275  0.00  0.00    +0.000 A 
ATOM     19  C   UNL     1       2.373   2.007  19.136  0.00  0.00    +0.000 A 
ATOM     20  C   UNL     1       1.380   2.751  18.554  0.00  0.00    +0.000 A 
ATOM     21  O   UNL     1       1.820   3.299  17.396  0.00  0.00    +0.000 OA
ENDBRANCH  16  17
ENDBRANCH  14  15
ENDBRANCH  12  14
ENDBRANCH   1  12
TORSDOF 5
ENDMDL
MODEL 9
REMARK VINA RESULT:      -7.1      3.838      5.032
REMARK  Name = 
REMARK  5 active torsions:
REMARK  status: ('A' for Active; 'I' for Inactive)
REMARK    1  A    between atoms: C_1  and  C_8
REMARK    2  A    between atoms: C_2  and  C_3
REMARK    3  A    between atoms: C_8  and  N_9
REMARK    4  A    between atoms: N_9  and  C_10
REMARK    5  A    between atoms: C_10  and  C_11
REMARK                            x       y       z     vdW  Elec       q    Type
REMARK                         _______ _______ _______ _____ _____    ______ ____
ROOT
ATOM      1  C   UNL     1       4.975   5.780  18.226  0.00  0.00    +0.000 C 
ENDROOT
BRANCH   1   2
ATOM      2  C   UNL     1       5.210   4.260  18.030  0.00  0.00    +0.000 C 
ATOM      3  C   UNL     1       4.292   3.694  16.943  0.00  0.00    +0.000 C 
ATOM      4  O   UNL     1       2.900   3.833  17.250  0.00  0.00    +0.000 OA
ATOM      5  C   UNL     1       2.554   3.535  18.543  0.00  0.00    +0.000 A 
ATOM      6  C   UNL     1       1.188   3.524  18.824  0.00  0.00    +0.000 A 
ATOM      7  C   UNL     1       0.743   3.278  20.123  0.00  0.00    +0.000 A 
ATOM      8  C   UNL     1       1.663   3.021  21.137  0.00  0.00    +0.000 A 
ATOM      9  C   UNL     1       3.030   3.034  20.860  0.00  0.00    +0.000 A 
ATOM     10  C   UNL     1       3.485   3.324  19.566  0.00  0.00    +0.000 A 
ATOM     11  C   UNL     1       4.957   3.420  19.287  0.00  0.00    +0.000 C 
ENDBRANCH   1   2
BRANCH   1  12
ATOM     12  N   UNL     1       5.997   6.563  17.525  0.00  0.00    +0.000 NA
ATOM     13  H   UNL     1       5.909   6.404  16.523  0.00  0.00    +0.000 HD
BRANCH  12  14
ATOM     14  C   UNL     1       7.354   6.167  17.900  0.00  0.00    +0.000 C 
BRANCH  14  15
ATOM     15  C   UNL     1       8.069   7.391  18.385  0.00  0.00    +0.000 C 
ATOM     16  C   UNL     1       8.002   8.602  17.810  0.00  0.00    +0.000 C 
BRANCH  16  17
ATOM     17  C   UNL     1       8.681   9.721  18.373  0.00  0.00    +0.000 A 
ATOM     18  C   UNL     1       8.897  10.978  17.820  0.00  0.00    +0.000 A 
ATOM     19  C   UNL     1       9.610  11.758  18.762  0.00  0.00    +0.000 A 
ATOM     20  C   UNL     1       9.797  10.947  19.852  0.00  0.00    +0.000 A 
ATOM     21  O   UNL     1       9.249   9.729  19.632  0.00  0.00    +0.000 OA
ENDBRANCH  16  17
ENDBRANCH  14  15
ENDBRANCH  12  14
ENDBRANCH   1  12
TORSDOF 5
ENDMDL
