MODEL 1
REMARK VINA RESULT:      -6.8      0.000      0.000
REMARK  Name = 
REMARK  5 active torsions:
REMARK  status: ('A' for Active; 'I' for Inactive)
REMARK    1  A    between atoms: C_1  and  C_2
REMARK    2  A    between atoms: C_4  and  O_5
REMARK    3  A    between atoms: C_4  and  C_6
REMARK    4  A    between atoms: C_6  and  C_7
REMARK    5  A    between atoms: C_7  and  O_9
REMARK                            x       y       z     vdW  Elec       q    Type
REMARK                         _______ _______ _______ _____ _____    ______ ____
ROOT
ATOM      1  C   UNL     1       2.178   8.696  18.600  0.00  0.00    +0.000 C 
ATOM      2  C   UNL     1       2.459   7.280  18.112  0.00  0.00    +0.000 C 
ATOM      3  C   UNL     1       2.611   6.321  19.278  0.00  0.00    +0.000 C 
ATOM      4  C   UNL     1       2.771   4.882  18.751  0.00  0.00    +0.000 C 
ATOM      5  C   UNL     1       3.830   4.870  17.651  0.00  0.00    +0.000 A 
ATOM      6  C   UNL     1       4.476   3.696  17.198  0.00  0.00    +0.000 A 
ATOM      7 CL   UNL     1       4.096   2.113  17.788  0.00  0.00    +0.000 Cl
ATOM      8  C   UNL     1       5.465   3.747  16.206  0.00  0.00    +0.000 A 
ATOM      9  C   UNL     1       5.827   4.965  15.649  0.00  0.00    +0.000 A 
ATOM     10 CL   UNL     1       7.046   5.025  14.438  0.00  0.00    +0.000 Cl
ATOM     11  C   UNL     1       5.199   6.133  16.059  0.00  0.00    +0.000 A 
ATOM     12  C   UNL     1       4.201   6.085  17.036  0.00  0.00    +0.000 A 
ATOM     13  O   UNL     1       3.659   7.309  17.339  0.00  0.00    +0.000 OA
ENDROOT
BRANCH   4  14
ATOM     14  O   UNL     1       3.251   4.105  19.851  0.00  0.00    +0.000 OA
ATOM     15  H   UNL     1       3.144   4.639  20.667  0.00  0.00    +0.000 HD
ENDBRANCH   4  14
BRANCH   4  16
ATOM     16  C   UNL     1       1.446   4.292  18.205  0.00  0.00    +0.000 C 
BRANCH  16  17
ATOM     17  C   UNL     1       0.918   3.181  19.075  0.00  0.00    +0.000 C 
ATOM     18  O   UNL     1       0.892   2.005  18.742  0.00  0.00    +0.000 OA
BRANCH  17  19
ATOM     19  O   UNL     1       0.448   3.603  20.268  0.00  0.00    +0.000 OA
ATOM     20  H   UNL     1      -0.119   2.965  20.740  0.00  0.00    +0.000 HD
ENDBRANCH  17  19
ENDBRANCH  16  17
ENDBRANCH   4  16
TORSDOF 4
ENDMDL
MODEL 2
REMARK VINA RESULT:      -6.7      2.710      4.237
REMARK  Name = 
REMARK  5 active torsions:
REMARK  status: ('A' for Active; 'I' for Inactive)
REMARK    1  A    between atoms: C_1  and  C_2
REMARK    2  A    between atoms: C_4  and  O_5
REMARK    3  A    between atoms: C_4  and  C_6
REMARK    4  A    between atoms: C_6  and  C_7
REMARK    5  A    between atoms: C_7  and  O_9
REMARK                            x       y       z     vdW  Elec       q    Type
REMARK                         _______ _______ _______ _____ _____    ______ ____
ROOT
ATOM      1  C   UNL     1       5.934   4.094  15.314  0.00  0.00    +0.000 C 
ATOM      2  C   UNL     1       5.281   4.533  16.620  0.00  0.00    +0.000 C 
ATOM      3  C   UNL     1       4.249   3.520  17.082  0.00  0.00    +0.000 C 
ATOM      4  C   UNL     1       3.699   3.929  18.462  0.00  0.00    +0.000 C 
ATOM      5  C   UNL     1       3.310   5.405  18.423  0.00  0.00    +0.000 A 
ATOM      6  C   UNL     1       2.462   6.016  19.375  0.00  0.00    +0.000 A 
ATOM      7 CL   UNL     1       1.813   5.181  20.747  0.00  0.00    +0.000 Cl
ATOM      8  C   UNL     1       2.111   7.370  19.275  0.00  0.00    +0.000 A 
ATOM      9  C   UNL     1       2.598   8.136  18.225  0.00  0.00    +0.000 A 
ATOM     10 CL   UNL     1       2.160   9.794  18.101  0.00  0.00    +0.000 Cl
ATOM     11  C   UNL     1       3.447   7.570  17.285  0.00  0.00    +0.000 A 
ATOM     12  C   UNL     1       3.812   6.226  17.391  0.00  0.00    +0.000 A 
ATOM     13  O   UNL     1       4.662   5.800  16.401  0.00  0.00    +0.000 OA
ENDROOT
BRANCH   4  14
ATOM     14  O   UNL     1       2.517   3.153  18.665  0.00  0.00    +0.000 OA
ATOM     15  H   UNL     1       2.671   2.261  18.288  0.00  0.00    +0.000 HD
ENDBRANCH   4  14
BRANCH   4  16
ATOM     16  C   UNL     1       4.714   3.687  19.607  0.00  0.00    +0.000 C 
BRANCH  16  17
ATOM     17  C   UNL     1       4.413   2.425  20.374  0.00  0.00    +0.000 C 
ATOM     18  O   UNL     1       3.553   2.338  21.238  0.00  0.00    +0.000 OA
BRANCH  17  19
ATOM     19  O   UNL     1       5.205   1.385  20.036  0.00  0.00    +0.000 OA
ATOM     20  H   UNL     1       6.003   1.275  20.586  0.00  0.00    +0.000 HD
ENDBRANCH  17  19
ENDBRANCH  16  17
ENDBRANCH   4  16
TORSDOF 4
ENDMDL
MODEL 3
REMARK VINA RESULT:      -6.5      2.740      4.417
REMARK  Name = 
REMARK  5 active torsions:
REMARK  status: ('A' for Active; 'I' for Inactive)
REMARK    1  A    between atoms: C_1  and  C_2
REMARK    2  A    between atoms: C_4  and  O_5
REMARK    3  A    between atoms: C_4  and  C_6
REMARK    4  A    between atoms: C_6  and  C_7
REMARK    5  A    between atoms: C_7  and  O_9
REMARK                            x       y       z     vdW  Elec       q    Type
REMARK                         _______ _______ _______ _____ _____    ______ ____
ROOT
ATOM      1  C   UNL     1       5.447   5.424  15.398  0.00  0.00    +0.000 C 
ATOM      2  C   UNL     1       4.874   5.341  16.808  0.00  0.00    +0.000 C 
ATOM      3  C   UNL     1       4.045   4.082  16.988  0.00  0.00    +0.000 C 
ATOM      4  C   UNL     1       3.585   3.966  18.454  0.00  0.00    +0.000 C 
ATOM      5  C   UNL     1       2.992   5.303  18.895  0.00  0.00    +0.000 A 
ATOM      6  C   UNL     1       2.167   5.455  20.034  0.00  0.00    +0.000 A 
ATOM      7 CL   UNL     1       1.782   4.156  21.111  0.00  0.00    +0.000 Cl
ATOM      8  C   UNL     1       1.624   6.702  20.376  0.00  0.00    +0.000 A 
ATOM      9  C   UNL     1       1.890   7.814  19.591  0.00  0.00    +0.000 A 
ATOM     10 CL   UNL     1       1.216   9.339  20.010  0.00  0.00    +0.000 Cl
ATOM     11  C   UNL     1       2.711   7.701  18.478  0.00  0.00    +0.000 A 
ATOM     12  C   UNL     1       3.269   6.464  18.143  0.00  0.00    +0.000 A 
ATOM     13  O   UNL     1       4.066   6.497  17.026  0.00  0.00    +0.000 OA
ENDROOT
BRANCH   4  14
ATOM     14  O   UNL     1       2.548   2.983  18.470  0.00  0.00    +0.000 OA
ATOM     15  H   UNL     1       2.172   2.925  17.567  0.00  0.00    +0.000 HD
ENDBRANCH   4  14
BRANCH   4  16
ATOM     16  C   UNL     1       4.733   3.564  19.413  0.00  0.00    +0.000 C 
BRANCH  16  17
ATOM     17  C   UNL     1       4.535   2.185  19.989  0.00  0.00    +0.000 C 
ATOM     18  O   UNL     1       4.395   1.955  21.181  0.00  0.00    +0.000 OA
BRANCH  17  19
ATOM     19  O   UNL     1       4.546   1.204  19.061  0.00  0.00    +0.000 OA
ATOM     20  H   UNL     1       4.435   1.504  18.139  0.00  0.00    +0.000 HD
ENDBRANCH  17  19
ENDBRANCH  16  17
ENDBRANCH   4  16
TORSDOF 4
ENDMDL
MODEL 4
REMARK VINA RESULT:      -6.4      2.279      3.316
REMARK  Name = 
REMARK  5 active torsions:
REMARK  status: ('A' for Active; 'I' for Inactive)
REMARK    1  A    between atoms: C_1  and  C_2
REMARK    2  A    between atoms: C_4  and  O_5
REMARK    3  A    between atoms: C_4  and  C_6
REMARK    4  A    between atoms: C_6  and  C_7
REMARK    5  A    between atoms: C_7  and  O_9
REMARK                            x       y       z     vdW  Elec       q    Type
REMARK                         _______ _______ _______ _____ _____    ______ ____
ROOT
ATOM      1  C   UNL     1       8.235   8.155  18.012  0.00  0.00    +0.000 C 
ATOM      2  C   UNL     1       7.152   7.175  17.578  0.00  0.00    +0.000 C 
ATOM      3  C   UNL     1       6.956   6.084  18.615  0.00  0.00    +0.000 C 
ATOM      4  C   UNL     1       5.774   5.184  18.206  0.00  0.00    +0.000 C 
ATOM      5  C   UNL     1       5.939   4.780  16.742  0.00  0.00    +0.000 A 
ATOM      6  C   UNL     1       5.252   3.699  16.146  0.00  0.00    +0.000 A 
ATOM      7 CL   UNL     1       4.081   2.736  16.984  0.00  0.00    +0.000 Cl
ATOM      8  C   UNL     1       5.465   3.353  14.804  0.00  0.00    +0.000 A 
ATOM      9  C   UNL     1       6.366   4.076  14.036  0.00  0.00    +0.000 A 
ATOM     10 CL   UNL     1       6.630   3.644  12.393  0.00  0.00    +0.000 Cl
ATOM     11  C   UNL     1       7.043   5.155  14.587  0.00  0.00    +0.000 A 
ATOM     12  C   UNL     1       6.820   5.514  15.919  0.00  0.00    +0.000 A 
ATOM     13  O   UNL     1       7.547   6.603  16.331  0.00  0.00    +0.000 OA
ENDROOT
BRANCH   4  14
ATOM     14  O   UNL     1       5.871   4.008  19.014  0.00  0.00    +0.000 OA
ATOM     15  H   UNL     1       5.795   4.279  19.953  0.00  0.00    +0.000 HD
ENDBRANCH   4  14
BRANCH   4  16
ATOM     16  C   UNL     1       4.399   5.870  18.406  0.00  0.00    +0.000 C 
BRANCH  16  17
ATOM     17  C   UNL     1       3.652   5.311  19.589  0.00  0.00    +0.000 C 
ATOM     18  O   UNL     1       3.577   4.120  19.850  0.00  0.00    +0.000 OA
BRANCH  17  19
ATOM     19  O   UNL     1       3.041   6.254  20.338  0.00  0.00    +0.000 OA
ATOM     20  H   UNL     1       2.130   6.474  20.066  0.00  0.00    +0.000 HD
ENDBRANCH  17  19
ENDBRANCH  16  17
ENDBRANCH   4  16
TORSDOF 4
ENDMDL
MODEL 5
REMARK VINA RESULT:      -6.3      2.529      3.703
REMARK  Name = 
REMARK  5 active torsions:
REMARK  status: ('A' for Active; 'I' for Inactive)
REMARK    1  A    between atoms: C_1  and  C_2
REMARK    2  A    between atoms: C_4  and  O_5
REMARK    3  A    between atoms: C_4  and  C_6
REMARK    4  A    between atoms: C_6  and  C_7
REMARK    5  A    between atoms: C_7  and  O_9
REMARK                            x       y       z     vdW  Elec       q    Type
REMARK                         _______ _______ _______ _____ _____    ______ ____
ROOT
ATOM      1  C   UNL     1       4.923   1.181  20.220  0.00  0.00    +0.000 C 
ATOM      2  C   UNL     1       4.492   2.618  19.949  0.00  0.00    +0.000 C 
ATOM      3  C   UNL     1       3.241   2.660  19.090  0.00  0.00    +0.000 C 
ATOM      4  C   UNL     1       2.763   4.117  18.939  0.00  0.00    +0.000 C 
ATOM      5  C   UNL     1       3.952   4.992  18.545  0.00  0.00    +0.000 A 
ATOM      6  C   UNL     1       3.821   6.285  17.988  0.00  0.00    +0.000 A 
ATOM      7 CL   UNL     1       2.296   7.068  17.746  0.00  0.00    +0.000 Cl
ATOM      8  C   UNL     1       4.947   7.033  17.616  0.00  0.00    +0.000 A 
ATOM      9  C   UNL     1       6.219   6.507  17.791  0.00  0.00    +0.000 A 
ATOM     10 CL   UNL     1       7.596   7.424  17.326  0.00  0.00    +0.000 Cl
ATOM     11  C   UNL     1       6.380   5.247  18.351  0.00  0.00    +0.000 A 
ATOM     12  C   UNL     1       5.262   4.505  18.739  0.00  0.00    +0.000 A 
ATOM     13  O   UNL     1       5.566   3.284  19.287  0.00  0.00    +0.000 OA
ENDROOT
BRANCH   4  14
ATOM     14  O   UNL     1       1.823   4.118  17.862  0.00  0.00    +0.000 OA
ATOM     15  H   UNL     1       1.185   4.846  18.017  0.00  0.00    +0.000 HD
ENDBRANCH   4  14
BRANCH   4  16
ATOM     16  C   UNL     1       2.112   4.672  20.231  0.00  0.00    +0.000 C 
BRANCH  16  17
ATOM     17  C   UNL     1       1.353   3.611  20.984  0.00  0.00    +0.000 C 
ATOM     18  O   UNL     1       1.699   3.159  22.066  0.00  0.00    +0.000 OA
BRANCH  17  19
ATOM     19  O   UNL     1       0.247   3.177  20.342  0.00  0.00    +0.000 OA
ATOM     20  H   UNL     1       0.092   3.579  19.467  0.00  0.00    +0.000 HD
ENDBRANCH  17  19
ENDBRANCH  16  17
ENDBRANCH   4  16
TORSDOF 4
ENDMDL
MODEL 6
REMARK VINA RESULT:      -6.2      2.561      3.961
REMARK  Name = 
REMARK  5 active torsions:
REMARK  status: ('A' for Active; 'I' for Inactive)
REMARK    1  A    between atoms: C_1  and  C_2
REMARK    2  A    between atoms: C_4  and  O_5
REMARK    3  A    between atoms: C_4  and  C_6
REMARK    4  A    between atoms: C_6  and  C_7
REMARK    5  A    between atoms: C_7  and  O_9
REMARK                            x       y       z     vdW  Elec       q    Type
REMARK                         _______ _______ _______ _____ _____    ______ ____
ROOT
ATOM      1  C   UNL     1       1.883   3.249  21.668  0.00  0.00    +0.000 C 
ATOM      2  C   UNL     1       2.354   3.794  20.325  0.00  0.00    +0.000 C 
ATOM      3  C   UNL     1       3.827   3.504  20.105  0.00  0.00    +0.000 C 
ATOM      4  C   UNL     1       4.241   3.957  18.691  0.00  0.00    +0.000 C 
ATOM      5  C   UNL     1       3.731   5.377  18.456  0.00  0.00    +0.000 A 
ATOM      6  C   UNL     1       4.217   6.223  17.432  0.00  0.00    +0.000 A 
ATOM      7 CL   UNL     1       5.405   5.730  16.272  0.00  0.00    +0.000 Cl
ATOM      8  C   UNL     1       3.735   7.531  17.280  0.00  0.00    +0.000 A 
ATOM      9  C   UNL     1       2.764   8.017  18.143  0.00  0.00    +0.000 A 
ATOM     10 CL   UNL     1       2.181   9.624  17.958  0.00  0.00    +0.000 Cl
ATOM     11  C   UNL     1       2.254   7.205  19.146  0.00  0.00    +0.000 A 
ATOM     12  C   UNL     1       2.719   5.895  19.291  0.00  0.00    +0.000 A 
ATOM     13  O   UNL     1       2.123   5.203  20.315  0.00  0.00    +0.000 OA
ENDROOT
BRANCH   4  14
ATOM     14  O   UNL     1       5.670   3.980  18.683  0.00  0.00    +0.000 OA
ATOM     15  H   UNL     1       5.978   3.989  19.614  0.00  0.00    +0.000 HD
ENDBRANCH   4  14
BRANCH   4  16
ATOM     16  C   UNL     1       3.705   3.019  17.580  0.00  0.00    +0.000 C 
BRANCH  16  17
ATOM     17  C   UNL     1       3.277   1.681  18.124  0.00  0.00    +0.000 C 
ATOM     18  O   UNL     1       4.053   0.817  18.504  0.00  0.00    +0.000 OA
BRANCH  17  19
ATOM     19  O   UNL     1       1.938   1.505  18.137  0.00  0.00    +0.000 OA
ATOM     20  H   UNL     1       1.565   1.220  18.992  0.00  0.00    +0.000 HD
ENDBRANCH  17  19
ENDBRANCH  16  17
ENDBRANCH   4  16
TORSDOF 4
ENDMDL
MODEL 7
REMARK VINA RESULT:      -6.2      2.166      4.803
REMARK  Name = 
REMARK  5 active torsions:
REMARK  status: ('A' for Active; 'I' for Inactive)
REMARK    1  A    between atoms: C_1  and  C_2
REMARK    2  A    between atoms: C_4  and  O_5
REMARK    3  A    between atoms: C_4  and  C_6
REMARK    4  A    between atoms: C_6  and  C_7
REMARK    5  A    between atoms: C_7  and  O_9
REMARK                            x       y       z     vdW  Elec       q    Type
REMARK                         _______ _______ _______ _____ _____    ______ ____
ROOT
ATOM      1  C   UNL     1       2.239   9.079  18.190  0.00  0.00    +0.000 C 
ATOM      2  C   UNL     1       3.010   7.765  18.148  0.00  0.00    +0.000 C 
ATOM      3  C   UNL     1       3.788   7.630  16.852  0.00  0.00    +0.000 C 
ATOM      4  C   UNL     1       4.652   6.355  16.893  0.00  0.00    +0.000 C 
ATOM      5  C   UNL     1       3.785   5.184  17.352  0.00  0.00    +0.000 A 
ATOM      6  C   UNL     1       4.142   3.828  17.171  0.00  0.00    +0.000 A 
ATOM      7 CL   UNL     1       5.642   3.324  16.466  0.00  0.00    +0.000 Cl
ATOM      8  C   UNL     1       3.294   2.791  17.585  0.00  0.00    +0.000 A 
ATOM      9  C   UNL     1       2.078   3.086  18.184  0.00  0.00    +0.000 A 
ATOM     10 CL   UNL     1       1.037   1.812  18.683  0.00  0.00    +0.000 Cl
ATOM     11  C   UNL     1       1.707   4.407  18.392  0.00  0.00    +0.000 A 
ATOM     12  C   UNL     1       2.557   5.444  17.997  0.00  0.00    +0.000 A 
ATOM     13  O   UNL     1       2.071   6.697  18.271  0.00  0.00    +0.000 OA
ENDROOT
BRANCH   4  14
ATOM     14  O   UNL     1       5.068   6.111  15.548  0.00  0.00    +0.000 OA
ATOM     15  H   UNL     1       4.836   6.899  15.012  0.00  0.00    +0.000 HD
ENDBRANCH   4  14
BRANCH   4  16
ATOM     16  C   UNL     1       5.880   6.492  17.827  0.00  0.00    +0.000 C 
BRANCH  16  17
ATOM     17  C   UNL     1       7.085   7.035  17.103  0.00  0.00    +0.000 C 
ATOM     18  O   UNL     1       7.499   8.178  17.225  0.00  0.00    +0.000 OA
BRANCH  17  19
ATOM     19  O   UNL     1       7.668   6.141  16.276  0.00  0.00    +0.000 OA
ATOM     20  H   UNL     1       8.496   6.442  15.857  0.00  0.00    +0.000 HD
ENDBRANCH  17  19
ENDBRANCH  16  17
ENDBRANCH   4  16
TORSDOF 4
ENDMDL
MODEL 8
REMARK VINA RESULT:      -6.1      2.582      4.041
REMARK  Name = 
REMARK  5 active torsions:
REMARK  status: ('A' for Active; 'I' for Inactive)
REMARK    1  A    between atoms: C_1  and  C_2
REMARK    2  A    between atoms: C_4  and  O_5
REMARK    3  A    between atoms: C_4  and  C_6
REMARK    4  A    between atoms: C_6  and  C_7
REMARK    5  A    between atoms: C_7  and  O_9
REMARK                            x       y       z     vdW  Elec       q    Type
REMARK                         _______ _______ _______ _____ _____    ______ ____
ROOT
ATOM      1  C   UNL     1       7.130   4.796  15.474  0.00  0.00    +0.000 C 
ATOM      2  C   UNL     1       6.078   4.934  16.567  0.00  0.00    +0.000 C 
ATOM      3  C   UNL     1       5.050   3.821  16.480  0.00  0.00    +0.000 C 
ATOM      4  C   UNL     1       4.075   3.917  17.669  0.00  0.00    +0.000 C 
ATOM      5  C   UNL     1       3.584   5.358  17.793  0.00  0.00    +0.000 A 
ATOM      6  C   UNL     1       2.437   5.734  18.530  0.00  0.00    +0.000 A 
ATOM      7 CL   UNL     1       1.483   4.613  19.442  0.00  0.00    +0.000 Cl
ATOM      8  C   UNL     1       2.014   7.069  18.586  0.00  0.00    +0.000 A 
ATOM      9  C   UNL     1       2.723   8.051  17.908  0.00  0.00    +0.000 A 
ATOM     10 CL   UNL     1       2.197   9.686  17.972  0.00  0.00    +0.000 Cl
ATOM     11  C   UNL     1       3.864   7.717  17.191  0.00  0.00    +0.000 A 
ATOM     12  C   UNL     1       4.299   6.389  17.148  0.00  0.00    +0.000 A 
ATOM     13  O   UNL     1       5.443   6.203  16.412  0.00  0.00    +0.000 OA
ENDROOT
BRANCH   4  14
ATOM     14  O   UNL     1       2.960   3.085  17.339  0.00  0.00    +0.000 OA
ATOM     15  H   UNL     1       2.290   3.183  18.048  0.00  0.00    +0.000 HD
ENDBRANCH   4  14
BRANCH   4  16
ATOM     16  C   UNL     1       4.714   3.467  19.007  0.00  0.00    +0.000 C 
BRANCH  16  17
ATOM     17  C   UNL     1       4.055   2.231  19.563  0.00  0.00    +0.000 C 
ATOM     18  O   UNL     1       3.964   1.173  18.958  0.00  0.00    +0.000 OA
BRANCH  17  19
ATOM     19  O   UNL     1       3.543   2.401  20.801  0.00  0.00    +0.000 OA
ATOM     20  H   UNL     1       3.767   1.700  21.441  0.00  0.00    +0.000 HD
ENDBRANCH  17  19
ENDBRANCH  16  17
ENDBRANCH   4  16
TORSDOF 4
ENDMDL
MODEL 9
REMARK VINA RESULT:      -6.0      2.982      5.176
REMARK  Name = 
REMARK  5 active torsions:
REMARK  status: ('A' for Active; 'I' for Inactive)
REMARK    1  A    between atoms: C_1  and  C_2
REMARK    2  A    between atoms: C_4  and  O_5
REMARK    3  A    between atoms: C_4  and  C_6
REMARK    4  A    between atoms: C_6  and  C_7
REMARK    5  A    between atoms: C_7  and  O_9
REMARK                            x       y       z     vdW  Elec       q    Type
REMARK                         _______ _______ _______ _____ _____    ______ ____
ROOT
ATOM      1  C   UNL     1       2.631   1.883  19.013  0.00  0.00    +0.000 C 
ATOM      2  C   UNL     1       3.267   3.084  18.324  0.00  0.00    +0.000 C 
ATOM      3  C   UNL     1       4.663   3.346  18.861  0.00  0.00    +0.000 C 
ATOM      4  C   UNL     1       5.323   4.485  18.061  0.00  0.00    +0.000 C 
ATOM      5  C   UNL     1       4.345   5.654  17.962  0.00  0.00    +0.000 A 
ATOM      6  C   UNL     1       4.731   6.969  17.615  0.00  0.00    +0.000 A 
ATOM      7 CL   UNL     1       6.353   7.406  17.191  0.00  0.00    +0.000 Cl
ATOM      8  C   UNL     1       3.796   8.013  17.568  0.00  0.00    +0.000 A 
ATOM      9  C   UNL     1       2.464   7.765  17.867  0.00  0.00    +0.000 A 
ATOM     10 CL   UNL     1       1.322   9.049  17.817  0.00  0.00    +0.000 Cl
ATOM     11  C   UNL     1       2.051   6.481  18.194  0.00  0.00    +0.000 A 
ATOM     12  C   UNL     1       2.977   5.434  18.225  0.00  0.00    +0.000 A 
ATOM     13  O   UNL     1       2.432   4.218  18.552  0.00  0.00    +0.000 OA
ENDROOT
BRANCH   4  14
ATOM     14  O   UNL     1       6.456   4.904  18.825  0.00  0.00    +0.000 OA
ATOM     15  H   UNL     1       6.787   4.129  19.326  0.00  0.00    +0.000 HD
ENDBRANCH   4  14
BRANCH   4  16
ATOM     16  C   UNL     1       5.757   4.046  16.640  0.00  0.00    +0.000 C 
BRANCH  16  17
ATOM     17  C   UNL     1       7.178   4.445  16.332  0.00  0.00    +0.000 C 
ATOM     18  O   UNL     1       7.513   5.069  15.336  0.00  0.00    +0.000 OA
BRANCH  17  19
ATOM     19  O   UNL     1       8.070   4.026  17.255  0.00  0.00    +0.000 OA
ATOM     20  H   UNL     1       7.833   3.198  17.714  0.00  0.00    +0.000 HD
ENDBRANCH  17  19
ENDBRANCH  16  17
ENDBRANCH   4  16
TORSDOF 4
ENDMDL
