MODEL 1
REMARK VINA RESULT:      -8.3      0.000      0.000
REMARK  Name = 
REMARK  6 active torsions:
REMARK  status: ('A' for Active; 'I' for Inactive)
REMARK    1  A    between atoms: O_1  and  C_2
REMARK    2  A    between atoms: C_7  and  C_8
REMARK    3  A    between atoms: C_10  and  C_11
REMARK    4  A    between atoms: C_16  and  O_17
REMARK    5  A    between atoms: C_19  and  C_20
REMARK    6  A    between atoms: C_25  and  O_26
REMARK                            x       y       z     vdW  Elec       q    Type
REMARK                         _______ _______ _______ _____ _____    ______ ____
ROOT
ATOM      1  C   UNL     1       2.808   3.256  17.793  0.00  0.00    +0.000 C 
ATOM      2  S   UNL     1       2.120   4.773  17.099  0.00  0.00    +0.000 S 
ATOM      3  C   UNL     1       3.161   5.898  18.087  0.00  0.00    +0.000 C 
ATOM      4  S   UNL     1       4.610   6.242  17.097  0.00  0.00    +0.000 S 
ATOM      5  C   UNL     1       5.319   4.582  16.856  0.00  0.00    +0.000 C 
ATOM      6  S   UNL     1       4.503   2.968  17.218  0.00  0.00    +0.000 S 
ENDROOT
BRANCH   1  12
ATOM      7  C   UNL     1       3.523   2.714  20.192  0.00  0.00    +0.000 A 
ATOM      8  C   UNL     1       3.205   2.311  21.489  0.00  0.00    +0.000 A 
ATOM      9  C   UNL     1       1.901   2.424  21.952  0.00  0.00    +0.000 A 
ATOM     10  C   UNL     1       0.933   3.004  21.143  0.00  0.00    +0.000 A 
ATOM     11  C   UNL     1       1.250   3.393  19.832  0.00  0.00    +0.000 A 
ATOM     12  C   UNL     1       2.534   3.178  19.299  0.00  0.00    +0.000 A 
BRANCH   7  13
ATOM     13  O   UNL     1       4.842   2.558  19.855  0.00  0.00    +0.000 OA
ATOM     14  H   UNL     1       4.923   2.345  18.909  0.00  0.00    +0.000 HD
ENDBRANCH   7  13
ENDBRANCH   1  12
BRANCH   3  15
ATOM     15  C   UNL     1       2.453   7.156  18.558  0.00  0.00    +0.000 A 
ATOM     16  C   UNL     1       2.142   8.224  17.700  0.00  0.00    +0.000 A 
ATOM     17  C   UNL     1       1.473   9.356  18.171  0.00  0.00    +0.000 A 
ATOM     18  C   UNL     1       1.118   9.456  19.513  0.00  0.00    +0.000 A 
ATOM     19  C   UNL     1       1.434   8.425  20.392  0.00  0.00    +0.000 A 
ATOM     20  C   UNL     1       2.097   7.294  19.912  0.00  0.00    +0.000 A 
BRANCH  20  21
ATOM     21  O   UNL     1       2.414   6.288  20.787  0.00  0.00    +0.000 OA
ATOM     22  H   UNL     1       2.785   5.543  20.287  0.00  0.00    +0.000 HD
ENDBRANCH  20  21
ENDBRANCH   3  15
BRANCH   5  23
ATOM     23  C   UNL     1       5.873   4.520  15.433  0.00  0.00    +0.000 A 
ATOM     24  C   UNL     1       5.201   3.771  14.442  0.00  0.00    +0.000 A 
ATOM     25  C   UNL     1       5.689   3.703  13.137  0.00  0.00    +0.000 A 
ATOM     26  C   UNL     1       6.852   4.378  12.792  0.00  0.00    +0.000 A 
ATOM     27  C   UNL     1       7.528   5.135  13.753  0.00  0.00    +0.000 A 
ATOM     28  C   UNL     1       7.038   5.202  15.060  0.00  0.00    +0.000 A 
BRANCH  28  29
ATOM     29  O   UNL     1       7.701   5.952  15.991  0.00  0.00    +0.000 OA
ATOM     30  H   UNL     1       8.122   5.353  16.631  0.00  0.00    +0.000 HD
ENDBRANCH  28  29
ENDBRANCH   5  23
TORSDOF 6
ENDMDL
MODEL 2
REMARK VINA RESULT:      -7.8      1.017      1.379
REMARK  Name = 
REMARK  6 active torsions:
REMARK  status: ('A' for Active; 'I' for Inactive)
REMARK    1  A    between atoms: O_1  and  C_2
REMARK    2  A    between atoms: C_7  and  C_8
REMARK    3  A    between atoms: C_10  and  C_11
REMARK    4  A    between atoms: C_16  and  O_17
REMARK    5  A    between atoms: C_19  and  C_20
REMARK    6  A    between atoms: C_25  and  O_26
REMARK                            x       y       z     vdW  Elec       q    Type
REMARK                         _______ _______ _______ _____ _____    ______ ____
ROOT
ATOM      1  C   UNL     1       2.795   2.919  17.534  0.00  0.00    +0.000 C 
ATOM      2  S   UNL     1       2.160   4.518  16.988  0.00  0.00    +0.000 S 
ATOM      3  C   UNL     1       3.202   5.506  18.112  0.00  0.00    +0.000 C 
ATOM      4  S   UNL     1       4.683   5.914  17.198  0.00  0.00    +0.000 S 
ATOM      5  C   UNL     1       5.359   4.271  16.800  0.00  0.00    +0.000 C 
ATOM      6  S   UNL     1       4.497   2.649  16.971  0.00  0.00    +0.000 S 
ENDROOT
BRANCH   1  12
ATOM      7  C   UNL     1       1.150   2.712  19.486  0.00  0.00    +0.000 A 
ATOM      8  C   UNL     1       0.856   2.851  20.843  0.00  0.00    +0.000 A 
ATOM      9  C   UNL     1       1.883   2.908  21.775  0.00  0.00    +0.000 A 
ATOM     10  C   UNL     1       3.198   2.754  21.357  0.00  0.00    +0.000 A 
ATOM     11  C   UNL     1       3.495   2.631  19.991  0.00  0.00    +0.000 A 
ATOM     12  C   UNL     1       2.481   2.692  19.017  0.00  0.00    +0.000 A 
BRANCH   7  13
ATOM     13  O   UNL     1       0.053   2.663  18.668  0.00  0.00    +0.000 OA
ATOM     14  H   UNL     1      -0.730   3.000  19.136  0.00  0.00    +0.000 HD
ENDBRANCH   7  13
ENDBRANCH   1  12
BRANCH   3  15
ATOM     15  C   UNL     1       2.512   6.726  18.698  0.00  0.00    +0.000 A 
ATOM     16  C   UNL     1       2.121   7.828  17.920  0.00  0.00    +0.000 A 
ATOM     17  C   UNL     1       1.470   8.923  18.495  0.00  0.00    +0.000 A 
ATOM     18  C   UNL     1       1.216   8.950  19.863  0.00  0.00    +0.000 A 
ATOM     19  C   UNL     1       1.613   7.885  20.663  0.00  0.00    +0.000 A 
ATOM     20  C   UNL     1       2.256   6.791  20.079  0.00  0.00    +0.000 A 
BRANCH  20  21
ATOM     21  O   UNL     1       2.654   5.751  20.877  0.00  0.00    +0.000 OA
ATOM     22  H   UNL     1       2.252   5.856  21.754  0.00  0.00    +0.000 HD
ENDBRANCH  20  21
ENDBRANCH   3  15
BRANCH   5  23
ATOM     23  C   UNL     1       5.948   4.344  15.391  0.00  0.00    +0.000 A 
ATOM     24  C   UNL     1       5.351   3.621  14.335  0.00  0.00    +0.000 A 
ATOM     25  C   UNL     1       5.871   3.676  13.042  0.00  0.00    +0.000 A 
ATOM     26  C   UNL     1       6.992   4.450  12.774  0.00  0.00    +0.000 A 
ATOM     27  C   UNL     1       7.593   5.182  13.801  0.00  0.00    +0.000 A 
ATOM     28  C   UNL     1       7.071   5.127  15.096  0.00  0.00    +0.000 A 
BRANCH  28  29
ATOM     29  O   UNL     1       7.660   5.854  16.093  0.00  0.00    +0.000 OA
ATOM     30  H   UNL     1       7.585   6.799  15.876  0.00  0.00    +0.000 HD
ENDBRANCH  28  29
ENDBRANCH   5  23
TORSDOF 6
ENDMDL
MODEL 3
REMARK VINA RESULT:      -7.2      1.318      1.845
REMARK  Name = 
REMARK  6 active torsions:
REMARK  status: ('A' for Active; 'I' for Inactive)
REMARK    1  A    between atoms: O_1  and  C_2
REMARK    2  A    between atoms: C_7  and  C_8
REMARK    3  A    between atoms: C_10  and  C_11
REMARK    4  A    between atoms: C_16  and  O_17
REMARK    5  A    between atoms: C_19  and  C_20
REMARK    6  A    between atoms: C_25  and  O_26
REMARK                            x       y       z     vdW  Elec       q    Type
REMARK                         _______ _______ _______ _____ _____    ______ ____
ROOT
ATOM      1  C   UNL     1       2.790   2.926  17.711  0.00  0.00    +0.000 C 
ATOM      2  S   UNL     1       2.146   4.537  17.213  0.00  0.00    +0.000 S 
ATOM      3  C   UNL     1       3.194   5.497  18.355  0.00  0.00    +0.000 C 
ATOM      4  S   UNL     1       4.667   5.934  17.441  0.00  0.00    +0.000 S 
ATOM      5  C   UNL     1       5.345   4.304  16.994  0.00  0.00    +0.000 C 
ATOM      6  S   UNL     1       4.488   2.676  17.128  0.00  0.00    +0.000 S 
ENDROOT
BRANCH   1  12
ATOM      7  C   UNL     1       1.158   2.632  19.663  0.00  0.00    +0.000 A 
ATOM      8  C   UNL     1       0.866   2.734  21.024  0.00  0.00    +0.000 A 
ATOM      9  C   UNL     1       1.895   2.798  21.954  0.00  0.00    +0.000 A 
ATOM     10  C   UNL     1       3.212   2.687  21.528  0.00  0.00    +0.000 A 
ATOM     11  C   UNL     1       3.506   2.602  20.158  0.00  0.00    +0.000 A 
ATOM     12  C   UNL     1       2.487   2.657  19.189  0.00  0.00    +0.000 A 
BRANCH   7  13
ATOM     13  O   UNL     1       0.059   2.573  18.847  0.00  0.00    +0.000 OA
ATOM     14  H   UNL     1      -0.754   2.569  19.380  0.00  0.00    +0.000 HD
ENDBRANCH   7  13
ENDBRANCH   1  12
BRANCH   3  15
ATOM     15  C   UNL     1       2.505   6.699  18.978  0.00  0.00    +0.000 A 
ATOM     16  C   UNL     1       1.991   6.690  20.285  0.00  0.00    +0.000 A 
ATOM     17  C   UNL     1       1.380   7.824  20.828  0.00  0.00    +0.000 A 
ATOM     18  C   UNL     1       1.250   8.984  20.069  0.00  0.00    +0.000 A 
ATOM     19  C   UNL     1       1.728   9.014  18.763  0.00  0.00    +0.000 A 
ATOM     20  C   UNL     1       2.344   7.879  18.232  0.00  0.00    +0.000 A 
BRANCH  20  21
ATOM     21  O   UNL     1       2.801   7.914  16.940  0.00  0.00    +0.000 OA
ATOM     22  H   UNL     1       2.479   7.127  16.472  0.00  0.00    +0.000 HD
ENDBRANCH  20  21
ENDBRANCH   3  15
BRANCH   5  23
ATOM     23  C   UNL     1       5.922   4.417  15.583  0.00  0.00    +0.000 A 
ATOM     24  C   UNL     1       5.330   3.706  14.516  0.00  0.00    +0.000 A 
ATOM     25  C   UNL     1       5.841   3.796  13.221  0.00  0.00    +0.000 A 
ATOM     26  C   UNL     1       6.947   4.595  12.962  0.00  0.00    +0.000 A 
ATOM     27  C   UNL     1       7.543   5.315  14.001  0.00  0.00    +0.000 A 
ATOM     28  C   UNL     1       7.030   5.224  15.298  0.00  0.00    +0.000 A 
BRANCH  28  29
ATOM     29  O   UNL     1       7.614   5.939  16.306  0.00  0.00    +0.000 OA
ATOM     30  H   UNL     1       8.508   5.589  16.459  0.00  0.00    +0.000 HD
ENDBRANCH  28  29
ENDBRANCH   5  23
TORSDOF 6
ENDMDL
MODEL 4
REMARK VINA RESULT:      -7.0      8.760     10.406
REMARK  Name = 
REMARK  6 active torsions:
REMARK  status: ('A' for Active; 'I' for Inactive)
REMARK    1  A    between atoms: O_1  and  C_2
REMARK    2  A    between atoms: C_7  and  C_8
REMARK    3  A    between atoms: C_10  and  C_11
REMARK    4  A    between atoms: C_16  and  O_17
REMARK    5  A    between atoms: C_19  and  C_20
REMARK    6  A    between atoms: C_25  and  O_26
REMARK                            x       y       z     vdW  Elec       q    Type
REMARK                         _______ _______ _______ _____ _____    ______ ____
ROOT
ATOM      1  C   UNL     1       0.210  13.098  21.848  0.00  0.00    +0.000 C 
ATOM      2  S   UNL     1       0.173  11.878  20.518  0.00  0.00    +0.000 S 
ATOM      3  C   UNL     1      -1.116  12.727  19.547  0.00  0.00    +0.000 C 
ATOM      4  S   UNL     1      -0.260  13.787  18.391  0.00  0.00    +0.000 S 
ATOM      5  C   UNL     1       0.687  14.881  19.496  0.00  0.00    +0.000 C 
ATOM      6  S   UNL     1       0.965  14.654  21.305  0.00  0.00    +0.000 S 
ENDROOT
BRANCH   1  12
ATOM      7  C   UNL     1      -1.705  12.014  23.157  0.00  0.00    +0.000 A 
ATOM      8  C   UNL     1      -3.056  11.954  23.500  0.00  0.00    +0.000 A 
ATOM      9  C   UNL     1      -3.872  13.062  23.316  0.00  0.00    +0.000 A 
ATOM     10  C   UNL     1      -3.319  14.250  22.856  0.00  0.00    +0.000 A 
ATOM     11  C   UNL     1      -1.964  14.306  22.495  0.00  0.00    +0.000 A 
ATOM     12  C   UNL     1      -1.146  13.163  22.559  0.00  0.00    +0.000 A 
BRANCH   7  13
ATOM     13  O   UNL     1      -1.006  10.859  23.390  0.00  0.00    +0.000 OA
ATOM     14  H   UNL     1      -0.629  10.871  24.286  0.00  0.00    +0.000 HD
ENDBRANCH   7  13
ENDBRANCH   1  12
BRANCH   3  15
ATOM     15  C   UNL     1      -2.109  11.795  18.874  0.00  0.00    +0.000 A 
ATOM     16  C   UNL     1      -1.717  10.665  18.138  0.00  0.00    +0.000 A 
ATOM     17  C   UNL     1      -2.663   9.822  17.549  0.00  0.00    +0.000 A 
ATOM     18  C   UNL     1      -4.022  10.102  17.665  0.00  0.00    +0.000 A 
ATOM     19  C   UNL     1      -4.440  11.227  18.367  0.00  0.00    +0.000 A 
ATOM     20  C   UNL     1      -3.487  12.060  18.959  0.00  0.00    +0.000 A 
BRANCH  20  21
ATOM     21  O   UNL     1      -3.908  13.172  19.639  0.00  0.00    +0.000 OA
ATOM     22  H   UNL     1      -4.127  13.868  18.997  0.00  0.00    +0.000 HD
ENDBRANCH  20  21
ENDBRANCH   3  15
BRANCH   5  23
ATOM     23  C   UNL     1       2.045  15.135  18.840  0.00  0.00    +0.000 A 
ATOM     24  C   UNL     1       3.034  14.127  18.845  0.00  0.00    +0.000 A 
ATOM     25  C   UNL     1       4.278  14.337  18.250  0.00  0.00    +0.000 A 
ATOM     26  C   UNL     1       4.562  15.552  17.640  0.00  0.00    +0.000 A 
ATOM     27  C   UNL     1       3.594  16.559  17.613  0.00  0.00    +0.000 A 
ATOM     28  C   UNL     1       2.348  16.348  18.209  0.00  0.00    +0.000 A 
BRANCH  28  29
ATOM     29  O   UNL     1       1.405  17.336  18.170  0.00  0.00    +0.000 OA
ATOM     30  H   UNL     1       0.604  16.986  17.744  0.00  0.00    +0.000 HD
ENDBRANCH  28  29
ENDBRANCH   5  23
TORSDOF 6
ENDMDL
MODEL 5
REMARK VINA RESULT:      -6.9      0.898      1.286
REMARK  Name = 
REMARK  6 active torsions:
REMARK  status: ('A' for Active; 'I' for Inactive)
REMARK    1  A    between atoms: O_1  and  C_2
REMARK    2  A    between atoms: C_7  and  C_8
REMARK    3  A    between atoms: C_10  and  C_11
REMARK    4  A    between atoms: C_16  and  O_17
REMARK    5  A    between atoms: C_19  and  C_20
REMARK    6  A    between atoms: C_25  and  O_26
REMARK                            x       y       z     vdW  Elec       q    Type
REMARK                         _______ _______ _______ _____ _____    ______ ____
ROOT
ATOM      1  C   UNL     1       2.834   3.278  17.948  0.00  0.00    +0.000 C 
ATOM      2  S   UNL     1       2.146   4.818  17.305  0.00  0.00    +0.000 S 
ATOM      3  C   UNL     1       3.192   5.909  18.325  0.00  0.00    +0.000 C 
ATOM      4  S   UNL     1       4.638   6.282  17.343  0.00  0.00    +0.000 S 
ATOM      5  C   UNL     1       5.344   4.630  17.047  0.00  0.00    +0.000 C 
ATOM      6  S   UNL     1       4.526   3.006  17.359  0.00  0.00    +0.000 S 
ENDROOT
BRANCH   1  12
ATOM      7  C   UNL     1       3.519   2.569  20.313  0.00  0.00    +0.000 A 
ATOM      8  C   UNL     1       3.177   2.134  21.593  0.00  0.00    +0.000 A 
ATOM      9  C   UNL     1       1.890   2.329  22.075  0.00  0.00    +0.000 A 
ATOM     10  C   UNL     1       0.967   3.022  21.302  0.00  0.00    +0.000 A 
ATOM     11  C   UNL     1       1.305   3.445  20.008  0.00  0.00    +0.000 A 
ATOM     12  C   UNL     1       2.564   3.153  19.452  0.00  0.00    +0.000 A 
BRANCH   7  13
ATOM     13  O   UNL     1       4.818   2.324  19.955  0.00  0.00    +0.000 OA
ATOM     14  H   UNL     1       5.140   1.519  20.396  0.00  0.00    +0.000 HD
ENDBRANCH   7  13
ENDBRANCH   1  12
BRANCH   3  15
ATOM     15  C   UNL     1       2.487   7.152  18.839  0.00  0.00    +0.000 A 
ATOM     16  C   UNL     1       1.950   7.245  20.134  0.00  0.00    +0.000 A 
ATOM     17  C   UNL     1       1.326   8.415  20.574  0.00  0.00    +0.000 A 
ATOM     18  C   UNL     1       1.204   9.510  19.724  0.00  0.00    +0.000 A 
ATOM     19  C   UNL     1       1.704   9.439  18.427  0.00  0.00    +0.000 A 
ATOM     20  C   UNL     1       2.334   8.269  17.998  0.00  0.00    +0.000 A 
BRANCH  20  21
ATOM     21  O   UNL     1       2.813   8.204  16.716  0.00  0.00    +0.000 OA
ATOM     22  H   UNL     1       3.542   7.563  16.686  0.00  0.00    +0.000 HD
ENDBRANCH  20  21
ENDBRANCH   3  15
BRANCH   5  23
ATOM     23  C   UNL     1       5.894   4.613  15.620  0.00  0.00    +0.000 A 
ATOM     24  C   UNL     1       5.234   3.873  14.615  0.00  0.00    +0.000 A 
ATOM     25  C   UNL     1       5.717   3.846  13.307  0.00  0.00    +0.000 A 
ATOM     26  C   UNL     1       6.865   4.553  12.974  0.00  0.00    +0.000 A 
ATOM     27  C   UNL     1       7.528   5.301  13.950  0.00  0.00    +0.000 A 
ATOM     28  C   UNL     1       7.042   5.328  15.260  0.00  0.00    +0.000 A 
BRANCH  28  29
ATOM     29  O   UNL     1       7.693   6.069  16.206  0.00  0.00    +0.000 OA
ATOM     30  H   UNL     1       8.055   6.867  15.783  0.00  0.00    +0.000 HD
ENDBRANCH  28  29
ENDBRANCH   5  23
TORSDOF 6
ENDMDL
MODEL 6
REMARK VINA RESULT:      -6.6      5.677      9.787
REMARK  Name = 
REMARK  6 active torsions:
REMARK  status: ('A' for Active; 'I' for Inactive)
REMARK    1  A    between atoms: O_1  and  C_2
REMARK    2  A    between atoms: C_7  and  C_8
REMARK    3  A    between atoms: C_10  and  C_11
REMARK    4  A    between atoms: C_16  and  O_17
REMARK    5  A    between atoms: C_19  and  C_20
REMARK    6  A    between atoms: C_25  and  O_26
REMARK                            x       y       z     vdW  Elec       q    Type
REMARK                         _______ _______ _______ _____ _____    ______ ____
ROOT
ATOM      1  C   UNL     1      -1.293  12.857  19.384  0.00  0.00    +0.000 C 
ATOM      2  S   UNL     1      -0.220  11.947  20.515  0.00  0.00    +0.000 S 
ATOM      3  C   UNL     1       0.806  11.198  19.207  0.00  0.00    +0.000 C 
ATOM      4  S   UNL     1       2.194  12.299  18.964  0.00  0.00    +0.000 S 
ATOM      5  C   UNL     1       1.377  13.852  18.478  0.00  0.00    +0.000 C 
ATOM      6  S   UNL     1      -0.421  14.243  18.607  0.00  0.00    +0.000 S 
ENDROOT
BRANCH   1  12
ATOM      7  C   UNL     1      -3.467  11.762  18.586  0.00  0.00    +0.000 A 
ATOM      8  C   UNL     1      -4.144  10.673  18.037  0.00  0.00    +0.000 A 
ATOM      9  C   UNL     1      -3.449   9.717  17.308  0.00  0.00    +0.000 A 
ATOM     10  C   UNL     1      -2.092   9.890  17.069  0.00  0.00    +0.000 A 
ATOM     11  C   UNL     1      -1.408  10.976  17.636  0.00  0.00    +0.000 A 
ATOM     12  C   UNL     1      -2.066  11.891  18.478  0.00  0.00    +0.000 A 
BRANCH   7  13
ATOM     13  O   UNL     1      -4.262  12.636  19.279  0.00  0.00    +0.000 OA
ATOM     14  H   UNL     1      -4.444  12.290  20.169  0.00  0.00    +0.000 HD
ENDBRANCH   7  13
ENDBRANCH   1  12
BRANCH   3  15
ATOM     15  C   UNL     1       1.228   9.766  19.484  0.00  0.00    +0.000 A 
ATOM     16  C   UNL     1       1.083   9.157  20.742  0.00  0.00    +0.000 A 
ATOM     17  C   UNL     1       1.466   7.830  20.950  0.00  0.00    +0.000 A 
ATOM     18  C   UNL     1       2.023   7.088  19.912  0.00  0.00    +0.000 A 
ATOM     19  C   UNL     1       2.202   7.671  18.662  0.00  0.00    +0.000 A 
ATOM     20  C   UNL     1       1.808   8.996  18.461  0.00  0.00    +0.000 A 
BRANCH  20  21
ATOM     21  O   UNL     1       1.999   9.565  17.230  0.00  0.00    +0.000 OA
ATOM     22  H   UNL     1       2.341   8.890  16.621  0.00  0.00    +0.000 HD
ENDBRANCH  20  21
ENDBRANCH   3  15
BRANCH   5  23
ATOM     23  C   UNL     1       2.155  15.002  19.118  0.00  0.00    +0.000 A 
ATOM     24  C   UNL     1       1.820  15.450  20.414  0.00  0.00    +0.000 A 
ATOM     25  C   UNL     1       2.519  16.496  21.016  0.00  0.00    +0.000 A 
ATOM     26  C   UNL     1       3.563  17.116  20.342  0.00  0.00    +0.000 A 
ATOM     27  C   UNL     1       3.919  16.682  19.063  0.00  0.00    +0.000 A 
ATOM     28  C   UNL     1       3.218  15.633  18.460  0.00  0.00    +0.000 A 
BRANCH  28  29
ATOM     29  O   UNL     1       3.579  15.210  17.212  0.00  0.00    +0.000 OA
ATOM     30  H   UNL     1       4.147  14.426  17.301  0.00  0.00    +0.000 HD
ENDBRANCH  28  29
ENDBRANCH   5  23
TORSDOF 6
ENDMDL
MODEL 7
REMARK VINA RESULT:      -6.5      6.628     11.131
REMARK  Name = 
REMARK  6 active torsions:
REMARK  status: ('A' for Active; 'I' for Inactive)
REMARK    1  A    between atoms: O_1  and  C_2
REMARK    2  A    between atoms: C_7  and  C_8
REMARK    3  A    between atoms: C_10  and  C_11
REMARK    4  A    between atoms: C_16  and  O_17
REMARK    5  A    between atoms: C_19  and  C_20
REMARK    6  A    between atoms: C_25  and  O_26
REMARK                            x       y       z     vdW  Elec       q    Type
REMARK                         _______ _______ _______ _____ _____    ______ ____
ROOT
ATOM      1  C   UNL     1       0.431  12.486  20.129  0.00  0.00    +0.000 C 
ATOM      2  S   UNL     1      -0.793  13.025  18.917  0.00  0.00    +0.000 S 
ATOM      3  C   UNL     1      -1.881  11.576  19.121  0.00  0.00    +0.000 C 
ATOM      4  S   UNL     1      -3.087  12.022  20.363  0.00  0.00    +0.000 S 
ATOM      5  C   UNL     1      -2.041  12.383  21.809  0.00  0.00    +0.000 C 
ATOM      6  S   UNL     1      -0.209  12.603  21.821  0.00  0.00    +0.000 S 
ENDROOT
BRANCH   1  12
ATOM      7  C   UNL     1       1.769  11.074  18.464  0.00  0.00    +0.000 A 
ATOM      8  C   UNL     1       2.065   9.838  17.886  0.00  0.00    +0.000 A 
ATOM      9  C   UNL     1       1.740   8.664  18.551  0.00  0.00    +0.000 A 
ATOM     10  C   UNL     1       1.185   8.726  19.822  0.00  0.00    +0.000 A 
ATOM     11  C   UNL     1       0.872   9.968  20.395  0.00  0.00    +0.000 A 
ATOM     12  C   UNL     1       1.080  11.168  19.692  0.00  0.00    +0.000 A 
BRANCH   7  13
ATOM     13  O   UNL     1       2.143  12.157  17.714  0.00  0.00    +0.000 OA
ATOM     14  H   UNL     1       3.041  12.440  17.957  0.00  0.00    +0.000 HD
ENDBRANCH   7  13
ENDBRANCH   1  12
BRANCH   3  15
ATOM     15  C   UNL     1      -2.513  11.080  17.832  0.00  0.00    +0.000 A 
ATOM     16  C   UNL     1      -1.900  10.130  16.998  0.00  0.00    +0.000 A 
ATOM     17  C   UNL     1      -2.525   9.686  15.829  0.00  0.00    +0.000 A 
ATOM     18  C   UNL     1      -3.765  10.197  15.457  0.00  0.00    +0.000 A 
ATOM     19  C   UNL     1      -4.385  11.157  16.250  0.00  0.00    +0.000 A 
ATOM     20  C   UNL     1      -3.757  11.589  17.421  0.00  0.00    +0.000 A 
BRANCH  20  21
ATOM     21  O   UNL     1      -4.370  12.543  18.190  0.00  0.00    +0.000 OA
ATOM     22  H   UNL     1      -3.923  12.587  19.051  0.00  0.00    +0.000 HD
ENDBRANCH  20  21
ENDBRANCH   3  15
BRANCH   5  23
ATOM     23  C   UNL     1      -2.662  13.573  22.541  0.00  0.00    +0.000 A 
ATOM     24  C   UNL     1      -2.344  14.891  22.149  0.00  0.00    +0.000 A 
ATOM     25  C   UNL     1      -2.901  15.990  22.803  0.00  0.00    +0.000 A 
ATOM     26  C   UNL     1      -3.784  15.799  23.858  0.00  0.00    +0.000 A 
ATOM     27  C   UNL     1      -4.121  14.503  24.256  0.00  0.00    +0.000 A 
ATOM     28  C   UNL     1      -3.562  13.403  23.600  0.00  0.00    +0.000 A 
BRANCH  28  29
ATOM     29  O   UNL     1      -3.905  12.139  23.991  0.00  0.00    +0.000 OA
ATOM     30  H   UNL     1      -3.121  11.708  24.374  0.00  0.00    +0.000 HD
ENDBRANCH  28  29
ENDBRANCH   5  23
TORSDOF 6
ENDMDL
MODEL 8
REMARK VINA RESULT:      -6.5      8.445     10.280
REMARK  Name = 
REMARK  6 active torsions:
REMARK  status: ('A' for Active; 'I' for Inactive)
REMARK    1  A    between atoms: O_1  and  C_2
REMARK    2  A    between atoms: C_7  and  C_8
REMARK    3  A    between atoms: C_10  and  C_11
REMARK    4  A    between atoms: C_16  and  O_17
REMARK    5  A    between atoms: C_19  and  C_20
REMARK    6  A    between atoms: C_25  and  O_26
REMARK                            x       y       z     vdW  Elec       q    Type
REMARK                         _______ _______ _______ _____ _____    ______ ____
ROOT
ATOM      1  C   UNL     1       0.232  13.105  21.862  0.00  0.00    +0.000 C 
ATOM      2  S   UNL     1       0.257  11.881  20.535  0.00  0.00    +0.000 S 
ATOM      3  C   UNL     1      -0.978  12.731  19.498  0.00  0.00    +0.000 C 
ATOM      4  S   UNL     1      -0.061  13.785  18.383  0.00  0.00    +0.000 S 
ATOM      5  C   UNL     1       0.834  14.879  19.531  0.00  0.00    +0.000 C 
ATOM      6  S   UNL     1       1.019  14.656  21.353  0.00  0.00    +0.000 S 
ENDROOT
BRANCH   1  12
ATOM      7  C   UNL     1      -1.726  12.048  23.130  0.00  0.00    +0.000 A 
ATOM      8  C   UNL     1      -3.091  11.977  23.410  0.00  0.00    +0.000 A 
ATOM      9  C   UNL     1      -3.916  13.059  23.132  0.00  0.00    +0.000 A 
ATOM     10  C   UNL     1      -3.363  14.234  22.641  0.00  0.00    +0.000 A 
ATOM     11  C   UNL     1      -1.993  14.299  22.343  0.00  0.00    +0.000 A 
ATOM     12  C   UNL     1      -1.159  13.178  22.503  0.00  0.00    +0.000 A 
BRANCH   7  13
ATOM     13  O   UNL     1      -1.019  10.920  23.453  0.00  0.00    +0.000 OA
ATOM     14  H   UNL     1      -0.087  11.144  23.613  0.00  0.00    +0.000 HD
ENDBRANCH   7  13
ENDBRANCH   1  12
BRANCH   3  15
ATOM     15  C   UNL     1      -1.939  11.801  18.778  0.00  0.00    +0.000 A 
ATOM     16  C   UNL     1      -3.335  11.913  18.887  0.00  0.00    +0.000 A 
ATOM     17  C   UNL     1      -4.185  11.047  18.192  0.00  0.00    +0.000 A 
ATOM     18  C   UNL     1      -3.658  10.038  17.391  0.00  0.00    +0.000 A 
ATOM     19  C   UNL     1      -2.280   9.886  17.284  0.00  0.00    +0.000 A 
ATOM     20  C   UNL     1      -1.438  10.761  17.975  0.00  0.00    +0.000 A 
BRANCH  20  21
ATOM     21  O   UNL     1      -0.082  10.597  17.873  0.00  0.00    +0.000 OA
ATOM     22  H   UNL     1       0.170  10.646  16.936  0.00  0.00    +0.000 HD
ENDBRANCH  20  21
ENDBRANCH   3  15
BRANCH   5  23
ATOM     23  C   UNL     1       2.224  15.125  18.944  0.00  0.00    +0.000 A 
ATOM     24  C   UNL     1       3.059  14.035  18.617  0.00  0.00    +0.000 A 
ATOM     25  C   UNL     1       4.329  14.238  18.079  0.00  0.00    +0.000 A 
ATOM     26  C   UNL     1       4.793  15.528  17.855  0.00  0.00    +0.000 A 
ATOM     27  C   UNL     1       3.980  16.622  18.161  0.00  0.00    +0.000 A 
ATOM     28  C   UNL     1       2.707  16.417  18.700  0.00  0.00    +0.000 A 
BRANCH  28  29
ATOM     29  O   UNL     1       1.915  17.493  18.988  0.00  0.00    +0.000 OA
ATOM     30  H   UNL     1       1.105  17.176  19.424  0.00  0.00    +0.000 HD
ENDBRANCH  28  29
ENDBRANCH   5  23
TORSDOF 6
ENDMDL
MODEL 9
REMARK VINA RESULT:      -6.4      6.184     10.227
REMARK  Name = 
REMARK  6 active torsions:
REMARK  status: ('A' for Active; 'I' for Inactive)
REMARK    1  A    between atoms: O_1  and  C_2
REMARK    2  A    between atoms: C_7  and  C_8
REMARK    3  A    between atoms: C_10  and  C_11
REMARK    4  A    between atoms: C_16  and  O_17
REMARK    5  A    between atoms: C_19  and  C_20
REMARK    6  A    between atoms: C_25  and  O_26
REMARK                            x       y       z     vdW  Elec       q    Type
REMARK                         _______ _______ _______ _____ _____    ______ ____
ROOT
ATOM      1  C   UNL     1       0.755  13.385  21.307  0.00  0.00    +0.000 C 
ATOM      2  S   UNL     1      -0.570  12.467  22.120  0.00  0.00    +0.000 S 
ATOM      3  C   UNL     1      -1.691  12.481  20.683  0.00  0.00    +0.000 C 
ATOM      4  S   UNL     1      -1.365  10.976  19.775  0.00  0.00    +0.000 S 
ATOM      5  C   UNL     1       0.397  11.151  19.352  0.00  0.00    +0.000 C 
ATOM      6  S   UNL     1       1.583  12.383  20.044  0.00  0.00    +0.000 S 
ENDROOT
BRANCH   1  12
ATOM      7  C   UNL     1      -0.048  15.743  21.905  0.00  0.00    +0.000 A 
ATOM      8  C   UNL     1      -0.796  16.881  21.601  0.00  0.00    +0.000 A 
ATOM      9  C   UNL     1      -1.182  17.132  20.292  0.00  0.00    +0.000 A 
ATOM     10  C   UNL     1      -0.759  16.282  19.278  0.00  0.00    +0.000 A 
ATOM     11  C   UNL     1      -0.022  15.128  19.585  0.00  0.00    +0.000 A 
ATOM     12  C   UNL     1       0.278  14.789  20.917  0.00  0.00    +0.000 A 
BRANCH   7  13
ATOM     13  O   UNL     1       0.274  15.609  23.229  0.00  0.00    +0.000 OA
ATOM     14  H   UNL     1       1.240  15.641  23.344  0.00  0.00    +0.000 HD
ENDBRANCH   7  13
ENDBRANCH   1  12
BRANCH   3  15
ATOM     15  C   UNL     1      -3.159  12.655  21.035  0.00  0.00    +0.000 A 
ATOM     16  C   UNL     1      -3.618  12.764  22.357  0.00  0.00    +0.000 A 
ATOM     17  C   UNL     1      -4.976  12.943  22.637  0.00  0.00    +0.000 A 
ATOM     18  C   UNL     1      -5.906  12.995  21.603  0.00  0.00    +0.000 A 
ATOM     19  C   UNL     1      -5.484  12.865  20.284  0.00  0.00    +0.000 A 
ATOM     20  C   UNL     1      -4.124  12.695  20.013  0.00  0.00    +0.000 A 
BRANCH  20  21
ATOM     21  O   UNL     1      -3.718  12.557  18.712  0.00  0.00    +0.000 OA
ATOM     22  H   UNL     1      -3.422  13.420  18.382  0.00  0.00    +0.000 HD
ENDBRANCH  20  21
ENDBRANCH   3  15
BRANCH   5  23
ATOM     23  C   UNL     1       1.037   9.768  19.464  0.00  0.00    +0.000 A 
ATOM     24  C   UNL     1       0.898   9.016  20.650  0.00  0.00    +0.000 A 
ATOM     25  C   UNL     1       1.473   7.751  20.772  0.00  0.00    +0.000 A 
ATOM     26  C   UNL     1       2.196   7.210  19.717  0.00  0.00    +0.000 A 
ATOM     27  C   UNL     1       2.338   7.932  18.529  0.00  0.00    +0.000 A 
ATOM     28  C   UNL     1       1.761   9.199  18.408  0.00  0.00    +0.000 A 
BRANCH  28  29
ATOM     29  O   UNL     1       1.898   9.894  17.240  0.00  0.00    +0.000 OA
ATOM     30  H   UNL     1       2.228   9.288  16.554  0.00  0.00    +0.000 HD
ENDBRANCH  28  29
ENDBRANCH   5  23
TORSDOF 6
ENDMDL
