MODEL 1
REMARK VINA RESULT:      -6.9      0.000      0.000
REMARK  Name = 
REMARK  5 active torsions:
REMARK  status: ('A' for Active; 'I' for Inactive)
REMARK    1  A    between atoms: C_2  and  N_3
REMARK    2  A    between atoms: C_2  and  N_13
REMARK    3  A    between atoms: N_3  and  N_4
REMARK    4  A    between atoms: C_5  and  C_6
REMARK    5  A    between atoms: N_13  and  C_14
REMARK                            x       y       z     vdW  Elec       q    Type
REMARK                         _______ _______ _______ _____ _____    ______ ____
ROOT
ATOM      1  S   UNL     1       7.093   5.554  18.903  0.00  0.00    +0.000 S 
ATOM      2  C   UNL     1       6.694   6.624  17.682  0.00  0.00    +0.000 C 
ENDROOT
BRANCH   2   3
ATOM      3  N   UNL     1       7.512   7.615  17.176  0.00  0.00    +0.000 N 
ATOM      4  H   UNL     1       7.448   7.829  16.187  0.00  0.00    +0.000 HD
BRANCH   3   5
ATOM      5  N   UNL     1       8.234   8.432  17.986  0.00  0.00    +0.000 NA
ATOM      6  C   UNL     1       8.320   9.666  17.597  0.00  0.00    +0.000 C 
BRANCH   6   7
ATOM      7  C   UNL     1       8.952  10.692  18.447  0.00  0.00    +0.000 A 
ATOM      8  C   UNL     1       9.331  10.390  19.751  0.00  0.00    +0.000 A 
ATOM      9  C   UNL     1       9.853  11.410  20.539  0.00  0.00    +0.000 A 
ATOM     10  C   UNL     1       9.983  12.684  20.000  0.00  0.00    +0.000 A 
ATOM     11 CL   UNL     1      10.614  13.971  20.942  0.00  0.00    +0.000 Cl
ATOM     12  C   UNL     1       9.579  12.891  18.686  0.00  0.00    +0.000 A 
ATOM     13  N   UNL     1       9.060  11.923  17.889  0.00  0.00    +0.000 NA
ENDBRANCH   6   7
ENDBRANCH   3   5
ENDBRANCH   2   3
BRANCH   2  14
ATOM     14  N   UNL     1       5.476   6.495  17.050  0.00  0.00    +0.000 N 
ATOM     15  H   UNL     1       5.399   6.981  16.164  0.00  0.00    +0.000 HD
BRANCH  14  16
ATOM     16  C   UNL     1       4.435   5.607  17.388  0.00  0.00    +0.000 A 
ATOM     17  C   UNL     1       3.369   6.088  18.151  0.00  0.00    +0.000 A 
ATOM     18  C   UNL     1       2.345   5.224  18.544  0.00  0.00    +0.000 A 
ATOM     19  C   UNL     1       2.364   3.888  18.140  0.00  0.00    +0.000 A 
ATOM     20 BR   UNL     1       0.998   2.712  18.702  0.00  0.00    +0.000 Br
ATOM     21  C   UNL     1       3.386   3.416  17.325  0.00  0.00    +0.000 A 
ATOM     22  C   UNL     1       4.416   4.277  16.944  0.00  0.00    +0.000 A 
ENDBRANCH  14  16
ENDBRANCH   2  14
TORSDOF 5
ENDMDL
MODEL 2
REMARK VINA RESULT:      -6.8      0.537      1.197
REMARK  Name = 
REMARK  5 active torsions:
REMARK  status: ('A' for Active; 'I' for Inactive)
REMARK    1  A    between atoms: C_2  and  N_3
REMARK    2  A    between atoms: C_2  and  N_13
REMARK    3  A    between atoms: N_3  and  N_4
REMARK    4  A    between atoms: C_5  and  C_6
REMARK    5  A    between atoms: N_13  and  C_14
REMARK                            x       y       z     vdW  Elec       q    Type
REMARK                         _______ _______ _______ _____ _____    ______ ____
ROOT
ATOM      1  S   UNL     1       7.188   5.586  18.872  0.00  0.00    +0.000 S 
ATOM      2  C   UNL     1       6.742   6.619  17.635  0.00  0.00    +0.000 C 
ENDROOT
BRANCH   2   3
ATOM      3  N   UNL     1       7.564   7.539  17.016  0.00  0.00    +0.000 N 
ATOM      4  H   UNL     1       7.953   7.299  16.110  0.00  0.00    +0.000 HD
BRANCH   3   5
ATOM      5  N   UNL     1       7.696   8.810  17.477  0.00  0.00    +0.000 NA
ATOM      6  C   UNL     1       8.662   8.996  18.322  0.00  0.00    +0.000 C 
BRANCH   6   7
ATOM      7  C   UNL     1       9.010  10.349  18.797  0.00  0.00    +0.000 A 
ATOM      8  C   UNL     1       9.410  10.550  20.114  0.00  0.00    +0.000 A 
ATOM      9  C   UNL     1       9.655  11.853  20.537  0.00  0.00    +0.000 A 
ATOM     10  C   UNL     1       9.497  12.899  19.636  0.00  0.00    +0.000 A 
ATOM     11 CL   UNL     1       9.779  14.519  20.122  0.00  0.00    +0.000 Cl
ATOM     12  C   UNL     1       9.094  12.600  18.340  0.00  0.00    +0.000 A 
ATOM     13  N   UNL     1       8.842  11.344  17.893  0.00  0.00    +0.000 NA
ENDBRANCH   6   7
ENDBRANCH   3   5
ENDBRANCH   2   3
BRANCH   2  14
ATOM     14  N   UNL     1       5.471   6.527  17.112  0.00  0.00    +0.000 N 
ATOM     15  H   UNL     1       5.326   7.033  16.245  0.00  0.00    +0.000 HD
BRANCH  14  16
ATOM     16  C   UNL     1       4.444   5.655  17.525  0.00  0.00    +0.000 A 
ATOM     17  C   UNL     1       4.372   4.387  16.946  0.00  0.00    +0.000 A 
ATOM     18  C   UNL     1       3.339   3.516  17.297  0.00  0.00    +0.000 A 
ATOM     19  C   UNL     1       2.401   3.895  18.258  0.00  0.00    +0.000 A 
ATOM     20 BR   UNL     1       0.983   2.731  18.707  0.00  0.00    +0.000 Br
ATOM     21  C   UNL     1       2.503   5.129  18.890  0.00  0.00    +0.000 A 
ATOM     22  C   UNL     1       3.528   6.004  18.528  0.00  0.00    +0.000 A 
ENDBRANCH  14  16
ENDBRANCH   2  14
TORSDOF 5
ENDMDL
MODEL 3
REMARK VINA RESULT:      -6.7      0.864      1.416
REMARK  Name = 
REMARK  5 active torsions:
REMARK  status: ('A' for Active; 'I' for Inactive)
REMARK    1  A    between atoms: C_2  and  N_3
REMARK    2  A    between atoms: C_2  and  N_13
REMARK    3  A    between atoms: N_3  and  N_4
REMARK    4  A    between atoms: C_5  and  C_6
REMARK    5  A    between atoms: N_13  and  C_14
REMARK                            x       y       z     vdW  Elec       q    Type
REMARK                         _______ _______ _______ _____ _____    ______ ____
ROOT
ATOM      1  S   UNL     1       7.858   6.129  18.793  0.00  0.00    +0.000 S 
ATOM      2  C   UNL     1       7.320   7.181  17.610  0.00  0.00    +0.000 C 
ENDROOT
BRANCH   2   3
ATOM      3  N   UNL     1       7.848   8.427  17.336  0.00  0.00    +0.000 N 
ATOM      4  H   UNL     1       7.755   8.789  16.393  0.00  0.00    +0.000 HD
BRANCH   3   5
ATOM      5  N   UNL     1       8.292   9.250  18.321  0.00  0.00    +0.000 NA
ATOM      6  C   UNL     1       8.938  10.300  17.919  0.00  0.00    +0.000 C 
BRANCH   6   7
ATOM      7  C   UNL     1       9.355  11.349  18.868  0.00  0.00    +0.000 A 
ATOM      8  C   UNL     1       9.718  11.017  20.168  0.00  0.00    +0.000 A 
ATOM      9  C   UNL     1      10.031  12.048  21.050  0.00  0.00    +0.000 A 
ATOM     10  C   UNL     1       9.975  13.362  20.602  0.00  0.00    +0.000 A 
ATOM     11 CL   UNL     1      10.344  14.661  21.659  0.00  0.00    +0.000 Cl
ATOM     12  C   UNL     1       9.602  13.597  19.284  0.00  0.00    +0.000 A 
ATOM     13  N   UNL     1       9.285  12.619  18.398  0.00  0.00    +0.000 NA
ENDBRANCH   6   7
ENDBRANCH   3   5
ENDBRANCH   2   3
BRANCH   2  14
ATOM     14  N   UNL     1       6.309   6.776  16.765  0.00  0.00    +0.000 N 
ATOM     15  H   UNL     1       6.510   6.877  15.777  0.00  0.00    +0.000 HD
BRANCH  14  16
ATOM     16  C   UNL     1       5.148   6.058  17.114  0.00  0.00    +0.000 A 
ATOM     17  C   UNL     1       5.079   4.702  16.787  0.00  0.00    +0.000 A 
ATOM     18  C   UNL     1       3.923   3.973  17.075  0.00  0.00    +0.000 A 
ATOM     19  C   UNL     1       2.853   4.587  17.727  0.00  0.00    +0.000 A 
ATOM     20 BR   UNL     1       1.277   3.608  18.085  0.00  0.00    +0.000 Br
ATOM     21  C   UNL     1       2.939   5.918  18.117  0.00  0.00    +0.000 A 
ATOM     22  C   UNL     1       4.089   6.650  17.816  0.00  0.00    +0.000 A 
ENDBRANCH  14  16
ENDBRANCH   2  14
TORSDOF 5
ENDMDL
MODEL 4
REMARK VINA RESULT:      -6.6      5.505      7.551
REMARK  Name = 
REMARK  5 active torsions:
REMARK  status: ('A' for Active; 'I' for Inactive)
REMARK    1  A    between atoms: C_2  and  N_3
REMARK    2  A    between atoms: C_2  and  N_13
REMARK    3  A    between atoms: N_3  and  N_4
REMARK    4  A    between atoms: C_5  and  C_6
REMARK    5  A    between atoms: N_13  and  C_14
REMARK                            x       y       z     vdW  Elec       q    Type
REMARK                         _______ _______ _______ _____ _____    ______ ____
ROOT
ATOM      1  S   UNL     1       7.957   7.606  17.819  0.00  0.00    +0.000 S 
ATOM      2  C   UNL     1       7.373   6.224  17.081  0.00  0.00    +0.000 C 
ENDROOT
BRANCH   2   3
ATOM      3  N   UNL     1       7.551   4.931  17.532  0.00  0.00    +0.000 N 
ATOM      4  H   UNL     1       8.432   4.472  17.330  0.00  0.00    +0.000 HD
BRANCH   3   5
ATOM      5  N   UNL     1       6.683   4.347  18.398  0.00  0.00    +0.000 NA
ATOM      6  C   UNL     1       5.541   4.947  18.529  0.00  0.00    +0.000 C 
BRANCH   6   7
ATOM      7  C   UNL     1       4.452   4.350  19.326  0.00  0.00    +0.000 A 
ATOM      8  C   UNL     1       3.412   5.142  19.800  0.00  0.00    +0.000 A 
ATOM      9  C   UNL     1       2.449   4.551  20.611  0.00  0.00    +0.000 A 
ATOM     10  C   UNL     1       2.554   3.198  20.911  0.00  0.00    +0.000 A 
ATOM     11 CL   UNL     1       1.392   2.434  21.914  0.00  0.00    +0.000 Cl
ATOM     12  C   UNL     1       3.628   2.486  20.390  0.00  0.00    +0.000 A 
ATOM     13  N   UNL     1       4.589   3.030  19.601  0.00  0.00    +0.000 NA
ENDBRANCH   6   7
ENDBRANCH   3   5
ENDBRANCH   2   3
BRANCH   2  14
ATOM     14  N   UNL     1       6.580   6.347  15.962  0.00  0.00    +0.000 N 
ATOM     15  H   UNL     1       6.171   7.265  15.824  0.00  0.00    +0.000 HD
BRANCH  14  16
ATOM     16  C   UNL     1       6.455   5.425  14.903  0.00  0.00    +0.000 A 
ATOM     17  C   UNL     1       5.272   4.692  14.793  0.00  0.00    +0.000 A 
ATOM     18  C   UNL     1       5.135   3.735  13.785  0.00  0.00    +0.000 A 
ATOM     19  C   UNL     1       6.164   3.539  12.862  0.00  0.00    +0.000 A 
ATOM     20 BR   UNL     1       5.992   2.221  11.521  0.00  0.00    +0.000 Br
ATOM     21  C   UNL     1       7.318   4.311  12.924  0.00  0.00    +0.000 A 
ATOM     22  C   UNL     1       7.459   5.257  13.939  0.00  0.00    +0.000 A 
ENDBRANCH  14  16
ENDBRANCH   2  14
TORSDOF 5
ENDMDL
MODEL 5
REMARK VINA RESULT:      -6.6      6.168      7.515
REMARK  Name = 
REMARK  5 active torsions:
REMARK  status: ('A' for Active; 'I' for Inactive)
REMARK    1  A    between atoms: C_2  and  N_3
REMARK    2  A    between atoms: C_2  and  N_13
REMARK    3  A    between atoms: N_3  and  N_4
REMARK    4  A    between atoms: C_5  and  C_6
REMARK    5  A    between atoms: N_13  and  C_14
REMARK                            x       y       z     vdW  Elec       q    Type
REMARK                         _______ _______ _______ _____ _____    ______ ____
ROOT
ATOM      1  S   UNL     1       1.945   4.031  20.962  0.00  0.00    +0.000 S 
ATOM      2  C   UNL     1       2.106   5.482  20.148  0.00  0.00    +0.000 C 
ENDROOT
BRANCH   2   3
ATOM      3  N   UNL     1       2.325   6.715  20.731  0.00  0.00    +0.000 N 
ATOM      4  H   UNL     1       3.277   6.967  20.972  0.00  0.00    +0.000 HD
BRANCH   3   5
ATOM      5  N   UNL     1       1.351   7.660  20.798  0.00  0.00    +0.000 NA
ATOM      6  C   UNL     1       1.437   8.475  21.802  0.00  0.00    +0.000 C 
BRANCH   6   7
ATOM      7  C   UNL     1       0.532   9.634  21.923  0.00  0.00    +0.000 A 
ATOM      8  C   UNL     1      -0.254   9.796  23.059  0.00  0.00    +0.000 A 
ATOM      9  C   UNL     1      -1.148  10.862  23.096  0.00  0.00    +0.000 A 
ATOM     10  C   UNL     1      -1.219  11.724  22.009  0.00  0.00    +0.000 A 
ATOM     11 CL   UNL     1      -2.314  13.044  22.011  0.00  0.00    +0.000 Cl
ATOM     12  C   UNL     1      -0.392  11.483  20.918  0.00  0.00    +0.000 A 
ATOM     13  N   UNL     1       0.486  10.452  20.843  0.00  0.00    +0.000 NA
ENDBRANCH   6   7
ENDBRANCH   3   5
ENDBRANCH   2   3
BRANCH   2  14
ATOM     14  N   UNL     1       2.097   5.482  18.770  0.00  0.00    +0.000 N 
ATOM     15  H   UNL     1       1.232   5.800  18.347  0.00  0.00    +0.000 HD
BRANCH  14  16
ATOM     16  C   UNL     1       3.202   5.299  17.914  0.00  0.00    +0.000 A 
ATOM     17  C   UNL     1       3.924   6.422  17.508  0.00  0.00    +0.000 A 
ATOM     18  C   UNL     1       4.993   6.282  16.621  0.00  0.00    +0.000 A 
ATOM     19  C   UNL     1       5.369   5.014  16.173  0.00  0.00    +0.000 A 
ATOM     20 BR   UNL     1       6.794   4.828  14.948  0.00  0.00    +0.000 Br
ATOM     21  C   UNL     1       4.699   3.884  16.626  0.00  0.00    +0.000 A 
ATOM     22  C   UNL     1       3.621   4.027  17.500  0.00  0.00    +0.000 A 
ENDBRANCH  14  16
ENDBRANCH   2  14
TORSDOF 5
ENDMDL
MODEL 6
REMARK VINA RESULT:      -6.5      0.854      1.214
REMARK  Name = 
REMARK  5 active torsions:
REMARK  status: ('A' for Active; 'I' for Inactive)
REMARK    1  A    between atoms: C_2  and  N_3
REMARK    2  A    between atoms: C_2  and  N_13
REMARK    3  A    between atoms: N_3  and  N_4
REMARK    4  A    between atoms: C_5  and  C_6
REMARK    5  A    between atoms: N_13  and  C_14
REMARK                            x       y       z     vdW  Elec       q    Type
REMARK                         _______ _______ _______ _____ _____    ______ ____
ROOT
ATOM      1  S   UNL     1       7.508   5.853  18.935  0.00  0.00    +0.000 S 
ATOM      2  C   UNL     1       7.068   6.520  17.466  0.00  0.00    +0.000 C 
ENDROOT
BRANCH   2   3
ATOM      3  N   UNL     1       7.593   7.671  16.912  0.00  0.00    +0.000 N 
ATOM      4  H   UNL     1       7.812   7.668  15.923  0.00  0.00    +0.000 HD
BRANCH   3   5
ATOM      5  N   UNL     1       7.628   8.845  17.596  0.00  0.00    +0.000 NA
ATOM      6  C   UNL     1       8.774   9.148  18.120  0.00  0.00    +0.000 C 
BRANCH   6   7
ATOM      7  C   UNL     1       8.994  10.455  18.769  0.00  0.00    +0.000 A 
ATOM      8  C   UNL     1       8.860  11.632  18.041  0.00  0.00    +0.000 A 
ATOM      9  C   UNL     1       9.152  12.836  18.675  0.00  0.00    +0.000 A 
ATOM     10  C   UNL     1       9.559  12.821  20.003  0.00  0.00    +0.000 A 
ATOM     11 CL   UNL     1       9.938  14.283  20.817  0.00  0.00    +0.000 Cl
ATOM     12  C   UNL     1       9.664  11.595  20.649  0.00  0.00    +0.000 A 
ATOM     13  N   UNL     1       9.393  10.401  20.063  0.00  0.00    +0.000 NA
ENDBRANCH   6   7
ENDBRANCH   3   5
ENDBRANCH   2   3
BRANCH   2  14
ATOM     14  N   UNL     1       6.155   5.856  16.676  0.00  0.00    +0.000 N 
ATOM     15  H   UNL     1       6.462   5.674  15.727  0.00  0.00    +0.000 HD
BRANCH  14  16
ATOM     16  C   UNL     1       4.965   5.230  17.097  0.00  0.00    +0.000 A 
ATOM     17  C   UNL     1       3.967   6.015  17.677  0.00  0.00    +0.000 A 
ATOM     18  C   UNL     1       2.795   5.419  18.149  0.00  0.00    +0.000 A 
ATOM     19  C   UNL     1       2.603   4.044  18.003  0.00  0.00    +0.000 A 
ATOM     20 BR   UNL     1       1.033   3.234  18.673  0.00  0.00    +0.000 Br
ATOM     21  C   UNL     1       3.561   3.265  17.366  0.00  0.00    +0.000 A 
ATOM     22  C   UNL     1       4.737   3.859  16.908  0.00  0.00    +0.000 A 
ENDBRANCH  14  16
ENDBRANCH   2  14
TORSDOF 5
ENDMDL
MODEL 7
REMARK VINA RESULT:      -6.5      5.225      6.845
REMARK  Name = 
REMARK  5 active torsions:
REMARK  status: ('A' for Active; 'I' for Inactive)
REMARK    1  A    between atoms: C_2  and  N_3
REMARK    2  A    between atoms: C_2  and  N_13
REMARK    3  A    between atoms: N_3  and  N_4
REMARK    4  A    between atoms: C_5  and  C_6
REMARK    5  A    between atoms: N_13  and  C_14
REMARK                            x       y       z     vdW  Elec       q    Type
REMARK                         _______ _______ _______ _____ _____    ______ ____
ROOT
ATOM      1  S   UNL     1       3.456   1.959  18.840  0.00  0.00    +0.000 S 
ATOM      2  C   UNL     1       3.873   3.237  17.845  0.00  0.00    +0.000 C 
ENDROOT
BRANCH   2   3
ATOM      3  N   UNL     1       3.010   4.203  17.367  0.00  0.00    +0.000 N 
ATOM      4  H   UNL     1       2.685   4.123  16.410  0.00  0.00    +0.000 HD
BRANCH   3   5
ATOM      5  N   UNL     1       2.435   5.120  18.187  0.00  0.00    +0.000 NA
ATOM      6  C   UNL     1       2.785   6.351  17.978  0.00  0.00    +0.000 C 
BRANCH   6   7
ATOM      7  C   UNL     1       2.136   7.462  18.698  0.00  0.00    +0.000 A 
ATOM      8  C   UNL     1       1.798   8.633  18.027  0.00  0.00    +0.000 A 
ATOM      9  C   UNL     1       1.258   9.683  18.763  0.00  0.00    +0.000 A 
ATOM     10  C   UNL     1       1.071   9.525  20.130  0.00  0.00    +0.000 A 
ATOM     11 CL   UNL     1       0.417  10.799  21.074  0.00  0.00    +0.000 Cl
ATOM     12  C   UNL     1       1.438   8.318  20.714  0.00  0.00    +0.000 A 
ATOM     13  N   UNL     1       1.972   7.275  20.030  0.00  0.00    +0.000 NA
ENDBRANCH   6   7
ENDBRANCH   3   5
ENDBRANCH   2   3
BRANCH   2  14
ATOM     14  N   UNL     1       5.196   3.417  17.506  0.00  0.00    +0.000 N 
ATOM     15  H   UNL     1       5.624   2.638  17.019  0.00  0.00    +0.000 HD
BRANCH  14  16
ATOM     16  C   UNL     1       5.933   4.617  17.570  0.00  0.00    +0.000 A 
ATOM     17  C   UNL     1       6.665   4.889  18.727  0.00  0.00    +0.000 A 
ATOM     18  C   UNL     1       7.367   6.091  18.843  0.00  0.00    +0.000 A 
ATOM     19  C   UNL     1       7.372   7.002  17.786  0.00  0.00    +0.000 A 
ATOM     20 BR   UNL     1       8.292   8.643  17.956  0.00  0.00    +0.000 Br
ATOM     21  C   UNL     1       6.701   6.709  16.604  0.00  0.00    +0.000 A 
ATOM     22  C   UNL     1       5.988   5.515  16.495  0.00  0.00    +0.000 A 
ENDBRANCH  14  16
ENDBRANCH   2  14
TORSDOF 5
ENDMDL
MODEL 8
REMARK VINA RESULT:      -6.5      5.503      7.821
REMARK  Name = 
REMARK  5 active torsions:
REMARK  status: ('A' for Active; 'I' for Inactive)
REMARK    1  A    between atoms: C_2  and  N_3
REMARK    2  A    between atoms: C_2  and  N_13
REMARK    3  A    between atoms: N_3  and  N_4
REMARK    4  A    between atoms: C_5  and  C_6
REMARK    5  A    between atoms: N_13  and  C_14
REMARK                            x       y       z     vdW  Elec       q    Type
REMARK                         _______ _______ _______ _____ _____    ______ ____
ROOT
ATOM      1  S   UNL     1       7.759   7.765  17.589  0.00  0.00    +0.000 S 
ATOM      2  C   UNL     1       7.601   6.185  18.113  0.00  0.00    +0.000 C 
ENDROOT
BRANCH   2   3
ATOM      3  N   UNL     1       7.088   5.786  19.331  0.00  0.00    +0.000 N 
ATOM      4  H   UNL     1       7.403   6.270  20.164  0.00  0.00    +0.000 HD
BRANCH   3   5
ATOM      5  N   UNL     1       6.042   4.924  19.422  0.00  0.00    +0.000 NA
ATOM      6  C   UNL     1       4.899   5.393  19.030  0.00  0.00    +0.000 C 
BRANCH   6   7
ATOM      7  C   UNL     1       3.709   4.527  18.941  0.00  0.00    +0.000 A 
ATOM      8  C   UNL     1       2.737   4.764  17.975  0.00  0.00    +0.000 A 
ATOM      9  C   UNL     1       1.595   3.969  17.978  0.00  0.00    +0.000 A 
ATOM     10  C   UNL     1       1.468   2.970  18.935  0.00  0.00    +0.000 A 
ATOM     11 CL   UNL     1       0.072   1.975  18.979  0.00  0.00    +0.000 Cl
ATOM     12  C   UNL     1       2.492   2.806  19.860  0.00  0.00    +0.000 A 
ATOM     13  N   UNL     1       3.617   3.565  19.892  0.00  0.00    +0.000 NA
ENDBRANCH   6   7
ENDBRANCH   3   5
ENDBRANCH   2   3
BRANCH   2  14
ATOM     14  N   UNL     1       7.934   5.159  17.256  0.00  0.00    +0.000 N 
ATOM     15  H   UNL     1       8.625   4.509  17.613  0.00  0.00    +0.000 HD
BRANCH  14  16
ATOM     16  C   UNL     1       7.276   4.804  16.061  0.00  0.00    +0.000 A 
ATOM     17  C   UNL     1       6.134   4.006  16.139  0.00  0.00    +0.000 A 
ATOM     18  C   UNL     1       5.486   3.596  14.972  0.00  0.00    +0.000 A 
ATOM     19  C   UNL     1       5.956   4.018  13.727  0.00  0.00    +0.000 A 
ATOM     20 BR   UNL     1       5.101   3.436  12.147  0.00  0.00    +0.000 Br
ATOM     21  C   UNL     1       7.052   4.868  13.642  0.00  0.00    +0.000 A 
ATOM     22  C   UNL     1       7.707   5.265  14.809  0.00  0.00    +0.000 A 
ENDBRANCH  14  16
ENDBRANCH   2  14
TORSDOF 5
ENDMDL
MODEL 9
REMARK VINA RESULT:      -6.5      5.879      7.142
REMARK  Name = 
REMARK  5 active torsions:
REMARK  status: ('A' for Active; 'I' for Inactive)
REMARK    1  A    between atoms: C_2  and  N_3
REMARK    2  A    between atoms: C_2  and  N_13
REMARK    3  A    between atoms: N_3  and  N_4
REMARK    4  A    between atoms: C_5  and  C_6
REMARK    5  A    between atoms: N_13  and  C_14
REMARK                            x       y       z     vdW  Elec       q    Type
REMARK                         _______ _______ _______ _____ _____    ______ ____
ROOT
ATOM      1  S   UNL     1       1.101   4.259  20.081  0.00  0.00    +0.000 S 
ATOM      2  C   UNL     1       2.711   4.677  19.913  0.00  0.00    +0.000 C 
ENDROOT
BRANCH   2   3
ATOM      3  N   UNL     1       3.724   3.835  19.499  0.00  0.00    +0.000 N 
ATOM      4  H   UNL     1       3.678   2.860  19.773  0.00  0.00    +0.000 HD
BRANCH   3   5
ATOM      5  N   UNL     1       4.649   4.222  18.582  0.00  0.00    +0.000 NA
ATOM      6  C   UNL     1       4.488   3.737  17.391  0.00  0.00    +0.000 C 
BRANCH   6   7
ATOM      7  C   UNL     1       5.331   4.180  16.265  0.00  0.00    +0.000 A 
ATOM      8  C   UNL     1       5.073   3.732  14.974  0.00  0.00    +0.000 A 
ATOM      9  C   UNL     1       5.942   4.116  13.956  0.00  0.00    +0.000 A 
ATOM     10  C   UNL     1       7.024   4.931  14.262  0.00  0.00    +0.000 A 
ATOM     11 CL   UNL     1       8.122   5.418  13.038  0.00  0.00    +0.000 Cl
ATOM     12  C   UNL     1       7.201   5.331  15.581  0.00  0.00    +0.000 A 
ATOM     13  N   UNL     1       6.379   4.972  16.600  0.00  0.00    +0.000 NA
ENDBRANCH   6   7
ENDBRANCH   3   5
ENDBRANCH   2   3
BRANCH   2  14
ATOM     14  N   UNL     1       3.090   5.983  20.130  0.00  0.00    +0.000 N 
ATOM     15  H   UNL     1       4.039   6.106  20.463  0.00  0.00    +0.000 HD
BRANCH  14  16
ATOM     16  C   UNL     1       2.392   7.145  19.741  0.00  0.00    +0.000 A 
ATOM     17  C   UNL     1       1.696   7.863  20.716  0.00  0.00    +0.000 A 
ATOM     18  C   UNL     1       0.955   8.990  20.357  0.00  0.00    +0.000 A 
ATOM     19  C   UNL     1       0.942   9.425  19.031  0.00  0.00    +0.000 A 
ATOM     20 BR   UNL     1      -0.089  10.930  18.540  0.00  0.00    +0.000 Br
ATOM     21  C   UNL     1       1.685   8.757  18.066  0.00  0.00    +0.000 A 
ATOM     22  C   UNL     1       2.414   7.622  18.423  0.00  0.00    +0.000 A 
ENDBRANCH  14  16
ENDBRANCH   2  14
TORSDOF 5
ENDMDL
