MODEL 1
REMARK VINA RESULT:      -7.2      0.000      0.000
REMARK  Name = 
REMARK  6 active torsions:
REMARK  status: ('A' for Active; 'I' for Inactive)
REMARK    1  A    between atoms: S_2  and  C_4
REMARK    2  A    between atoms: S_2  and  N_9
REMARK    3  A    between atoms: C_4  and  C_5
REMARK    4  A    between atoms: N_9  and  C_10
REMARK    5  A    between atoms: C_10  and  C_11
REMARK    6  A    between atoms: C_11  and  C_12
REMARK                            x       y       z     vdW  Elec       q    Type
REMARK                         _______ _______ _______ _____ _____    ______ ____
ROOT
ATOM      1  C   UNL     1       7.185   6.003  17.496  0.00  0.00    +0.000 C 
ENDROOT
BRANCH   1   2
ATOM      2  N   UNL     1       7.440   4.853  16.600  0.00  0.00    +0.000 NA
ATOM      3  H   UNL     1       8.439   4.618  16.572  0.00  0.00    +0.000 HD
BRANCH   2   5
ATOM      4  O   UNL     1       8.005   5.481  14.212  0.00  0.00    +0.000 OA
ATOM      5  S   UNL     1       6.868   5.098  15.023  0.00  0.00    +0.000 S 
ATOM      6  O   UNL     1       5.710   5.961  15.122  0.00  0.00    +0.000 OA
BRANCH   5   7
ATOM      7  C   UNL     1       6.315   3.475  14.518  0.00  0.00    +0.000 C 
BRANCH   7   8
ATOM      8  C   UNL     1       5.879   3.602  13.094  0.00  0.00    +0.000 C 
ATOM      9  F   UNL     1       4.668   4.256  12.874  0.00  0.00    +0.000 F 
ATOM     10  C   UNL     1       6.917   3.906  12.045  0.00  0.00    +0.000 C 
ATOM     11  C   UNL     1       6.238   2.566  12.059  0.00  0.00    +0.000 C 
ENDBRANCH   7   8
ENDBRANCH   5   7
ENDBRANCH   2   5
ENDBRANCH   1   2
BRANCH   1  12
ATOM     12  C   UNL     1       6.663   5.524  18.855  0.00  0.00    +0.000 C 
BRANCH  12  13
ATOM     13  C   UNL     1       5.200   5.136  18.850  0.00  0.00    +0.000 A 
ATOM     14  C   UNL     1       4.194   6.048  18.492  0.00  0.00    +0.000 A 
ATOM     15  C   UNL     1       2.853   5.671  18.484  0.00  0.00    +0.000 A 
ATOM     16  C   UNL     1       2.492   4.388  18.869  0.00  0.00    +0.000 A 
ATOM     17  C   UNL     1       3.477   3.467  19.239  0.00  0.00    +0.000 A 
ATOM     18  C   UNL     1       4.820   3.842  19.245  0.00  0.00    +0.000 A 
ATOM     19  O   UNL     1       3.190   2.179  19.612  0.00  0.00    +0.000 OA
ATOM     20  C   UNL     1       1.859   1.812  19.229  0.00  0.00    +0.000 C 
ATOM     21  C   UNL     1       0.870   2.908  19.587  0.00  0.00    +0.000 C 
ATOM     22  O   UNL     1       1.152   4.103  18.852  0.00  0.00    +0.000 OA
ENDBRANCH  12  13
ENDBRANCH   1  12
TORSDOF 6
ENDMDL
MODEL 2
REMARK VINA RESULT:      -7.2      1.327      1.488
REMARK  Name = 
REMARK  6 active torsions:
REMARK  status: ('A' for Active; 'I' for Inactive)
REMARK    1  A    between atoms: S_2  and  C_4
REMARK    2  A    between atoms: S_2  and  N_9
REMARK    3  A    between atoms: C_4  and  C_5
REMARK    4  A    between atoms: N_9  and  C_10
REMARK    5  A    between atoms: C_10  and  C_11
REMARK    6  A    between atoms: C_11  and  C_12
REMARK                            x       y       z     vdW  Elec       q    Type
REMARK                         _______ _______ _______ _____ _____    ______ ____
ROOT
ATOM      1  C   UNL     1       6.834   5.428  16.952  0.00  0.00    +0.000 C 
ENDROOT
BRANCH   1   2
ATOM      2  N   UNL     1       7.637   4.873  15.840  0.00  0.00    +0.000 NA
ATOM      3  H   UNL     1       8.589   5.258  15.841  0.00  0.00    +0.000 HD
BRANCH   2   5
ATOM      4  O   UNL     1       7.977   5.554  13.424  0.00  0.00    +0.000 OA
ATOM      5  S   UNL     1       6.927   5.115  14.319  0.00  0.00    +0.000 S 
ATOM      6  O   UNL     1       5.748   5.929  14.527  0.00  0.00    +0.000 OA
BRANCH   5   7
ATOM      7  C   UNL     1       6.398   3.477  13.837  0.00  0.00    +0.000 C 
BRANCH   7   8
ATOM      8  C   UNL     1       6.141   3.534  12.365  0.00  0.00    +0.000 C 
ATOM      9  F   UNL     1       7.074   4.232  11.601  0.00  0.00    +0.000 F 
ATOM     10  C   UNL     1       5.612   2.302  11.676  0.00  0.00    +0.000 C 
ATOM     11  C   UNL     1       4.742   3.520  11.803  0.00  0.00    +0.000 C 
ENDBRANCH   7   8
ENDBRANCH   5   7
ENDBRANCH   2   5
ENDBRANCH   1   2
BRANCH   1  12
ATOM     12  C   UNL     1       6.576   4.358  18.019  0.00  0.00    +0.000 C 
BRANCH  12  13
ATOM     13  C   UNL     1       5.117   3.995  18.186  0.00  0.00    +0.000 A 
ATOM     14  C   UNL     1       4.267   3.819  17.083  0.00  0.00    +0.000 A 
ATOM     15  C   UNL     1       2.928   3.476  17.255  0.00  0.00    +0.000 A 
ATOM     16  C   UNL     1       2.408   3.340  18.535  0.00  0.00    +0.000 A 
ATOM     17  C   UNL     1       3.235   3.520  19.648  0.00  0.00    +0.000 A 
ATOM     18  C   UNL     1       4.575   3.862  19.476  0.00  0.00    +0.000 A 
ATOM     19  O   UNL     1       2.788   3.382  20.937  0.00  0.00    +0.000 OA
ATOM     20  C   UNL     1       1.531   2.696  20.981  0.00  0.00    +0.000 C 
ATOM     21  C   UNL     1       0.574   3.249  19.937  0.00  0.00    +0.000 C 
ATOM     22  O   UNL     1       1.078   3.019  18.618  0.00  0.00    +0.000 OA
ENDBRANCH  12  13
ENDBRANCH   1  12
TORSDOF 6
ENDMDL
MODEL 3
REMARK VINA RESULT:      -7.0      1.530      1.818
REMARK  Name = 
REMARK  6 active torsions:
REMARK  status: ('A' for Active; 'I' for Inactive)
REMARK    1  A    between atoms: S_2  and  C_4
REMARK    2  A    between atoms: S_2  and  N_9
REMARK    3  A    between atoms: C_4  and  C_5
REMARK    4  A    between atoms: N_9  and  C_10
REMARK    5  A    between atoms: C_10  and  C_11
REMARK    6  A    between atoms: C_11  and  C_12
REMARK                            x       y       z     vdW  Elec       q    Type
REMARK                         _______ _______ _______ _____ _____    ______ ____
ROOT
ATOM      1  C   UNL     1       5.713   6.225  16.797  0.00  0.00    +0.000 C 
ENDROOT
BRANCH   1   2
ATOM      2  N   UNL     1       5.874   6.095  15.332  0.00  0.00    +0.000 NA
ATOM      3  H   UNL     1       4.983   5.860  14.879  0.00  0.00    +0.000 HD
BRANCH   2   5
ATOM      4  O   UNL     1       7.722   4.546  16.106  0.00  0.00    +0.000 OA
ATOM      5  S   UNL     1       7.054   4.961  14.890  0.00  0.00    +0.000 S 
ATOM      6  O   UNL     1       7.807   5.537  13.796  0.00  0.00    +0.000 OA
BRANCH   5   7
ATOM      7  C   UNL     1       6.101   3.589  14.253  0.00  0.00    +0.000 C 
BRANCH   7   8
ATOM      8  C   UNL     1       6.162   3.689  12.763  0.00  0.00    +0.000 C 
ATOM      9  F   UNL     1       7.269   4.349  12.232  0.00  0.00    +0.000 F 
ATOM     10  C   UNL     1       5.727   2.503  11.940  0.00  0.00    +0.000 C 
ATOM     11  C   UNL     1       4.914   3.765  11.922  0.00  0.00    +0.000 C 
ENDBRANCH   7   8
ENDBRANCH   5   7
ENDBRANCH   2   5
ENDBRANCH   1   2
BRANCH   1  12
ATOM     12  C   UNL     1       4.396   6.934  17.134  0.00  0.00    +0.000 C 
BRANCH  12  13
ATOM     13  C   UNL     1       3.505   6.160  18.080  0.00  0.00    +0.000 A 
ATOM     14  C   UNL     1       2.871   6.777  19.171  0.00  0.00    +0.000 A 
ATOM     15  C   UNL     1       2.046   6.050  20.027  0.00  0.00    +0.000 A 
ATOM     16  C   UNL     1       1.870   4.688  19.828  0.00  0.00    +0.000 A 
ATOM     17  C   UNL     1       2.500   4.052  18.753  0.00  0.00    +0.000 A 
ATOM     18  C   UNL     1       3.324   4.779  17.895  0.00  0.00    +0.000 A 
ATOM     19  O   UNL     1       2.354   2.715  18.490  0.00  0.00    +0.000 OA
ATOM     20  C   UNL     1       1.234   2.166  19.196  0.00  0.00    +0.000 C 
ATOM     21  C   UNL     1       1.228   2.625  20.645  0.00  0.00    +0.000 C 
ATOM     22  O   UNL     1       1.059   4.043  20.725  0.00  0.00    +0.000 OA
ENDBRANCH  12  13
ENDBRANCH   1  12
TORSDOF 6
ENDMDL
MODEL 4
REMARK VINA RESULT:      -7.0      3.518      6.062
REMARK  Name = 
REMARK  6 active torsions:
REMARK  status: ('A' for Active; 'I' for Inactive)
REMARK    1  A    between atoms: S_2  and  C_4
REMARK    2  A    between atoms: S_2  and  N_9
REMARK    3  A    between atoms: C_4  and  C_5
REMARK    4  A    between atoms: N_9  and  C_10
REMARK    5  A    between atoms: C_10  and  C_11
REMARK    6  A    between atoms: C_11  and  C_12
REMARK                            x       y       z     vdW  Elec       q    Type
REMARK                         _______ _______ _______ _____ _____    ______ ____
ROOT
ATOM      1  C   UNL     1       1.620   5.703  20.495  0.00  0.00    +0.000 C 
ENDROOT
BRANCH   1   2
ATOM      2  N   UNL     1       2.472   4.791  21.289  0.00  0.00    +0.000 NA
ATOM      3  H   UNL     1       3.466   4.929  21.072  0.00  0.00    +0.000 HD
BRANCH   2   5
ATOM      4  O   UNL     1       0.674   3.110  20.691  0.00  0.00    +0.000 OA
ATOM      5  S   UNL     1       2.066   3.157  21.088  0.00  0.00    +0.000 S 
ATOM      6  O   UNL     1       2.518   2.459  22.274  0.00  0.00    +0.000 OA
BRANCH   5   7
ATOM      7  C   UNL     1       3.081   2.637  19.712  0.00  0.00    +0.000 C 
BRANCH   7   8
ATOM      8  C   UNL     1       2.168   2.527  18.533  0.00  0.00    +0.000 C 
ATOM      9  F   UNL     1       1.133   1.599  18.638  0.00  0.00    +0.000 F 
ATOM     10  C   UNL     1       1.765   3.786  17.810  0.00  0.00    +0.000 C 
ATOM     11  C   UNL     1       2.652   2.783  17.129  0.00  0.00    +0.000 C 
ENDBRANCH   7   8
ENDBRANCH   5   7
ENDBRANCH   2   5
ENDBRANCH   1   2
BRANCH   1  12
ATOM     12  C   UNL     1       2.420   6.928  20.036  0.00  0.00    +0.000 C 
BRANCH  12  13
ATOM     13  C   UNL     1       3.459   6.623  18.979  0.00  0.00    +0.000 A 
ATOM     14  C   UNL     1       3.397   7.190  17.696  0.00  0.00    +0.000 A 
ATOM     15  C   UNL     1       4.367   6.905  16.738  0.00  0.00    +0.000 A 
ATOM     16  C   UNL     1       5.395   6.022  17.035  0.00  0.00    +0.000 A 
ATOM     17  C   UNL     1       5.470   5.438  18.303  0.00  0.00    +0.000 A 
ATOM     18  C   UNL     1       4.501   5.724  19.264  0.00  0.00    +0.000 A 
ATOM     19  O   UNL     1       6.469   4.572  18.667  0.00  0.00    +0.000 OA
ATOM     20  C   UNL     1       7.570   4.637  17.752  0.00  0.00    +0.000 C 
ATOM     21  C   UNL     1       7.083   4.619  16.313  0.00  0.00    +0.000 C 
ATOM     22  O   UNL     1       6.297   5.781  16.032  0.00  0.00    +0.000 OA
ENDBRANCH  12  13
ENDBRANCH   1  12
TORSDOF 6
ENDMDL
MODEL 5
REMARK VINA RESULT:      -6.9      1.018      1.771
REMARK  Name = 
REMARK  6 active torsions:
REMARK  status: ('A' for Active; 'I' for Inactive)
REMARK    1  A    between atoms: S_2  and  C_4
REMARK    2  A    between atoms: S_2  and  N_9
REMARK    3  A    between atoms: C_4  and  C_5
REMARK    4  A    between atoms: N_9  and  C_10
REMARK    5  A    between atoms: C_10  and  C_11
REMARK    6  A    between atoms: C_11  and  C_12
REMARK                            x       y       z     vdW  Elec       q    Type
REMARK                         _______ _______ _______ _____ _____    ______ ____
ROOT
ATOM      1  C   UNL     1       7.234   6.170  16.936  0.00  0.00    +0.000 C 
ENDROOT
BRANCH   1   2
ATOM      2  N   UNL     1       7.066   4.896  16.201  0.00  0.00    +0.000 NA
ATOM      3  H   UNL     1       7.882   4.285  16.327  0.00  0.00    +0.000 HD
BRANCH   2   5
ATOM      4  O   UNL     1       8.013   5.543  13.943  0.00  0.00    +0.000 OA
ATOM      5  S   UNL     1       6.768   5.116  14.547  0.00  0.00    +0.000 S 
ATOM      6  O   UNL     1       5.578   5.932  14.436  0.00  0.00    +0.000 OA
BRANCH   5   7
ATOM      7  C   UNL     1       6.376   3.471  13.968  0.00  0.00    +0.000 C 
BRANCH   7   8
ATOM      8  C   UNL     1       6.155   3.584  12.494  0.00  0.00    +0.000 C 
ATOM      9  F   UNL     1       7.086   4.343  11.786  0.00  0.00    +0.000 F 
ATOM     10  C   UNL     1       5.683   2.369  11.738  0.00  0.00    +0.000 C 
ATOM     11  C   UNL     1       4.773   3.553  11.894  0.00  0.00    +0.000 C 
ENDBRANCH   7   8
ENDBRANCH   5   7
ENDBRANCH   2   5
ENDBRANCH   1   2
BRANCH   1  12
ATOM     12  C   UNL     1       5.900   6.627  17.537  0.00  0.00    +0.000 C 
BRANCH  12  13
ATOM     13  C   UNL     1       5.064   5.501  18.105  0.00  0.00    +0.000 A 
ATOM     14  C   UNL     1       5.560   4.636  19.093  0.00  0.00    +0.000 A 
ATOM     15  C   UNL     1       4.773   3.610  19.611  0.00  0.00    +0.000 A 
ATOM     16  C   UNL     1       3.489   3.409  19.124  0.00  0.00    +0.000 A 
ATOM     17  C   UNL     1       2.979   4.253  18.132  0.00  0.00    +0.000 A 
ATOM     18  C   UNL     1       3.765   5.281  17.615  0.00  0.00    +0.000 A 
ATOM     19  O   UNL     1       1.713   4.121  17.621  0.00  0.00    +0.000 OA
ATOM     20  C   UNL     1       0.899   3.290  18.459  0.00  0.00    +0.000 C 
ATOM     21  C   UNL     1       1.649   2.035  18.873  0.00  0.00    +0.000 C 
ATOM     22  O   UNL     1       2.788   2.368  19.672  0.00  0.00    +0.000 OA
ENDBRANCH  12  13
ENDBRANCH   1  12
TORSDOF 6
ENDMDL
MODEL 6
REMARK VINA RESULT:      -6.9      1.109      1.187
REMARK  Name = 
REMARK  6 active torsions:
REMARK  status: ('A' for Active; 'I' for Inactive)
REMARK    1  A    between atoms: S_2  and  C_4
REMARK    2  A    between atoms: S_2  and  N_9
REMARK    3  A    between atoms: C_4  and  C_5
REMARK    4  A    between atoms: N_9  and  C_10
REMARK    5  A    between atoms: C_10  and  C_11
REMARK    6  A    between atoms: C_11  and  C_12
REMARK                            x       y       z     vdW  Elec       q    Type
REMARK                         _______ _______ _______ _____ _____    ______ ____
ROOT
ATOM      1  C   UNL     1       6.702   4.371  16.987  0.00  0.00    +0.000 C 
ENDROOT
BRANCH   1   2
ATOM      2  N   UNL     1       7.646   4.879  15.967  0.00  0.00    +0.000 NA
ATOM      3  H   UNL     1       8.110   5.738  16.286  0.00  0.00    +0.000 HD
BRANCH   2   5
ATOM      4  O   UNL     1       7.959   5.590  13.556  0.00  0.00    +0.000 OA
ATOM      5  S   UNL     1       6.917   5.152  14.461  0.00  0.00    +0.000 S 
ATOM      6  O   UNL     1       5.753   5.980  14.698  0.00  0.00    +0.000 OA
BRANCH   5   7
ATOM      7  C   UNL     1       6.358   3.529  13.963  0.00  0.00    +0.000 C 
BRANCH   7   8
ATOM      8  C   UNL     1       6.180   3.581  12.480  0.00  0.00    +0.000 C 
ATOM      9  F   UNL     1       7.115   4.332  11.770  0.00  0.00    +0.000 F 
ATOM     10  C   UNL     1       5.755   2.327  11.759  0.00  0.00    +0.000 C 
ATOM     11  C   UNL     1       4.816   3.496  11.842  0.00  0.00    +0.000 C 
ENDBRANCH   7   8
ENDBRANCH   5   7
ENDBRANCH   2   5
ENDBRANCH   1   2
BRANCH   1  12
ATOM     12  C   UNL     1       6.214   5.512  17.887  0.00  0.00    +0.000 C 
BRANCH  12  13
ATOM     13  C   UNL     1       4.875   5.251  18.541  0.00  0.00    +0.000 A 
ATOM     14  C   UNL     1       3.931   6.273  18.729  0.00  0.00    +0.000 A 
ATOM     15  C   UNL     1       2.699   6.013  19.325  0.00  0.00    +0.000 A 
ATOM     16  C   UNL     1       2.405   4.734  19.775  0.00  0.00    +0.000 A 
ATOM     17  C   UNL     1       3.334   3.703  19.607  0.00  0.00    +0.000 A 
ATOM     18  C   UNL     1       4.567   3.962  19.009  0.00  0.00    +0.000 A 
ATOM     19  O   UNL     1       3.098   2.414  20.012  0.00  0.00    +0.000 OA
ATOM     20  C   UNL     1       1.706   2.198  20.271  0.00  0.00    +0.000 C 
ATOM     21  C   UNL     1       1.124   3.335  21.094  0.00  0.00    +0.000 C 
ATOM     22  O   UNL     1       1.180   4.566  20.366  0.00  0.00    +0.000 OA
ENDBRANCH  12  13
ENDBRANCH   1  12
TORSDOF 6
ENDMDL
MODEL 7
REMARK VINA RESULT:      -6.9      2.130      2.556
REMARK  Name = 
REMARK  6 active torsions:
REMARK  status: ('A' for Active; 'I' for Inactive)
REMARK    1  A    between atoms: S_2  and  C_4
REMARK    2  A    between atoms: S_2  and  N_9
REMARK    3  A    between atoms: C_4  and  C_5
REMARK    4  A    between atoms: N_9  and  C_10
REMARK    5  A    between atoms: C_10  and  C_11
REMARK    6  A    between atoms: C_11  and  C_12
REMARK                            x       y       z     vdW  Elec       q    Type
REMARK                         _______ _______ _______ _____ _____    ______ ____
ROOT
ATOM      1  C   UNL     1       4.219   7.362  16.625  0.00  0.00    +0.000 C 
ENDROOT
BRANCH   1   2
ATOM      2  N   UNL     1       5.533   7.061  17.237  0.00  0.00    +0.000 NA
ATOM      3  H   UNL     1       6.186   7.844  17.117  0.00  0.00    +0.000 HD
BRANCH   2   5
ATOM      4  O   UNL     1       5.950   4.589  17.597  0.00  0.00    +0.000 OA
ATOM      5  S   UNL     1       6.235   5.638  16.640  0.00  0.00    +0.000 S 
ATOM      6  O   UNL     1       7.600   5.957  16.282  0.00  0.00    +0.000 OA
BRANCH   5   7
ATOM      7  C   UNL     1       5.322   5.317  15.137  0.00  0.00    +0.000 C 
BRANCH   7   8
ATOM      8  C   UNL     1       5.982   4.144  14.485  0.00  0.00    +0.000 C 
ATOM      9  F   UNL     1       6.321   3.081  15.321  0.00  0.00    +0.000 F 
ATOM     10  C   UNL     1       5.493   3.701  13.130  0.00  0.00    +0.000 C 
ATOM     11  C   UNL     1       6.862   4.303  13.271  0.00  0.00    +0.000 C 
ENDBRANCH   7   8
ENDBRANCH   5   7
ENDBRANCH   2   5
ENDBRANCH   1   2
BRANCH   1  12
ATOM     12  C   UNL     1       3.219   7.819  17.693  0.00  0.00    +0.000 C 
BRANCH  12  13
ATOM     13  C   UNL     1       2.647   6.692  18.524  0.00  0.00    +0.000 A 
ATOM     14  C   UNL     1       2.322   6.862  19.879  0.00  0.00    +0.000 A 
ATOM     15  C   UNL     1       1.788   5.815  20.627  0.00  0.00    +0.000 A 
ATOM     16  C   UNL     1       1.605   4.570  20.043  0.00  0.00    +0.000 A 
ATOM     17  C   UNL     1       1.932   4.375  18.697  0.00  0.00    +0.000 A 
ATOM     18  C   UNL     1       2.464   5.423  17.947  0.00  0.00    +0.000 A 
ATOM     19  O   UNL     1       1.758   3.176  18.055  0.00  0.00    +0.000 OA
ATOM     20  C   UNL     1       0.894   2.309  18.799  0.00  0.00    +0.000 C 
ATOM     21  C   UNL     1       1.276   2.295  20.270  0.00  0.00    +0.000 C 
ATOM     22  O   UNL     1       1.093   3.589  20.851  0.00  0.00    +0.000 OA
ENDBRANCH  12  13
ENDBRANCH   1  12
TORSDOF 6
ENDMDL
MODEL 8
REMARK VINA RESULT:      -6.9      4.501      6.788
REMARK  Name = 
REMARK  6 active torsions:
REMARK  status: ('A' for Active; 'I' for Inactive)
REMARK    1  A    between atoms: S_2  and  C_4
REMARK    2  A    between atoms: S_2  and  N_9
REMARK    3  A    between atoms: C_4  and  C_5
REMARK    4  A    between atoms: N_9  and  C_10
REMARK    5  A    between atoms: C_10  and  C_11
REMARK    6  A    between atoms: C_11  and  C_12
REMARK                            x       y       z     vdW  Elec       q    Type
REMARK                         _______ _______ _______ _____ _____    ______ ____
ROOT
ATOM      1  C   UNL     1       3.273   6.363  18.498  0.00  0.00    +0.000 C 
ENDROOT
BRANCH   1   2
ATOM      2  N   UNL     1       3.523   5.292  17.507  0.00  0.00    +0.000 NA
ATOM      3  H   UNL     1       3.096   5.518  16.601  0.00  0.00    +0.000 HD
BRANCH   2   5
ATOM      4  O   UNL     1       4.153   3.047  18.496  0.00  0.00    +0.000 OA
ATOM      5  S   UNL     1       2.989   3.768  18.024  0.00  0.00    +0.000 S 
ATOM      6  O   UNL     1       2.167   3.225  16.964  0.00  0.00    +0.000 OA
BRANCH   5   7
ATOM      7  C   UNL     1       1.933   4.143  19.417  0.00  0.00    +0.000 C 
BRANCH   7   8
ATOM      8  C   UNL     1       1.811   2.878  20.204  0.00  0.00    +0.000 C 
ATOM      9  F   UNL     1       1.549   1.718  19.477  0.00  0.00    +0.000 F 
ATOM     10  C   UNL     1       2.751   2.653  21.361  0.00  0.00    +0.000 C 
ATOM     11  C   UNL     1       1.287   2.872  21.618  0.00  0.00    +0.000 C 
ENDBRANCH   7   8
ENDBRANCH   5   7
ENDBRANCH   2   5
ENDBRANCH   1   2
BRANCH   1  12
ATOM     12  C   UNL     1       2.797   7.643  17.801  0.00  0.00    +0.000 C 
BRANCH  12  13
ATOM     13  C   UNL     1       1.861   8.487  18.638  0.00  0.00    +0.000 A 
ATOM     14  C   UNL     1       1.110   9.534  18.080  0.00  0.00    +0.000 A 
ATOM     15  C   UNL     1       0.246  10.296  18.864  0.00  0.00    +0.000 A 
ATOM     16  C   UNL     1       0.146  10.047  20.225  0.00  0.00    +0.000 A 
ATOM     17  C   UNL     1       0.892   9.015  20.804  0.00  0.00    +0.000 A 
ATOM     18  C   UNL     1       1.756   8.251  20.019  0.00  0.00    +0.000 A 
ATOM     19  O   UNL     1       0.826   8.706  22.138  0.00  0.00    +0.000 OA
ATOM     20  C   UNL     1      -0.326   9.298  22.751  0.00  0.00    +0.000 C 
ATOM     21  C   UNL     1      -0.476  10.751  22.335  0.00  0.00    +0.000 C 
ATOM     22  O   UNL     1      -0.711  10.853  20.928  0.00  0.00    +0.000 OA
ENDBRANCH  12  13
ENDBRANCH   1  12
TORSDOF 6
ENDMDL
MODEL 9
REMARK VINA RESULT:      -6.8      3.196      4.965
REMARK  Name = 
REMARK  6 active torsions:
REMARK  status: ('A' for Active; 'I' for Inactive)
REMARK    1  A    between atoms: S_2  and  C_4
REMARK    2  A    between atoms: S_2  and  N_9
REMARK    3  A    between atoms: C_4  and  C_5
REMARK    4  A    between atoms: N_9  and  C_10
REMARK    5  A    between atoms: C_10  and  C_11
REMARK    6  A    between atoms: C_11  and  C_12
REMARK                            x       y       z     vdW  Elec       q    Type
REMARK                         _______ _______ _______ _____ _____    ______ ____
ROOT
ATOM      1  C   UNL     1       3.549   3.919  17.151  0.00  0.00    +0.000 C 
ENDROOT
BRANCH   1   2
ATOM      2  N   UNL     1       4.954   3.454  17.122  0.00  0.00    +0.000 NA
ATOM      3  H   UNL     1       5.352   3.419  18.068  0.00  0.00    +0.000 HD
BRANCH   2   5
ATOM      4  O   UNL     1       5.347   5.711  16.042  0.00  0.00    +0.000 OA
ATOM      5  S   UNL     1       5.947   4.396  16.121  0.00  0.00    +0.000 S 
ATOM      6  O   UNL     1       6.190   3.625  14.920  0.00  0.00    +0.000 OA
BRANCH   5   7
ATOM      7  C   UNL     1       7.479   4.509  17.035  0.00  0.00    +0.000 C 
BRANCH   7   8
ATOM      8  C   UNL     1       7.351   5.704  17.924  0.00  0.00    +0.000 C 
ATOM      9  F   UNL     1       7.270   6.942  17.290  0.00  0.00    +0.000 F 
ATOM     10  C   UNL     1       6.474   5.605  19.146  0.00  0.00    +0.000 C 
ATOM     11  C   UNL     1       7.961   5.735  19.303  0.00  0.00    +0.000 C 
ENDBRANCH   7   8
ENDBRANCH   5   7
ENDBRANCH   2   5
ENDBRANCH   1   2
BRANCH   1  12
ATOM     12  C   UNL     1       3.041   4.017  18.594  0.00  0.00    +0.000 C 
BRANCH  12  13
ATOM     13  C   UNL     1       2.580   5.402  18.992  0.00  0.00    +0.000 A 
ATOM     14  C   UNL     1       2.115   5.684  20.286  0.00  0.00    +0.000 A 
ATOM     15  C   UNL     1       1.702   6.967  20.637  0.00  0.00    +0.000 A 
ATOM     16  C   UNL     1       1.714   7.981  19.691  0.00  0.00    +0.000 A 
ATOM     17  C   UNL     1       2.165   7.721  18.393  0.00  0.00    +0.000 A 
ATOM     18  C   UNL     1       2.580   6.437  18.041  0.00  0.00    +0.000 A 
ATOM     19  O   UNL     1       2.219   8.681  17.416  0.00  0.00    +0.000 OA
ATOM     20  C   UNL     1       2.118   9.997  17.976  0.00  0.00    +0.000 C 
ATOM     21  C   UNL     1       0.998  10.066  19.000  0.00  0.00    +0.000 C 
ATOM     22  O   UNL     1       1.276   9.210  20.111  0.00  0.00    +0.000 OA
ENDBRANCH  12  13
ENDBRANCH   1  12
TORSDOF 6
ENDMDL
