MODEL 1
REMARK VINA RESULT:      -7.0      0.000      0.000
REMARK  Name = 
REMARK  3 active torsions:
REMARK  status: ('A' for Active; 'I' for Inactive)
REMARK    1  A    between atoms: N_2  and  C_4
REMARK    2  A    between atoms: C_8  and  C_9
REMARK    3  A    between atoms: N_10  and  C_11
REMARK                            x       y       z     vdW  Elec       q    Type
REMARK                         _______ _______ _______ _____ _____    ______ ____
ROOT
ATOM      1  C   UNL     1       6.188   4.037  13.772  0.00  0.00    +0.000 A 
ATOM      2  C   UNL     1       7.247   4.891  14.116  0.00  0.00    +0.000 A 
ATOM      3  C   UNL     1       7.352   5.365  15.423  0.00  0.00    +0.000 A 
ATOM      4  C   UNL     1       6.408   4.987  16.376  0.00  0.00    +0.000 A 
ATOM      5  C   UNL     1       5.348   4.141  16.026  0.00  0.00    +0.000 A 
ATOM      6  C   UNL     1       5.227   3.659  14.721  0.00  0.00    +0.000 A 
ENDROOT
BRANCH   1   8
ATOM      7  O   UNL     1       7.138   3.379  11.760  0.00  0.00    +0.000 OA
ATOM      8  N   UNL     1       6.088   3.529  12.397  0.00  0.00    +0.000 N 
ATOM      9  O   UNL     1       4.956   3.280  11.959  0.00  0.00    +0.000 OA
ENDBRANCH   1   8
BRANCH   5  10
ATOM     10  C   UNL     1       4.362   3.733  17.049  0.00  0.00    +0.000 C 
ATOM     11  N   UNL     1       3.407   4.534  17.390  0.00  0.00    +0.000 NA
BRANCH  11  12
ATOM     12  C   UNL     1       2.516   4.182  18.421  0.00  0.00    +0.000 A 
ATOM     13  C   UNL     1       2.349   5.104  19.460  0.00  0.00    +0.000 A 
ATOM     14  C   UNL     1       1.587   4.789  20.591  0.00  0.00    +0.000 A 
ATOM     15  C   UNL     1       0.976   3.541  20.694  0.00  0.00    +0.000 A 
ATOM     16  C   UNL     1       1.118   2.615  19.663  0.00  0.00    +0.000 A 
ATOM     17  C   UNL     1       1.885   2.934  18.545  0.00  0.00    +0.000 A 
ATOM     18  F   UNL     1       2.030   1.998  17.593  0.00  0.00    +0.000 F 
ENDBRANCH  11  12
ENDBRANCH   5  10
TORSDOF 3
ENDMDL
MODEL 2
REMARK VINA RESULT:      -7.0      1.238      1.657
REMARK  Name = 
REMARK  3 active torsions:
REMARK  status: ('A' for Active; 'I' for Inactive)
REMARK    1  A    between atoms: N_2  and  C_4
REMARK    2  A    between atoms: C_8  and  C_9
REMARK    3  A    between atoms: N_10  and  C_11
REMARK                            x       y       z     vdW  Elec       q    Type
REMARK                         _______ _______ _______ _____ _____    ______ ____
ROOT
ATOM      1  C   UNL     1       6.024   4.033  13.634  0.00  0.00    +0.000 A 
ATOM      2  C   UNL     1       7.261   4.657  13.855  0.00  0.00    +0.000 A 
ATOM      3  C   UNL     1       7.504   5.290  15.073  0.00  0.00    +0.000 A 
ATOM      4  C   UNL     1       6.520   5.294  16.061  0.00  0.00    +0.000 A 
ATOM      5  C   UNL     1       5.284   4.677  15.833  0.00  0.00    +0.000 A 
ATOM      6  C   UNL     1       5.024   4.042  14.618  0.00  0.00    +0.000 A 
ENDROOT
BRANCH   1   8
ATOM      7  O   UNL     1       6.736   2.812  11.793  0.00  0.00    +0.000 OA
ATOM      8  N   UNL     1       5.775   3.355  12.354  0.00  0.00    +0.000 N 
ATOM      9  O   UNL     1       4.617   3.369  11.913  0.00  0.00    +0.000 OA
ENDBRANCH   1   8
BRANCH   5  10
ATOM     10  C   UNL     1       4.255   4.674  16.894  0.00  0.00    +0.000 C 
ATOM     11  N   UNL     1       4.148   3.666  17.697  0.00  0.00    +0.000 NA
BRANCH  11  12
ATOM     12  C   UNL     1       3.118   3.625  18.655  0.00  0.00    +0.000 A 
ATOM     13  C   UNL     1       2.056   2.749  18.408  0.00  0.00    +0.000 A 
ATOM     14  C   UNL     1       0.926   2.732  19.235  0.00  0.00    +0.000 A 
ATOM     15  C   UNL     1       0.849   3.594  20.326  0.00  0.00    +0.000 A 
ATOM     16  C   UNL     1       1.903   4.463  20.597  0.00  0.00    +0.000 A 
ATOM     17  C   UNL     1       3.020   4.478  19.764  0.00  0.00    +0.000 A 
ATOM     18  F   UNL     1       3.996   5.360  20.037  0.00  0.00    +0.000 F 
ENDBRANCH  11  12
ENDBRANCH   5  10
TORSDOF 3
ENDMDL
MODEL 3
REMARK VINA RESULT:      -6.9      1.186      1.304
REMARK  Name = 
REMARK  3 active torsions:
REMARK  status: ('A' for Active; 'I' for Inactive)
REMARK    1  A    between atoms: N_2  and  C_4
REMARK    2  A    between atoms: C_8  and  C_9
REMARK    3  A    between atoms: N_10  and  C_11
REMARK                            x       y       z     vdW  Elec       q    Type
REMARK                         _______ _______ _______ _____ _____    ______ ____
ROOT
ATOM      1  C   UNL     1       5.885   3.893  13.461  0.00  0.00    +0.000 A 
ATOM      2  C   UNL     1       7.094   4.604  13.420  0.00  0.00    +0.000 A 
ATOM      3  C   UNL     1       7.549   5.254  14.567  0.00  0.00    +0.000 A 
ATOM      4  C   UNL     1       6.802   5.188  15.743  0.00  0.00    +0.000 A 
ATOM      5  C   UNL     1       5.592   4.484  15.776  0.00  0.00    +0.000 A 
ATOM      6  C   UNL     1       5.122   3.831  14.635  0.00  0.00    +0.000 A 
ENDROOT
BRANCH   1   8
ATOM      7  O   UNL     1       6.158   2.345  11.754  0.00  0.00    +0.000 OA
ATOM      8  N   UNL     1       5.416   3.199  12.253  0.00  0.00    +0.000 N 
ATOM      9  O   UNL     1       4.302   3.513  11.808  0.00  0.00    +0.000 OA
ENDBRANCH   1   8
BRANCH   5  10
ATOM     10  C   UNL     1       4.817   4.408  17.032  0.00  0.00    +0.000 C 
ATOM     11  N   UNL     1       3.900   3.509  17.181  0.00  0.00    +0.000 NA
BRANCH  11  12
ATOM     12  C   UNL     1       3.106   3.485  18.342  0.00  0.00    +0.000 A 
ATOM     13  C   UNL     1       3.664   2.896  19.482  0.00  0.00    +0.000 A 
ATOM     14  C   UNL     1       2.906   2.710  20.643  0.00  0.00    +0.000 A 
ATOM     15  C   UNL     1       1.574   3.117  20.680  0.00  0.00    +0.000 A 
ATOM     16  C   UNL     1       1.005   3.719  19.560  0.00  0.00    +0.000 A 
ATOM     17  C   UNL     1       1.765   3.893  18.405  0.00  0.00    +0.000 A 
ATOM     18  F   UNL     1       1.166   4.441  17.335  0.00  0.00    +0.000 F 
ENDBRANCH  11  12
ENDBRANCH   5  10
TORSDOF 3
ENDMDL
MODEL 4
REMARK VINA RESULT:      -6.9      4.105      5.187
REMARK  Name = 
REMARK  3 active torsions:
REMARK  status: ('A' for Active; 'I' for Inactive)
REMARK    1  A    between atoms: N_2  and  C_4
REMARK    2  A    between atoms: C_8  and  C_9
REMARK    3  A    between atoms: N_10  and  C_11
REMARK                            x       y       z     vdW  Elec       q    Type
REMARK                         _______ _______ _______ _____ _____    ______ ____
ROOT
ATOM      1  C   UNL     1       5.666   4.916  17.437  0.00  0.00    +0.000 A 
ATOM      2  C   UNL     1       5.066   3.848  16.754  0.00  0.00    +0.000 A 
ATOM      3  C   UNL     1       3.695   3.630  16.887  0.00  0.00    +0.000 A 
ATOM      4  C   UNL     1       2.934   4.476  17.693  0.00  0.00    +0.000 A 
ATOM      5  C   UNL     1       3.540   5.536  18.379  0.00  0.00    +0.000 A 
ATOM      6  C   UNL     1       4.911   5.766  18.258  0.00  0.00    +0.000 A 
ENDROOT
BRANCH   1   8
ATOM      7  O   UNL     1       7.879   4.491  17.992  0.00  0.00    +0.000 OA
ATOM      8  N   UNL     1       7.109   5.151  17.283  0.00  0.00    +0.000 N 
ATOM      9  O   UNL     1       7.467   5.997  16.451  0.00  0.00    +0.000 OA
ENDBRANCH   1   8
BRANCH   5  10
ATOM     10  C   UNL     1       2.719   6.436  19.217  0.00  0.00    +0.000 C 
ATOM     11  N   UNL     1       2.341   7.586  18.763  0.00  0.00    +0.000 NA
BRANCH  11  12
ATOM     12  C   UNL     1       1.630   8.478  19.586  0.00  0.00    +0.000 A 
ATOM     13  C   UNL     1       1.477   8.120  20.930  0.00  0.00    +0.000 A 
ATOM     14  C   UNL     1       0.677   8.876  21.793  0.00  0.00    +0.000 A 
ATOM     15  C   UNL     1       0.019  10.010  21.320  0.00  0.00    +0.000 A 
ATOM     16  C   UNL     1       0.171  10.392  19.990  0.00  0.00    +0.000 A 
ATOM     17  C   UNL     1       0.963   9.628  19.135  0.00  0.00    +0.000 A 
ATOM     18  F   UNL     1       1.049  10.008  17.850  0.00  0.00    +0.000 F 
ENDBRANCH  11  12
ENDBRANCH   5  10
TORSDOF 3
ENDMDL
MODEL 5
REMARK VINA RESULT:      -6.9      3.804      7.072
REMARK  Name = 
REMARK  3 active torsions:
REMARK  status: ('A' for Active; 'I' for Inactive)
REMARK    1  A    between atoms: N_2  and  C_4
REMARK    2  A    between atoms: C_8  and  C_9
REMARK    3  A    between atoms: N_10  and  C_11
REMARK                            x       y       z     vdW  Elec       q    Type
REMARK                         _______ _______ _______ _____ _____    ______ ____
ROOT
ATOM      1  C   UNL     1       3.581   3.594  19.795  0.00  0.00    +0.000 A 
ATOM      2  C   UNL     1       2.526   4.435  20.176  0.00  0.00    +0.000 A 
ATOM      3  C   UNL     1       2.137   5.477  19.334  0.00  0.00    +0.000 A 
ATOM      4  C   UNL     1       2.797   5.670  18.121  0.00  0.00    +0.000 A 
ATOM      5  C   UNL     1       3.856   4.832  17.749  0.00  0.00    +0.000 A 
ATOM      6  C   UNL     1       4.259   3.788  18.582  0.00  0.00    +0.000 A 
ENDROOT
BRANCH   1   8
ATOM      7  O   UNL     1       5.005   1.861  20.390  0.00  0.00    +0.000 OA
ATOM      8  N   UNL     1       3.979   2.489  20.679  0.00  0.00    +0.000 N 
ATOM      9  O   UNL     1       3.261   2.255  21.661  0.00  0.00    +0.000 OA
ENDBRANCH   1   8
BRANCH   5  10
ATOM     10  C   UNL     1       4.537   5.037  16.453  0.00  0.00    +0.000 C 
ATOM     11  N   UNL     1       5.090   4.041  15.841  0.00  0.00    +0.000 NA
BRANCH  11  12
ATOM     12  C   UNL     1       5.808   4.247  14.649  0.00  0.00    +0.000 A 
ATOM     13  C   UNL     1       5.347   3.585  13.506  0.00  0.00    +0.000 A 
ATOM     14  C   UNL     1       6.069   3.625  12.308  0.00  0.00    +0.000 A 
ATOM     15  C   UNL     1       7.266   4.334  12.238  0.00  0.00    +0.000 A 
ATOM     16  C   UNL     1       7.733   5.013  13.361  0.00  0.00    +0.000 A 
ATOM     17  C   UNL     1       7.013   4.961  14.552  0.00  0.00    +0.000 A 
ATOM     18  F   UNL     1       7.520   5.595  15.622  0.00  0.00    +0.000 F 
ENDBRANCH  11  12
ENDBRANCH   5  10
TORSDOF 3
ENDMDL
MODEL 6
REMARK VINA RESULT:      -6.9      7.400      8.749
REMARK  Name = 
REMARK  3 active torsions:
REMARK  status: ('A' for Active; 'I' for Inactive)
REMARK    1  A    between atoms: N_2  and  C_4
REMARK    2  A    between atoms: C_8  and  C_9
REMARK    3  A    between atoms: N_10  and  C_11
REMARK                            x       y       z     vdW  Elec       q    Type
REMARK                         _______ _______ _______ _____ _____    ______ ____
ROOT
ATOM      1  C   UNL     1      10.550  12.482  18.443  0.00  0.00    +0.000 A 
ATOM      2  C   UNL     1      10.778  12.562  19.825  0.00  0.00    +0.000 A 
ATOM      3  C   UNL     1      10.229  11.598  20.669  0.00  0.00    +0.000 A 
ATOM      4  C   UNL     1       9.462  10.564  20.135  0.00  0.00    +0.000 A 
ATOM      5  C   UNL     1       9.231  10.493  18.755  0.00  0.00    +0.000 A 
ATOM      6  C   UNL     1       9.771  11.452  17.897  0.00  0.00    +0.000 A 
ENDROOT
BRANCH   1   8
ATOM      7  O   UNL     1      11.357  14.617  18.023  0.00  0.00    +0.000 OA
ATOM      8  N   UNL     1      11.141  13.493  17.554  0.00  0.00    +0.000 N 
ATOM      9  O   UNL     1      11.389  13.155  16.388  0.00  0.00    +0.000 OA
ENDBRANCH   1   8
BRANCH   5  10
ATOM     10  C   UNL     1       8.430   9.383  18.198  0.00  0.00    +0.000 C 
ATOM     11  N   UNL     1       8.477   8.209  18.739  0.00  0.00    +0.000 NA
BRANCH  11  12
ATOM     12  C   UNL     1       7.780   7.131  18.164  0.00  0.00    +0.000 A 
ATOM     13  C   UNL     1       6.907   7.427  17.111  0.00  0.00    +0.000 A 
ATOM     14  C   UNL     1       6.076   6.443  16.564  0.00  0.00    +0.000 A 
ATOM     15  C   UNL     1       6.111   5.143  17.064  0.00  0.00    +0.000 A 
ATOM     16  C   UNL     1       6.984   4.825  18.101  0.00  0.00    +0.000 A 
ATOM     17  C   UNL     1       7.802   5.813  18.646  0.00  0.00    +0.000 A 
ATOM     18  F   UNL     1       8.599   5.474  19.672  0.00  0.00    +0.000 F 
ENDBRANCH  11  12
ENDBRANCH   5  10
TORSDOF 3
ENDMDL
MODEL 7
REMARK VINA RESULT:      -6.9      1.379      1.926
REMARK  Name = 
REMARK  3 active torsions:
REMARK  status: ('A' for Active; 'I' for Inactive)
REMARK    1  A    between atoms: N_2  and  C_4
REMARK    2  A    between atoms: C_8  and  C_9
REMARK    3  A    between atoms: N_10  and  C_11
REMARK                            x       y       z     vdW  Elec       q    Type
REMARK                         _______ _______ _______ _____ _____    ______ ____
ROOT
ATOM      1  C   UNL     1       5.858   3.445  12.500  0.00  0.00    +0.000 A 
ATOM      2  C   UNL     1       7.099   4.028  12.203  0.00  0.00    +0.000 A 
ATOM      3  C   UNL     1       7.697   4.882  13.129  0.00  0.00    +0.000 A 
ATOM      4  C   UNL     1       7.060   5.146  14.341  0.00  0.00    +0.000 A 
ATOM      5  C   UNL     1       5.817   4.567  14.629  0.00  0.00    +0.000 A 
ATOM      6  C   UNL     1       5.204   3.713  13.712  0.00  0.00    +0.000 A 
ENDROOT
BRANCH   1   8
ATOM      7  O   UNL     1       4.143   2.862  11.049  0.00  0.00    +0.000 OA
ATOM      8  N   UNL     1       5.236   2.535  11.527  0.00  0.00    +0.000 N 
ATOM      9  O   UNL     1       5.847   1.495  11.245  0.00  0.00    +0.000 OA
ENDBRANCH   1   8
BRANCH   5  10
ATOM     10  C   UNL     1       5.160   4.842  15.924  0.00  0.00    +0.000 C 
ATOM     11  N   UNL     1       4.594   3.885  16.584  0.00  0.00    +0.000 NA
BRANCH  11  12
ATOM     12  C   UNL     1       3.897   4.156  17.776  0.00  0.00    +0.000 A 
ATOM     13  C   UNL     1       3.920   5.476  18.240  0.00  0.00    +0.000 A 
ATOM     14  C   UNL     1       3.367   5.816  19.480  0.00  0.00    +0.000 A 
ATOM     15  C   UNL     1       2.779   4.834  20.274  0.00  0.00    +0.000 A 
ATOM     16  C   UNL     1       2.733   3.517  19.823  0.00  0.00    +0.000 A 
ATOM     17  C   UNL     1       3.293   3.187  18.591  0.00  0.00    +0.000 A 
ATOM     18  F   UNL     1       3.263   1.898  18.212  0.00  0.00    +0.000 F 
ENDBRANCH  11  12
ENDBRANCH   5  10
TORSDOF 3
ENDMDL
MODEL 8
REMARK VINA RESULT:      -6.8      6.373      8.428
REMARK  Name = 
REMARK  3 active torsions:
REMARK  status: ('A' for Active; 'I' for Inactive)
REMARK    1  A    between atoms: N_2  and  C_4
REMARK    2  A    between atoms: C_8  and  C_9
REMARK    3  A    between atoms: N_10  and  C_11
REMARK                            x       y       z     vdW  Elec       q    Type
REMARK                         _______ _______ _______ _____ _____    ______ ____
ROOT
ATOM      1  C   UNL     1       6.341   6.050  17.050  0.00  0.00    +0.000 A 
ATOM      2  C   UNL     1       6.756   5.102  17.997  0.00  0.00    +0.000 A 
ATOM      3  C   UNL     1       7.704   5.458  18.957  0.00  0.00    +0.000 A 
ATOM      4  C   UNL     1       8.227   6.750  18.968  0.00  0.00    +0.000 A 
ATOM      5  C   UNL     1       7.815   7.690  18.014  0.00  0.00    +0.000 A 
ATOM      6  C   UNL     1       6.870   7.349  17.046  0.00  0.00    +0.000 A 
ENDROOT
BRANCH   1   8
ATOM      7  O   UNL     1       4.658   4.660  16.261  0.00  0.00    +0.000 OA
ATOM      8  N   UNL     1       5.333   5.675  16.048  0.00  0.00    +0.000 N 
ATOM      9  O   UNL     1       5.220   6.401  15.050  0.00  0.00    +0.000 OA
ENDBRANCH   1   8
BRANCH   5  10
ATOM     10  C   UNL     1       8.365   9.062  18.047  0.00  0.00    +0.000 C 
ATOM     11  N   UNL     1       9.041   9.470  19.071  0.00  0.00    +0.000 NA
BRANCH  11  12
ATOM     12  C   UNL     1       9.496  10.799  19.141  0.00  0.00    +0.000 A 
ATOM     13  C   UNL     1       9.929  11.387  17.948  0.00  0.00    +0.000 A 
ATOM     14  C   UNL     1      10.519  12.656  17.940  0.00  0.00    +0.000 A 
ATOM     15  C   UNL     1      10.679  13.358  19.132  0.00  0.00    +0.000 A 
ATOM     16  C   UNL     1      10.239  12.797  20.329  0.00  0.00    +0.000 A 
ATOM     17  C   UNL     1       9.662  11.529  20.328  0.00  0.00    +0.000 A 
ATOM     18  F   UNL     1       9.289  11.007  21.509  0.00  0.00    +0.000 F 
ENDBRANCH  11  12
ENDBRANCH   5  10
TORSDOF 3
ENDMDL
MODEL 9
REMARK VINA RESULT:      -6.8      6.214      8.594
REMARK  Name = 
REMARK  3 active torsions:
REMARK  status: ('A' for Active; 'I' for Inactive)
REMARK    1  A    between atoms: N_2  and  C_4
REMARK    2  A    between atoms: C_8  and  C_9
REMARK    3  A    between atoms: N_10  and  C_11
REMARK                            x       y       z     vdW  Elec       q    Type
REMARK                         _______ _______ _______ _____ _____    ______ ____
ROOT
ATOM      1  C   UNL     1       0.242   9.963  21.619  0.00  0.00    +0.000 A 
ATOM      2  C   UNL     1      -0.184  10.864  20.631  0.00  0.00    +0.000 A 
ATOM      3  C   UNL     1       0.184  10.653  19.303  0.00  0.00    +0.000 A 
ATOM      4  C   UNL     1       0.968   9.550  18.967  0.00  0.00    +0.000 A 
ATOM      5  C   UNL     1       1.398   8.658  19.959  0.00  0.00    +0.000 A 
ATOM      6  C   UNL     1       1.040   8.856  21.293  0.00  0.00    +0.000 A 
ENDROOT
BRANCH   1   8
ATOM      7  O   UNL     1      -1.056  11.005  23.236  0.00  0.00    +0.000 OA
ATOM      8  N   UNL     1      -0.159  10.181  23.016  0.00  0.00    +0.000 N 
ATOM      9  O   UNL     1       0.426   9.525  23.889  0.00  0.00    +0.000 OA
ENDBRANCH   1   8
BRANCH   5  10
ATOM     10  C   UNL     1       2.214   7.483  19.588  0.00  0.00    +0.000 C 
ATOM     11  N   UNL     1       2.330   7.133  18.349  0.00  0.00    +0.000 NA
BRANCH  11  12
ATOM     12  C   UNL     1       3.039   5.968  18.001  0.00  0.00    +0.000 A 
ATOM     13  C   UNL     1       4.402   6.113  17.723  0.00  0.00    +0.000 A 
ATOM     14  C   UNL     1       5.160   5.039  17.243  0.00  0.00    +0.000 A 
ATOM     15  C   UNL     1       4.560   3.799  17.038  0.00  0.00    +0.000 A 
ATOM     16  C   UNL     1       3.207   3.631  17.322  0.00  0.00    +0.000 A 
ATOM     17  C   UNL     1       2.458   4.708  17.792  0.00  0.00    +0.000 A 
ATOM     18  F   UNL     1       1.148   4.513  18.015  0.00  0.00    +0.000 F 
ENDBRANCH  11  12
ENDBRANCH   5  10
TORSDOF 3
ENDMDL
