MODEL 1
REMARK VINA RESULT:      -8.7      0.000      0.000
REMARK  Name = 
REMARK  8 active torsions:
REMARK  status: ('A' for Active; 'I' for Inactive)
REMARK    1  A    between atoms: C_2  and  C_3
REMARK    2  A    between atoms: C_3  and  S_4
REMARK    3  A    between atoms: S_4  and  C_5
REMARK    4  A    between atoms: C_8  and  O_9
REMARK    5  A    between atoms: N_10  and  C_11
REMARK    6  A    between atoms: C_11  and  C_12
REMARK    7  A    between atoms: N_18  and  C_19
REMARK    8  A    between atoms: C_24  and  C_25
REMARK                            x       y       z     vdW  Elec       q    Type
REMARK                         _______ _______ _______ _____ _____    ______ ____
ROOT
ATOM      1  O   UNL     1       1.853   6.319  20.771  0.00  0.00    +0.000 OA
ATOM      2  C   UNL     1       2.023   7.008  19.766  0.00  0.00    +0.000 C 
ATOM      3  N   UNL     1       2.491   6.503  18.551  0.00  0.00    +0.000 N 
ATOM      4  H   UNL     1       3.022   7.139  17.967  0.00  0.00    +0.000 HD
ENDROOT
BRANCH   3   5
ATOM      5  C   UNL     1       2.724   5.113  18.326  0.00  0.00    +0.000 A 
ATOM      6  C   UNL     1       1.616   4.242  18.339  0.00  0.00    +0.000 A 
ATOM      7  C   UNL     1       1.750   2.894  17.994  0.00  0.00    +0.000 A 
ATOM      8  C   UNL     1       2.993   2.391  17.646  0.00  0.00    +0.000 A 
ATOM      9  C   UNL     1       4.104   3.235  17.666  0.00  0.00    +0.000 A 
ATOM     10  C   UNL     1       4.014   4.611  18.003  0.00  0.00    +0.000 A 
BRANCH  10  11
ATOM     11  C   UNL     1       5.281   5.393  18.137  0.00  0.00    +0.000 A 
ATOM     12  C   UNL     1       5.679   6.334  17.166  0.00  0.00    +0.000 A 
ATOM     13  C   UNL     1       6.927   6.967  17.221  0.00  0.00    +0.000 A 
ATOM     14  C   UNL     1       7.791   6.714  18.279  0.00  0.00    +0.000 A 
ATOM     15  C   UNL     1       7.419   5.812  19.267  0.00  0.00    +0.000 A 
ATOM     16  C   UNL     1       6.197   5.141  19.175  0.00  0.00    +0.000 A 
ENDBRANCH  10  11
ENDBRANCH   3   5
BRANCH   2  17
ATOM     17  C   UNL     1       1.715   8.506  19.762  0.00  0.00    +0.000 C 
BRANCH  17  18
ATOM     18  S   UNL     1       1.729   9.241  18.075  0.00  0.00    +0.000 S 
BRANCH  18  19
ATOM     19  C   UNL     1       1.292  10.882  18.461  0.00  0.00    +0.000 A 
ATOM     20  N   UNL     1       2.150  11.886  18.462  0.00  0.00    +0.000 NA
ATOM     21  N   UNL     1       1.483  13.024  18.842  0.00  0.00    +0.000 NA
ATOM     22  C   UNL     1       0.242  12.680  19.065  0.00  0.00    +0.000 A 
ATOM     23  N   UNL     1       0.050  11.343  18.829  0.00  0.00    +0.000 N 
BRANCH  22  24
ATOM     24  O   UNL     1      -0.675  13.522  19.495  0.00  0.00    +0.000 OA
ATOM     25  H   UNL     1      -0.383  14.365  19.100  0.00  0.00    +0.000 HD
ENDBRANCH  22  24
BRANCH  23  26
ATOM     26  C   UNL     1      -1.184  10.638  19.122  0.00  0.00    +0.000 C 
BRANCH  26  27
ATOM     27  C   UNL     1      -2.169  10.637  17.974  0.00  0.00    +0.000 A 
ATOM     28  C   UNL     1      -3.312  11.448  18.025  0.00  0.00    +0.000 A 
ATOM     29  C   UNL     1      -4.204  11.489  16.950  0.00  0.00    +0.000 A 
ATOM     30  C   UNL     1      -3.974  10.718  15.812  0.00  0.00    +0.000 A 
ATOM     31  C   UNL     1      -2.846   9.906  15.746  0.00  0.00    +0.000 A 
ATOM     32  C   UNL     1      -1.948   9.869  16.817  0.00  0.00    +0.000 A 
ENDBRANCH  26  27
ENDBRANCH  23  26
ENDBRANCH  18  19
ENDBRANCH  17  18
ENDBRANCH   2  17
TORSDOF 8
ENDMDL
MODEL 2
REMARK VINA RESULT:      -8.6      0.701      1.119
REMARK  Name = 
REMARK  8 active torsions:
REMARK  status: ('A' for Active; 'I' for Inactive)
REMARK    1  A    between atoms: C_2  and  C_3
REMARK    2  A    between atoms: C_3  and  S_4
REMARK    3  A    between atoms: S_4  and  C_5
REMARK    4  A    between atoms: C_8  and  O_9
REMARK    5  A    between atoms: N_10  and  C_11
REMARK    6  A    between atoms: C_11  and  C_12
REMARK    7  A    between atoms: N_18  and  C_19
REMARK    8  A    between atoms: C_24  and  C_25
REMARK                            x       y       z     vdW  Elec       q    Type
REMARK                         _______ _______ _______ _____ _____    ______ ____
ROOT
ATOM      1  O   UNL     1       2.007   6.735  20.256  0.00  0.00    +0.000 OA
ATOM      2  C   UNL     1       2.193   7.219  19.140  0.00  0.00    +0.000 C 
ATOM      3  N   UNL     1       2.598   6.476  18.029  0.00  0.00    +0.000 N 
ATOM      4  H   UNL     1       3.150   6.961  17.332  0.00  0.00    +0.000 HD
ENDROOT
BRANCH   3   5
ATOM      5  C   UNL     1       2.739   5.056  18.056  0.00  0.00    +0.000 A 
ATOM      6  C   UNL     1       1.571   4.272  18.147  0.00  0.00    +0.000 A 
ATOM      7  C   UNL     1       1.623   2.879  18.043  0.00  0.00    +0.000 A 
ATOM      8  C   UNL     1       2.843   2.246  17.862  0.00  0.00    +0.000 A 
ATOM      9  C   UNL     1       4.010   3.008  17.808  0.00  0.00    +0.000 A 
ATOM     10  C   UNL     1       4.003   4.425  17.902  0.00  0.00    +0.000 A 
BRANCH  10  11
ATOM     11  C   UNL     1       5.316   5.136  17.981  0.00  0.00    +0.000 A 
ATOM     12  C   UNL     1       6.145   5.040  19.117  0.00  0.00    +0.000 A 
ATOM     13  C   UNL     1       7.308   5.809  19.248  0.00  0.00    +0.000 A 
ATOM     14  C   UNL     1       7.701   6.659  18.222  0.00  0.00    +0.000 A 
ATOM     15  C   UNL     1       6.920   6.758  17.077  0.00  0.00    +0.000 A 
ATOM     16  C   UNL     1       5.732   6.031  16.978  0.00  0.00    +0.000 A 
ENDBRANCH  10  11
ENDBRANCH   3   5
BRANCH   2  17
ATOM     17  C   UNL     1       1.976   8.710  18.870  0.00  0.00    +0.000 C 
BRANCH  17  18
ATOM     18  S   UNL     1       0.812   9.496  20.058  0.00  0.00    +0.000 S 
BRANCH  18  19
ATOM     19  C   UNL     1       0.729  11.097  19.379  0.00  0.00    +0.000 A 
ATOM     20  N   UNL     1       1.791  11.840  19.126  0.00  0.00    +0.000 NA
ATOM     21  N   UNL     1       1.366  13.048  18.631  0.00  0.00    +0.000 NA
ATOM     22  C   UNL     1       0.060  13.006  18.601  0.00  0.00    +0.000 A 
ATOM     23  N   UNL     1      -0.407  11.797  19.047  0.00  0.00    +0.000 N 
BRANCH  22  24
ATOM     24  O   UNL     1      -0.686  14.024  18.222  0.00  0.00    +0.000 OA
ATOM     25  H   UNL     1      -1.577  13.628  18.196  0.00  0.00    +0.000 HD
ENDBRANCH  22  24
BRANCH  23  26
ATOM     26  C   UNL     1      -1.811  11.501  19.262  0.00  0.00    +0.000 C 
BRANCH  26  27
ATOM     27  C   UNL     1      -2.545  11.099  18.002  0.00  0.00    +0.000 A 
ATOM     28  C   UNL     1      -3.836  11.587  17.752  0.00  0.00    +0.000 A 
ATOM     29  C   UNL     1      -4.505  11.259  16.569  0.00  0.00    +0.000 A 
ATOM     30  C   UNL     1      -3.901  10.435  15.622  0.00  0.00    +0.000 A 
ATOM     31  C   UNL     1      -2.622   9.940  15.855  0.00  0.00    +0.000 A 
ATOM     32  C   UNL     1      -1.947  10.273  17.035  0.00  0.00    +0.000 A 
ENDBRANCH  26  27
ENDBRANCH  23  26
ENDBRANCH  18  19
ENDBRANCH  17  18
ENDBRANCH   2  17
TORSDOF 8
ENDMDL
MODEL 3
REMARK VINA RESULT:      -8.5      0.312      1.278
REMARK  Name = 
REMARK  8 active torsions:
REMARK  status: ('A' for Active; 'I' for Inactive)
REMARK    1  A    between atoms: C_2  and  C_3
REMARK    2  A    between atoms: C_3  and  S_4
REMARK    3  A    between atoms: S_4  and  C_5
REMARK    4  A    between atoms: C_8  and  O_9
REMARK    5  A    between atoms: N_10  and  C_11
REMARK    6  A    between atoms: C_11  and  C_12
REMARK    7  A    between atoms: N_18  and  C_19
REMARK    8  A    between atoms: C_24  and  C_25
REMARK                            x       y       z     vdW  Elec       q    Type
REMARK                         _______ _______ _______ _____ _____    ______ ____
ROOT
ATOM      1  O   UNL     1       2.251   6.237  20.777  0.00  0.00    +0.000 OA
ATOM      2  C   UNL     1       2.194   6.849  19.710  0.00  0.00    +0.000 C 
ATOM      3  N   UNL     1       2.408   6.256  18.464  0.00  0.00    +0.000 N 
ATOM      4  H   UNL     1       2.793   6.848  17.737  0.00  0.00    +0.000 HD
ENDROOT
BRANCH   3   5
ATOM      5  C   UNL     1       2.616   4.854  18.298  0.00  0.00    +0.000 A 
ATOM      6  C   UNL     1       1.506   3.997  18.425  0.00  0.00    +0.000 A 
ATOM      7  C   UNL     1       1.608   2.631  18.144  0.00  0.00    +0.000 A 
ATOM      8  C   UNL     1       2.823   2.098  17.745  0.00  0.00    +0.000 A 
ATOM      9  C   UNL     1       3.939   2.930  17.652  0.00  0.00    +0.000 A 
ATOM     10  C   UNL     1       3.880   4.323  17.921  0.00  0.00    +0.000 A 
BRANCH  10  11
ATOM     11  C   UNL     1       5.158   5.097  17.935  0.00  0.00    +0.000 A 
ATOM     12  C   UNL     1       6.116   4.931  18.957  0.00  0.00    +0.000 A 
ATOM     13  C   UNL     1       7.249   5.749  19.045  0.00  0.00    +0.000 A 
ATOM     14  C   UNL     1       7.482   6.724  18.082  0.00  0.00    +0.000 A 
ATOM     15  C   UNL     1       6.572   6.896  17.047  0.00  0.00    +0.000 A 
ATOM     16  C   UNL     1       5.415   6.115  16.997  0.00  0.00    +0.000 A 
ENDBRANCH  10  11
ENDBRANCH   3   5
BRANCH   2  17
ATOM     17  C   UNL     1       1.862   8.342  19.662  0.00  0.00    +0.000 C 
BRANCH  17  18
ATOM     18  S   UNL     1       1.845   9.021  17.952  0.00  0.00    +0.000 S 
BRANCH  18  19
ATOM     19  C   UNL     1       1.494  10.691  18.298  0.00  0.00    +0.000 A 
ATOM     20  N   UNL     1       2.391  11.657  18.228  0.00  0.00    +0.000 NA
ATOM     21  N   UNL     1       1.789  12.835  18.595  0.00  0.00    +0.000 NA
ATOM     22  C   UNL     1       0.546  12.551  18.882  0.00  0.00    +0.000 A 
ATOM     23  N   UNL     1       0.289  11.216  18.702  0.00  0.00    +0.000 N 
BRANCH  22  24
ATOM     24  O   UNL     1      -0.316  13.445  19.322  0.00  0.00    +0.000 OA
ATOM     25  H   UNL     1      -0.623  13.044  20.156  0.00  0.00    +0.000 HD
ENDBRANCH  22  24
BRANCH  23  26
ATOM     26  C   UNL     1      -0.959  10.575  19.072  0.00  0.00    +0.000 C 
BRANCH  26  27
ATOM     27  C   UNL     1      -2.021  10.652  17.999  0.00  0.00    +0.000 A 
ATOM     28  C   UNL     1      -1.927   9.848  16.854  0.00  0.00    +0.000 A 
ATOM     29  C   UNL     1      -2.927   9.877  15.878  0.00  0.00    +0.000 A 
ATOM     30  C   UNL     1      -4.031  10.714  16.024  0.00  0.00    +0.000 A 
ATOM     31  C   UNL     1      -4.141  11.521  17.153  0.00  0.00    +0.000 A 
ATOM     32  C   UNL     1      -3.145  11.487  18.135  0.00  0.00    +0.000 A 
ENDBRANCH  26  27
ENDBRANCH  23  26
ENDBRANCH  18  19
ENDBRANCH  17  18
ENDBRANCH   2  17
TORSDOF 8
ENDMDL
MODEL 4
REMARK VINA RESULT:      -8.3      2.070      3.066
REMARK  Name = 
REMARK  8 active torsions:
REMARK  status: ('A' for Active; 'I' for Inactive)
REMARK    1  A    between atoms: C_2  and  C_3
REMARK    2  A    between atoms: C_3  and  S_4
REMARK    3  A    between atoms: S_4  and  C_5
REMARK    4  A    between atoms: C_8  and  O_9
REMARK    5  A    between atoms: N_10  and  C_11
REMARK    6  A    between atoms: C_11  and  C_12
REMARK    7  A    between atoms: N_18  and  C_19
REMARK    8  A    between atoms: C_24  and  C_25
REMARK                            x       y       z     vdW  Elec       q    Type
REMARK                         _______ _______ _______ _____ _____    ______ ____
ROOT
ATOM      1  O   UNL     1       2.611   7.016  19.786  0.00  0.00    +0.000 OA
ATOM      2  C   UNL     1       2.382   7.197  18.591  0.00  0.00    +0.000 C 
ATOM      3  N   UNL     1       2.384   6.175  17.638  0.00  0.00    +0.000 N 
ATOM      4  H   UNL     1       2.646   6.433  16.694  0.00  0.00    +0.000 HD
ENDROOT
BRANCH   3   5
ATOM      5  C   UNL     1       2.554   4.799  17.977  0.00  0.00    +0.000 A 
ATOM      6  C   UNL     1       1.401   4.015  18.175  0.00  0.00    +0.000 A 
ATOM      7  C   UNL     1       1.489   2.634  18.376  0.00  0.00    +0.000 A 
ATOM      8  C   UNL     1       2.730   2.018  18.397  0.00  0.00    +0.000 A 
ATOM      9  C   UNL     1       3.881   2.790  18.239  0.00  0.00    +0.000 A 
ATOM     10  C   UNL     1       3.839   4.193  18.026  0.00  0.00    +0.000 A 
BRANCH  10  11
ATOM     11  C   UNL     1       5.129   4.948  18.016  0.00  0.00    +0.000 A 
ATOM     12  C   UNL     1       5.727   5.381  16.815  0.00  0.00    +0.000 A 
ATOM     13  C   UNL     1       6.998   5.968  16.794  0.00  0.00    +0.000 A 
ATOM     14  C   UNL     1       7.686   6.185  17.981  0.00  0.00    +0.000 A 
ATOM     15  C   UNL     1       7.114   5.794  19.185  0.00  0.00    +0.000 A 
ATOM     16  C   UNL     1       5.871   5.157  19.194  0.00  0.00    +0.000 A 
ENDBRANCH  10  11
ENDBRANCH   3   5
BRANCH   2  17
ATOM     17  C   UNL     1       2.054   8.586  18.041  0.00  0.00    +0.000 C 
BRANCH  17  18
ATOM     18  S   UNL     1       1.290   9.696  19.295  0.00  0.00    +0.000 S 
BRANCH  18  19
ATOM     19  C   UNL     1      -0.166  10.142  18.450  0.00  0.00    +0.000 A 
ATOM     20  N   UNL     1      -0.679   9.440  17.457  0.00  0.00    +0.000 NA
ATOM     21  N   UNL     1      -1.800  10.090  17.002  0.00  0.00    +0.000 NA
ATOM     22  C   UNL     1      -1.933  11.168  17.728  0.00  0.00    +0.000 A 
ATOM     23  N   UNL     1      -0.942  11.255  18.671  0.00  0.00    +0.000 N 
BRANCH  22  24
ATOM     24  O   UNL     1      -2.885  12.058  17.531  0.00  0.00    +0.000 OA
ATOM     25  H   UNL     1      -3.322  11.718  16.728  0.00  0.00    +0.000 HD
ENDBRANCH  22  24
BRANCH  23  26
ATOM     26  C   UNL     1      -0.742  12.407  19.531  0.00  0.00    +0.000 C 
BRANCH  26  27
ATOM     27  C   UNL     1      -1.437  12.292  20.869  0.00  0.00    +0.000 A 
ATOM     28  C   UNL     1      -2.692  12.886  21.066  0.00  0.00    +0.000 A 
ATOM     29  C   UNL     1      -3.363  12.746  22.284  0.00  0.00    +0.000 A 
ATOM     30  C   UNL     1      -2.791  12.019  23.326  0.00  0.00    +0.000 A 
ATOM     31  C   UNL     1      -1.546  11.425  23.149  0.00  0.00    +0.000 A 
ATOM     32  C   UNL     1      -0.875  11.557  21.929  0.00  0.00    +0.000 A 
ENDBRANCH  26  27
ENDBRANCH  23  26
ENDBRANCH  18  19
ENDBRANCH  17  18
ENDBRANCH   2  17
TORSDOF 8
ENDMDL
MODEL 5
REMARK VINA RESULT:      -8.3      2.088      2.449
REMARK  Name = 
REMARK  8 active torsions:
REMARK  status: ('A' for Active; 'I' for Inactive)
REMARK    1  A    between atoms: C_2  and  C_3
REMARK    2  A    between atoms: C_3  and  S_4
REMARK    3  A    between atoms: S_4  and  C_5
REMARK    4  A    between atoms: C_8  and  O_9
REMARK    5  A    between atoms: N_10  and  C_11
REMARK    6  A    between atoms: C_11  and  C_12
REMARK    7  A    between atoms: N_18  and  C_19
REMARK    8  A    between atoms: C_24  and  C_25
REMARK                            x       y       z     vdW  Elec       q    Type
REMARK                         _______ _______ _______ _____ _____    ______ ____
ROOT
ATOM      1  O   UNL     1       1.875   6.012  17.687  0.00  0.00    +0.000 OA
ATOM      2  C   UNL     1       2.501   6.790  18.407  0.00  0.00    +0.000 C 
ATOM      3  N   UNL     1       3.082   6.424  19.623  0.00  0.00    +0.000 N 
ATOM      4  H   UNL     1       3.153   7.146  20.330  0.00  0.00    +0.000 HD
ENDROOT
BRANCH   3   5
ATOM      5  C   UNL     1       3.092   5.080  20.104  0.00  0.00    +0.000 A 
ATOM      6  C   UNL     1       2.204   4.738  21.143  0.00  0.00    +0.000 A 
ATOM      7  C   UNL     1       2.064   3.415  21.571  0.00  0.00    +0.000 A 
ATOM      8  C   UNL     1       2.819   2.415  20.979  0.00  0.00    +0.000 A 
ATOM      9  C   UNL     1       3.729   2.746  19.975  0.00  0.00    +0.000 A 
ATOM     10  C   UNL     1       3.899   4.075  19.505  0.00  0.00    +0.000 A 
BRANCH  10  11
ATOM     11  C   UNL     1       5.001   4.347  18.532  0.00  0.00    +0.000 A 
ATOM     12  C   UNL     1       4.881   4.023  17.165  0.00  0.00    +0.000 A 
ATOM     13  C   UNL     1       5.959   4.153  16.280  0.00  0.00    +0.000 A 
ATOM     14  C   UNL     1       7.172   4.659  16.728  0.00  0.00    +0.000 A 
ATOM     15  C   UNL     1       7.316   5.013  18.063  0.00  0.00    +0.000 A 
ATOM     16  C   UNL     1       6.256   4.827  18.953  0.00  0.00    +0.000 A 
ENDBRANCH  10  11
ENDBRANCH   3   5
BRANCH   2  17
ATOM     17  C   UNL     1       2.711   8.253  18.011  0.00  0.00    +0.000 C 
BRANCH  17  18
ATOM     18  S   UNL     1       1.136   9.195  17.871  0.00  0.00    +0.000 S 
BRANCH  18  19
ATOM     19  C   UNL     1       0.940   9.695  19.527  0.00  0.00    +0.000 A 
ATOM     20  N   UNL     1       1.208   8.919  20.562  0.00  0.00    +0.000 NA
ATOM     21  N   UNL     1       0.912   9.612  21.710  0.00  0.00    +0.000 NA
ATOM     22  C   UNL     1       0.469  10.784  21.341  0.00  0.00    +0.000 A 
ATOM     23  N   UNL     1       0.475  10.908  19.976  0.00  0.00    +0.000 N 
BRANCH  22  24
ATOM     24  O   UNL     1       0.044  11.696  22.192  0.00  0.00    +0.000 OA
ATOM     25  H   UNL     1       0.879  12.092  22.504  0.00  0.00    +0.000 HD
ENDBRANCH  22  24
BRANCH  23  26
ATOM     26  C   UNL     1      -0.090  12.040  19.263  0.00  0.00    +0.000 C 
BRANCH  26  27
ATOM     27  C   UNL     1      -1.559  11.881  18.942  0.00  0.00    +0.000 A 
ATOM     28  C   UNL     1      -2.531  12.381  19.820  0.00  0.00    +0.000 A 
ATOM     29  C   UNL     1      -3.890  12.281  19.509  0.00  0.00    +0.000 A 
ATOM     30  C   UNL     1      -4.301  11.675  18.324  0.00  0.00    +0.000 A 
ATOM     31  C   UNL     1      -3.350  11.172  17.442  0.00  0.00    +0.000 A 
ATOM     32  C   UNL     1      -1.989  11.277  17.747  0.00  0.00    +0.000 A 
ENDBRANCH  26  27
ENDBRANCH  23  26
ENDBRANCH  18  19
ENDBRANCH  17  18
ENDBRANCH   2  17
TORSDOF 8
ENDMDL
MODEL 6
REMARK VINA RESULT:      -8.2      1.121      1.425
REMARK  Name = 
REMARK  8 active torsions:
REMARK  status: ('A' for Active; 'I' for Inactive)
REMARK    1  A    between atoms: C_2  and  C_3
REMARK    2  A    between atoms: C_3  and  S_4
REMARK    3  A    between atoms: S_4  and  C_5
REMARK    4  A    between atoms: C_8  and  O_9
REMARK    5  A    between atoms: N_10  and  C_11
REMARK    6  A    between atoms: C_11  and  C_12
REMARK    7  A    between atoms: N_18  and  C_19
REMARK    8  A    between atoms: C_24  and  C_25
REMARK                            x       y       z     vdW  Elec       q    Type
REMARK                         _______ _______ _______ _____ _____    ______ ____
ROOT
ATOM      1  O   UNL     1       1.898   6.533  18.033  0.00  0.00    +0.000 OA
ATOM      2  C   UNL     1       2.284   7.021  19.094  0.00  0.00    +0.000 C 
ATOM      3  N   UNL     1       2.921   6.287  20.098  0.00  0.00    +0.000 N 
ATOM      4  H   UNL     1       2.788   6.606  21.050  0.00  0.00    +0.000 HD
ENDROOT
BRANCH   3   5
ATOM      5  C   UNL     1       3.279   4.914  19.947  0.00  0.00    +0.000 A 
ATOM      6  C   UNL     1       2.415   3.938  20.482  0.00  0.00    +0.000 A 
ATOM      7  C   UNL     1       2.631   2.575  20.255  0.00  0.00    +0.000 A 
ATOM      8  C   UNL     1       3.721   2.165  19.504  0.00  0.00    +0.000 A 
ATOM      9  C   UNL     1       4.605   3.121  19.000  0.00  0.00    +0.000 A 
ATOM     10  C   UNL     1       4.421   4.514  19.200  0.00  0.00    +0.000 A 
BRANCH  10  11
ATOM     11  C   UNL     1       5.500   5.444  18.746  0.00  0.00    +0.000 A 
ATOM     12  C   UNL     1       5.345   6.262  17.609  0.00  0.00    +0.000 A 
ATOM     13  C   UNL     1       6.401   7.032  17.106  0.00  0.00    +0.000 A 
ATOM     14  C   UNL     1       7.628   7.044  17.757  0.00  0.00    +0.000 A 
ATOM     15  C   UNL     1       7.806   6.269  18.896  0.00  0.00    +0.000 A 
ATOM     16  C   UNL     1       6.767   5.460  19.359  0.00  0.00    +0.000 A 
ENDBRANCH  10  11
ENDBRANCH   3   5
BRANCH   2  17
ATOM     17  C   UNL     1       2.106   8.508  19.403  0.00  0.00    +0.000 C 
BRANCH  17  18
ATOM     18  S   UNL     1       1.770   9.520  17.902  0.00  0.00    +0.000 S 
BRANCH  18  19
ATOM     19  C   UNL     1       1.193  10.982  18.652  0.00  0.00    +0.000 A 
ATOM     20  N   UNL     1       1.965  12.018  18.924  0.00  0.00    +0.000 NA
ATOM     21  N   UNL     1       1.200  12.978  19.539  0.00  0.00    +0.000 NA
ATOM     22  C   UNL     1      -0.012  12.497  19.628  0.00  0.00    +0.000 A 
ATOM     23  N   UNL     1      -0.088  11.246  19.073  0.00  0.00    +0.000 N 
BRANCH  22  24
ATOM     24  O   UNL     1      -1.002  13.139  20.213  0.00  0.00    +0.000 OA
ATOM     25  H   UNL     1      -1.744  12.976  19.601  0.00  0.00    +0.000 HD
ENDBRANCH  22  24
BRANCH  23  26
ATOM     26  C   UNL     1      -1.266  10.400  19.145  0.00  0.00    +0.000 C 
BRANCH  26  27
ATOM     27  C   UNL     1      -2.198  10.558  17.965  0.00  0.00    +0.000 A 
ATOM     28  C   UNL     1      -1.984   9.819  16.793  0.00  0.00    +0.000 A 
ATOM     29  C   UNL     1      -2.866   9.924  15.714  0.00  0.00    +0.000 A 
ATOM     30  C   UNL     1      -3.970  10.771  15.784  0.00  0.00    +0.000 A 
ATOM     31  C   UNL     1      -4.197  11.513  16.939  0.00  0.00    +0.000 A 
ATOM     32  C   UNL     1      -3.320  11.405  18.023  0.00  0.00    +0.000 A 
ENDBRANCH  26  27
ENDBRANCH  23  26
ENDBRANCH  18  19
ENDBRANCH  17  18
ENDBRANCH   2  17
TORSDOF 8
ENDMDL
MODEL 7
REMARK VINA RESULT:      -8.1      2.531      3.639
REMARK  Name = 
REMARK  8 active torsions:
REMARK  status: ('A' for Active; 'I' for Inactive)
REMARK    1  A    between atoms: C_2  and  C_3
REMARK    2  A    between atoms: C_3  and  S_4
REMARK    3  A    between atoms: S_4  and  C_5
REMARK    4  A    between atoms: C_8  and  O_9
REMARK    5  A    between atoms: N_10  and  C_11
REMARK    6  A    between atoms: C_11  and  C_12
REMARK    7  A    between atoms: N_18  and  C_19
REMARK    8  A    between atoms: C_24  and  C_25
REMARK                            x       y       z     vdW  Elec       q    Type
REMARK                         _______ _______ _______ _____ _____    ______ ____
ROOT
ATOM      1  O   UNL     1       1.856   6.066  17.685  0.00  0.00    +0.000 OA
ATOM      2  C   UNL     1       2.450   6.848  18.427  0.00  0.00    +0.000 C 
ATOM      3  N   UNL     1       3.006   6.481  19.655  0.00  0.00    +0.000 N 
ATOM      4  H   UNL     1       3.047   7.198  20.370  0.00  0.00    +0.000 HD
ENDROOT
BRANCH   3   5
ATOM      5  C   UNL     1       3.030   5.133  20.123  0.00  0.00    +0.000 A 
ATOM      6  C   UNL     1       2.105   4.758  21.118  0.00  0.00    +0.000 A 
ATOM      7  C   UNL     1       1.980   3.427  21.527  0.00  0.00    +0.000 A 
ATOM      8  C   UNL     1       2.787   2.453  20.961  0.00  0.00    +0.000 A 
ATOM      9  C   UNL     1       3.733   2.819  20.002  0.00  0.00    +0.000 A 
ATOM     10  C   UNL     1       3.890   4.156  19.553  0.00  0.00    +0.000 A 
BRANCH  10  11
ATOM     11  C   UNL     1       5.027   4.466  18.634  0.00  0.00    +0.000 A 
ATOM     12  C   UNL     1       5.005   4.097  17.273  0.00  0.00    +0.000 A 
ATOM     13  C   UNL     1       6.121   4.266  16.445  0.00  0.00    +0.000 A 
ATOM     14  C   UNL     1       7.276   4.858  16.943  0.00  0.00    +0.000 A 
ATOM     15  C   UNL     1       7.322   5.257  18.272  0.00  0.00    +0.000 A 
ATOM     16  C   UNL     1       6.226   5.033  19.108  0.00  0.00    +0.000 A 
ENDBRANCH  10  11
ENDBRANCH   3   5
BRANCH   2  17
ATOM     17  C   UNL     1       2.641   8.319  18.050  0.00  0.00    +0.000 C 
BRANCH  17  18
ATOM     18  S   UNL     1       1.053   9.236  17.896  0.00  0.00    +0.000 S 
BRANCH  18  19
ATOM     19  C   UNL     1       0.948   9.920  19.493  0.00  0.00    +0.000 A 
ATOM     20  N   UNL     1       1.244   9.254  20.595  0.00  0.00    +0.000 NA
ATOM     21  N   UNL     1       1.019  10.077  21.671  0.00  0.00    +0.000 NA
ATOM     22  C   UNL     1       0.590  11.215  21.194  0.00  0.00    +0.000 A 
ATOM     23  N   UNL     1       0.535  11.189  19.825  0.00  0.00    +0.000 N 
BRANCH  22  24
ATOM     24  O   UNL     1       0.229  12.227  21.957  0.00  0.00    +0.000 OA
ATOM     25  H   UNL     1       0.353  12.989  21.361  0.00  0.00    +0.000 HD
ENDBRANCH  22  24
BRANCH  23  26
ATOM     26  C   UNL     1      -0.032  12.253  19.017  0.00  0.00    +0.000 C 
BRANCH  26  27
ATOM     27  C   UNL     1       0.931  13.386  18.744  0.00  0.00    +0.000 A 
ATOM     28  C   UNL     1       0.527  14.715  18.932  0.00  0.00    +0.000 A 
ATOM     29  C   UNL     1       1.424  15.768  18.727  0.00  0.00    +0.000 A 
ATOM     30  C   UNL     1       2.733  15.512  18.324  0.00  0.00    +0.000 A 
ATOM     31  C   UNL     1       3.150  14.198  18.130  0.00  0.00    +0.000 A 
ATOM     32  C   UNL     1       2.257  13.143  18.342  0.00  0.00    +0.000 A 
ENDBRANCH  26  27
ENDBRANCH  23  26
ENDBRANCH  18  19
ENDBRANCH  17  18
ENDBRANCH   2  17
TORSDOF 8
ENDMDL
MODEL 8
REMARK VINA RESULT:      -8.1      1.973      2.590
REMARK  Name = 
REMARK  8 active torsions:
REMARK  status: ('A' for Active; 'I' for Inactive)
REMARK    1  A    between atoms: C_2  and  C_3
REMARK    2  A    between atoms: C_3  and  S_4
REMARK    3  A    between atoms: S_4  and  C_5
REMARK    4  A    between atoms: C_8  and  O_9
REMARK    5  A    between atoms: N_10  and  C_11
REMARK    6  A    between atoms: C_11  and  C_12
REMARK    7  A    between atoms: N_18  and  C_19
REMARK    8  A    between atoms: C_24  and  C_25
REMARK                            x       y       z     vdW  Elec       q    Type
REMARK                         _______ _______ _______ _____ _____    ______ ____
ROOT
ATOM      1  O   UNL     1       1.877   6.244  17.584  0.00  0.00    +0.000 OA
ATOM      2  C   UNL     1       2.551   6.844  18.421  0.00  0.00    +0.000 C 
ATOM      3  N   UNL     1       2.983   6.275  19.622  0.00  0.00    +0.000 N 
ATOM      4  H   UNL     1       3.102   6.903  20.407  0.00  0.00    +0.000 HD
ENDROOT
BRANCH   3   5
ATOM      5  C   UNL     1       2.769   4.902  19.950  0.00  0.00    +0.000 A 
ATOM      6  C   UNL     1       1.771   4.592  20.896  0.00  0.00    +0.000 A 
ATOM      7  C   UNL     1       1.415   3.267  21.166  0.00  0.00    +0.000 A 
ATOM      8  C   UNL     1       2.060   2.232  20.507  0.00  0.00    +0.000 A 
ATOM      9  C   UNL     1       3.075   2.526  19.597  0.00  0.00    +0.000 A 
ATOM     10  C   UNL     1       3.464   3.855  19.287  0.00  0.00    +0.000 A 
BRANCH  10  11
ATOM     11  C   UNL     1       4.659   4.058  18.411  0.00  0.00    +0.000 A 
ATOM     12  C   UNL     1       5.873   4.566  18.918  0.00  0.00    +0.000 A 
ATOM     13  C   UNL     1       6.947   4.882  18.077  0.00  0.00    +0.000 A 
ATOM     14  C   UNL     1       6.854   4.652  16.710  0.00  0.00    +0.000 A 
ATOM     15  C   UNL     1       5.682   4.128  16.181  0.00  0.00    +0.000 A 
ATOM     16  C   UNL     1       4.594   3.868  17.018  0.00  0.00    +0.000 A 
ENDBRANCH  10  11
ENDBRANCH   3   5
BRANCH   2  17
ATOM     17  C   UNL     1       2.992   8.292  18.203  0.00  0.00    +0.000 C 
BRANCH  17  18
ATOM     18  S   UNL     1       1.590   9.426  17.837  0.00  0.00    +0.000 S 
BRANCH  18  19
ATOM     19  C   UNL     1       0.973   9.666  19.448  0.00  0.00    +0.000 A 
ATOM     20  N   UNL     1       1.200   8.836  20.449  0.00  0.00    +0.000 NA
ATOM     21  N   UNL     1       0.543   9.306  21.559  0.00  0.00    +0.000 NA
ATOM     22  C   UNL     1      -0.068  10.404  21.200  0.00  0.00    +0.000 A 
ATOM     23  N   UNL     1       0.174  10.696  19.883  0.00  0.00    +0.000 N 
BRANCH  22  24
ATOM     24  O   UNL     1      -0.839  11.099  22.011  0.00  0.00    +0.000 OA
ATOM     25  H   UNL     1      -0.811  10.568  22.829  0.00  0.00    +0.000 HD
ENDBRANCH  22  24
BRANCH  23  26
ATOM     26  C   UNL     1      -0.478  11.773  19.160  0.00  0.00    +0.000 C 
BRANCH  26  27
ATOM     27  C   UNL     1      -1.866  11.423  18.674  0.00  0.00    +0.000 A 
ATOM     28  C   UNL     1      -2.046  10.401  17.731  0.00  0.00    +0.000 A 
ATOM     29  C   UNL     1      -3.329  10.038  17.310  0.00  0.00    +0.000 A 
ATOM     30  C   UNL     1      -4.450  10.693  17.815  0.00  0.00    +0.000 A 
ATOM     31  C   UNL     1      -4.290  11.712  18.750  0.00  0.00    +0.000 A 
ATOM     32  C   UNL     1      -3.007  12.072  19.179  0.00  0.00    +0.000 A 
ENDBRANCH  26  27
ENDBRANCH  23  26
ENDBRANCH  18  19
ENDBRANCH  17  18
ENDBRANCH   2  17
TORSDOF 8
ENDMDL
MODEL 9
REMARK VINA RESULT:      -8.0      2.853      4.037
REMARK  Name = 
REMARK  8 active torsions:
REMARK  status: ('A' for Active; 'I' for Inactive)
REMARK    1  A    between atoms: C_2  and  C_3
REMARK    2  A    between atoms: C_3  and  S_4
REMARK    3  A    between atoms: S_4  and  C_5
REMARK    4  A    between atoms: C_8  and  O_9
REMARK    5  A    between atoms: N_10  and  C_11
REMARK    6  A    between atoms: C_11  and  C_12
REMARK    7  A    between atoms: N_18  and  C_19
REMARK    8  A    between atoms: C_24  and  C_25
REMARK                            x       y       z     vdW  Elec       q    Type
REMARK                         _______ _______ _______ _____ _____    ______ ____
ROOT
ATOM      1  O   UNL     1       1.873   6.008  17.707  0.00  0.00    +0.000 OA
ATOM      2  C   UNL     1       2.563   6.754  18.401  0.00  0.00    +0.000 C 
ATOM      3  N   UNL     1       3.165   6.361  19.599  0.00  0.00    +0.000 N 
ATOM      4  H   UNL     1       3.299   7.081  20.300  0.00  0.00    +0.000 HD
ENDROOT
BRANCH   3   5
ATOM      5  C   UNL     1       3.121   5.020  20.086  0.00  0.00    +0.000 A 
ATOM      6  C   UNL     1       2.201   4.713  21.108  0.00  0.00    +0.000 A 
ATOM      7  C   UNL     1       2.009   3.397  21.539  0.00  0.00    +0.000 A 
ATOM      8  C   UNL     1       2.743   2.370  20.967  0.00  0.00    +0.000 A 
ATOM      9  C   UNL     1       3.684   2.667  19.981  0.00  0.00    +0.000 A 
ATOM     10  C   UNL     1       3.908   3.987  19.509  0.00  0.00    +0.000 A 
BRANCH  10  11
ATOM     11  C   UNL     1       5.038   4.218  18.558  0.00  0.00    +0.000 A 
ATOM     12  C   UNL     1       6.240   4.830  18.969  0.00  0.00    +0.000 A 
ATOM     13  C   UNL     1       7.245   5.168  18.054  0.00  0.00    +0.000 A 
ATOM     14  C   UNL     1       7.096   4.857  16.708  0.00  0.00    +0.000 A 
ATOM     15  C   UNL     1       5.935   4.230  16.274  0.00  0.00    +0.000 A 
ATOM     16  C   UNL     1       4.913   3.947  17.182  0.00  0.00    +0.000 A 
ENDBRANCH  10  11
ENDBRANCH   3   5
BRANCH   2  17
ATOM     17  C   UNL     1       2.835   8.202  17.991  0.00  0.00    +0.000 C 
BRANCH  17  18
ATOM     18  S   UNL     1       1.322   9.250  17.998  0.00  0.00    +0.000 S 
BRANCH  18  19
ATOM     19  C   UNL     1       1.077   9.408  19.715  0.00  0.00    +0.000 A 
ATOM     20  N   UNL     1       1.221   8.411  20.569  0.00  0.00    +0.000 NA
ATOM     21  N   UNL     1       0.920   8.872  21.826  0.00  0.00    +0.000 NA
ATOM     22  C   UNL     1       0.599  10.132  21.701  0.00  0.00    +0.000 A 
ATOM     23  N   UNL     1       0.692  10.538  20.395  0.00  0.00    +0.000 N 
BRANCH  22  24
ATOM     24  O   UNL     1       0.206  10.881  22.712  0.00  0.00    +0.000 OA
ATOM     25  H   UNL     1       0.196  11.773  22.316  0.00  0.00    +0.000 HD
ENDBRANCH  22  24
BRANCH  23  26
ATOM     26  C   UNL     1       0.266  11.843  19.921  0.00  0.00    +0.000 C 
BRANCH  26  27
ATOM     27  C   UNL     1       1.410  12.797  19.663  0.00  0.00    +0.000 A 
ATOM     28  C   UNL     1       2.120  13.354  20.736  0.00  0.00    +0.000 A 
ATOM     29  C   UNL     1       3.208  14.201  20.507  0.00  0.00    +0.000 A 
ATOM     30  C   UNL     1       3.600  14.511  19.207  0.00  0.00    +0.000 A 
ATOM     31  C   UNL     1       2.906  13.969  18.130  0.00  0.00    +0.000 A 
ATOM     32  C   UNL     1       1.821  13.115  18.356  0.00  0.00    +0.000 A 
ENDBRANCH  26  27
ENDBRANCH  23  26
ENDBRANCH  18  19
ENDBRANCH  17  18
ENDBRANCH   2  17
TORSDOF 8
ENDMDL
