MODEL 1
REMARK VINA RESULT:      -6.8      0.000      0.000
REMARK  Name = 
REMARK  3 active torsions:
REMARK  status: ('A' for Active; 'I' for Inactive)
REMARK    1  A    between atoms: N_3  and  C_4
REMARK    2  A    between atoms: C_4  and  C_5
REMARK    3  A    between atoms: N_10  and  C_11
REMARK                            x       y       z     vdW  Elec       q    Type
REMARK                         _______ _______ _______ _____ _____    ______ ____
ROOT
ATOM      1  O   UNL     1       4.360   5.102  16.725  0.00  0.00    +0.000 OA
ATOM      2  C   UNL     1       5.188   4.267  17.073  0.00  0.00    +0.000 C 
ATOM      3  N   UNL     1       5.278   3.827  18.367  0.00  0.00    +0.000 N 
ATOM      4  N   UNL     1       6.117   3.660  16.252  0.00  0.00    +0.000 N 
ATOM      5  H   UNL     1       6.007   3.189  18.650  0.00  0.00    +0.000 HD
ATOM      6  H   UNL     1       6.595   2.864  16.645  0.00  0.00    +0.000 HD
ENDROOT
BRANCH   4   7
ATOM      7  C   UNL     1       6.297   3.905  14.872  0.00  0.00    +0.000 A 
ATOM      8  C   UNL     1       5.517   3.309  13.876  0.00  0.00    +0.000 A 
ATOM      9  C   UNL     1       5.791   3.547  12.528  0.00  0.00    +0.000 A 
ATOM     10 CL   UNL     1       4.829   2.792  11.315  0.00  0.00    +0.000 Cl
ATOM     11  C   UNL     1       6.835   4.384  12.151  0.00  0.00    +0.000 A 
ATOM     12  C   UNL     1       7.588   5.007  13.141  0.00  0.00    +0.000 A 
ATOM     13 CL   UNL     1       8.884   6.047  12.693  0.00  0.00    +0.000 Cl
ATOM     14  C   UNL     1       7.317   4.785  14.495  0.00  0.00    +0.000 A 
ENDBRANCH   4   7
BRANCH   3  15
ATOM     15  C   UNL     1       4.482   4.415  19.438  0.00  0.00    +0.000 C 
BRANCH  15  16
ATOM     16  C   UNL     1       3.136   3.705  19.618  0.00  0.00    +0.000 C 
ATOM     17  C   UNL     1       1.949   4.619  19.877  0.00  0.00    +0.000 C 
ATOM     18  C   UNL     1       1.031   3.728  20.677  0.00  0.00    +0.000 C 
ATOM     19  C   UNL     1       2.006   2.920  21.505  0.00  0.00    +0.000 C 
ATOM     20  O   UNL     1       3.212   2.797  20.740  0.00  0.00    +0.000 OA
ENDBRANCH  15  16
ENDBRANCH   3  15
TORSDOF 3
ENDMDL
MODEL 2
REMARK VINA RESULT:      -6.7      5.851      7.555
REMARK  Name = 
REMARK  3 active torsions:
REMARK  status: ('A' for Active; 'I' for Inactive)
REMARK    1  A    between atoms: N_3  and  C_4
REMARK    2  A    between atoms: C_4  and  C_5
REMARK    3  A    between atoms: N_10  and  C_11
REMARK                            x       y       z     vdW  Elec       q    Type
REMARK                         _______ _______ _______ _____ _____    ______ ____
ROOT
ATOM      1  O   UNL     1       8.309   7.087  18.737  0.00  0.00    +0.000 OA
ATOM      2  C   UNL     1       7.853   7.967  18.015  0.00  0.00    +0.000 C 
ATOM      3  N   UNL     1       8.291   9.262  18.080  0.00  0.00    +0.000 N 
ATOM      4  N   UNL     1       6.870   7.799  17.059  0.00  0.00    +0.000 N 
ATOM      5  H   UNL     1       7.860   9.987  17.526  0.00  0.00    +0.000 HD
ATOM      6  H   UNL     1       6.741   8.571  16.423  0.00  0.00    +0.000 HD
ENDROOT
BRANCH   4   7
ATOM      7  C   UNL     1       6.200   6.593  16.755  0.00  0.00    +0.000 A 
ATOM      8  C   UNL     1       6.551   5.765  15.685  0.00  0.00    +0.000 A 
ATOM      9  C   UNL     1       5.805   4.619  15.403  0.00  0.00    +0.000 A 
ATOM     10 CL   UNL     1       6.245   3.620  14.071  0.00  0.00    +0.000 Cl
ATOM     11  C   UNL     1       4.707   4.276  16.184  0.00  0.00    +0.000 A 
ATOM     12  C   UNL     1       4.379   5.078  17.272  0.00  0.00    +0.000 A 
ATOM     13 CL   UNL     1       3.023   4.668  18.250  0.00  0.00    +0.000 Cl
ATOM     14  C   UNL     1       5.125   6.222  17.570  0.00  0.00    +0.000 A 
ENDBRANCH   4   7
BRANCH   3  15
ATOM     15  C   UNL     1       9.237   9.705  19.098  0.00  0.00    +0.000 C 
BRANCH  15  16
ATOM     16  C   UNL     1       9.585  11.190  18.962  0.00  0.00    +0.000 C 
ATOM     17  C   UNL     1       8.848  11.931  17.856  0.00  0.00    +0.000 C 
ATOM     18  C   UNL     1       9.826  13.024  17.501  0.00  0.00    +0.000 C 
ATOM     19  C   UNL     1      11.160  12.331  17.670  0.00  0.00    +0.000 C 
ATOM     20  O   UNL     1      10.996  11.337  18.689  0.00  0.00    +0.000 OA
ENDBRANCH  15  16
ENDBRANCH   3  15
TORSDOF 3
ENDMDL
MODEL 3
REMARK VINA RESULT:      -6.6      0.718      2.240
REMARK  Name = 
REMARK  3 active torsions:
REMARK  status: ('A' for Active; 'I' for Inactive)
REMARK    1  A    between atoms: N_3  and  C_4
REMARK    2  A    between atoms: C_4  and  C_5
REMARK    3  A    between atoms: N_10  and  C_11
REMARK                            x       y       z     vdW  Elec       q    Type
REMARK                         _______ _______ _______ _____ _____    ______ ____
ROOT
ATOM      1  O   UNL     1       4.522   5.705  16.635  0.00  0.00    +0.000 OA
ATOM      2  C   UNL     1       5.103   4.715  17.066  0.00  0.00    +0.000 C 
ATOM      3  N   UNL     1       4.963   4.297  18.362  0.00  0.00    +0.000 N 
ATOM      4  N   UNL     1       5.951   3.898  16.345  0.00  0.00    +0.000 N 
ATOM      5  H   UNL     1       5.498   3.520  18.719  0.00  0.00    +0.000 HD
ATOM      6  H   UNL     1       6.197   3.025  16.785  0.00  0.00    +0.000 HD
ENDROOT
BRANCH   4   7
ATOM      7  C   UNL     1       6.318   4.065  14.991  0.00  0.00    +0.000 A 
ATOM      8  C   UNL     1       7.376   4.878  14.574  0.00  0.00    +0.000 A 
ATOM      9  C   UNL     1       7.643   5.047  13.215  0.00  0.00    +0.000 A 
ATOM     10 CL   UNL     1       8.942   6.066  12.719  0.00  0.00    +0.000 Cl
ATOM     11  C   UNL     1       6.870   4.407  12.252  0.00  0.00    +0.000 A 
ATOM     12  C   UNL     1       5.841   3.568  12.666  0.00  0.00    +0.000 A 
ATOM     13 CL   UNL     1       4.874   2.766  11.489  0.00  0.00    +0.000 Cl
ATOM     14  C   UNL     1       5.570   3.382  14.025  0.00  0.00    +0.000 A 
ENDBRANCH   4   7
BRANCH   3  15
ATOM     15  C   UNL     1       4.214   5.071  19.345  0.00  0.00    +0.000 C 
BRANCH  15  16
ATOM     16  C   UNL     1       2.763   4.599  19.474  0.00  0.00    +0.000 C 
ATOM     17  C   UNL     1       2.171   4.694  20.873  0.00  0.00    +0.000 C 
ATOM     18  C   UNL     1       1.142   3.591  20.857  0.00  0.00    +0.000 C 
ATOM     19  C   UNL     1       1.816   2.533  20.011  0.00  0.00    +0.000 C 
ATOM     20  O   UNL     1       2.665   3.214  19.077  0.00  0.00    +0.000 OA
ENDBRANCH  15  16
ENDBRANCH   3  15
TORSDOF 3
ENDMDL
MODEL 4
REMARK VINA RESULT:      -6.6      1.037      1.282
REMARK  Name = 
REMARK  3 active torsions:
REMARK  status: ('A' for Active; 'I' for Inactive)
REMARK    1  A    between atoms: N_3  and  C_4
REMARK    2  A    between atoms: C_4  and  C_5
REMARK    3  A    between atoms: N_10  and  C_11
REMARK                            x       y       z     vdW  Elec       q    Type
REMARK                         _______ _______ _______ _____ _____    ______ ____
ROOT
ATOM      1  O   UNL     1       4.362   5.230  16.741  0.00  0.00    +0.000 OA
ATOM      2  C   UNL     1       5.155   4.369  17.104  0.00  0.00    +0.000 C 
ATOM      3  N   UNL     1       5.223   3.942  18.403  0.00  0.00    +0.000 N 
ATOM      4  N   UNL     1       6.065   3.717  16.295  0.00  0.00    +0.000 N 
ATOM      5  H   UNL     1       5.925   3.281  18.698  0.00  0.00    +0.000 HD
ATOM      6  H   UNL     1       6.510   2.908  16.700  0.00  0.00    +0.000 HD
ENDROOT
BRANCH   4   7
ATOM      7  C   UNL     1       6.260   3.937  14.913  0.00  0.00    +0.000 A 
ATOM      8  C   UNL     1       5.487   3.329  13.919  0.00  0.00    +0.000 A 
ATOM      9  C   UNL     1       5.776   3.542  12.571  0.00  0.00    +0.000 A 
ATOM     10 CL   UNL     1       4.820   2.773  11.360  0.00  0.00    +0.000 Cl
ATOM     11  C   UNL     1       6.830   4.366  12.190  0.00  0.00    +0.000 A 
ATOM     12  C   UNL     1       7.576   5.000  13.177  0.00  0.00    +0.000 A 
ATOM     13 CL   UNL     1       8.885   6.023  12.724  0.00  0.00    +0.000 Cl
ATOM     14  C   UNL     1       7.290   4.803  14.531  0.00  0.00    +0.000 A 
ENDBRANCH   4   7
BRANCH   3  15
ATOM     15  C   UNL     1       4.444   4.574  19.462  0.00  0.00    +0.000 C 
BRANCH  15  16
ATOM     16  C   UNL     1       3.147   3.816  19.760  0.00  0.00    +0.000 C 
ATOM     17  C   UNL     1       3.169   2.333  19.421  0.00  0.00    +0.000 C 
ATOM     18  C   UNL     1       1.714   2.053  19.132  0.00  0.00    +0.000 C 
ATOM     19  C   UNL     1       1.266   3.334  18.463  0.00  0.00    +0.000 C 
ATOM     20  O   UNL     1       2.060   4.396  19.007  0.00  0.00    +0.000 OA
ENDBRANCH  15  16
ENDBRANCH   3  15
TORSDOF 3
ENDMDL
MODEL 5
REMARK VINA RESULT:      -6.6      3.882      7.711
REMARK  Name = 
REMARK  3 active torsions:
REMARK  status: ('A' for Active; 'I' for Inactive)
REMARK    1  A    between atoms: N_3  and  C_4
REMARK    2  A    between atoms: C_4  and  C_5
REMARK    3  A    between atoms: N_10  and  C_11
REMARK                            x       y       z     vdW  Elec       q    Type
REMARK                         _______ _______ _______ _____ _____    ______ ____
ROOT
ATOM      1  O   UNL     1       3.888   3.646  16.644  0.00  0.00    +0.000 OA
ATOM      2  C   UNL     1       4.862   4.180  17.164  0.00  0.00    +0.000 C 
ATOM      3  N   UNL     1       6.089   4.205  16.557  0.00  0.00    +0.000 N 
ATOM      4  N   UNL     1       4.876   4.815  18.390  0.00  0.00    +0.000 N 
ATOM      5  H   UNL     1       6.895   4.589  17.027  0.00  0.00    +0.000 HD
ATOM      6  H   UNL     1       5.699   5.363  18.590  0.00  0.00    +0.000 HD
ENDROOT
BRANCH   4   7
ATOM      7  C   UNL     1       3.781   4.948  19.273  0.00  0.00    +0.000 A 
ATOM      8  C   UNL     1       3.204   3.871  19.952  0.00  0.00    +0.000 A 
ATOM      9  C   UNL     1       2.082   4.065  20.760  0.00  0.00    +0.000 A 
ATOM     10 CL   UNL     1       1.376   2.723  21.577  0.00  0.00    +0.000 Cl
ATOM     11  C   UNL     1       1.525   5.330  20.911  0.00  0.00    +0.000 A 
ATOM     12  C   UNL     1       2.120   6.408  20.267  0.00  0.00    +0.000 A 
ATOM     13 CL   UNL     1       1.444   7.981  20.443  0.00  0.00    +0.000 Cl
ATOM     14  C   UNL     1       3.250   6.229  19.463  0.00  0.00    +0.000 A 
ENDBRANCH   4   7
BRANCH   3  15
ATOM     15  C   UNL     1       6.347   3.492  15.311  0.00  0.00    +0.000 C 
BRANCH  15  16
ATOM     16  C   UNL     1       6.409   4.433  14.104  0.00  0.00    +0.000 C 
ATOM     17  C   UNL     1       6.533   3.747  12.752  0.00  0.00    +0.000 C 
ATOM     18  C   UNL     1       7.256   4.789  11.934  0.00  0.00    +0.000 C 
ATOM     19  C   UNL     1       8.191   5.407  12.951  0.00  0.00    +0.000 C 
ATOM     20  O   UNL     1       7.550   5.310  14.229  0.00  0.00    +0.000 OA
ENDBRANCH  15  16
ENDBRANCH   3  15
TORSDOF 3
ENDMDL
MODEL 6
REMARK VINA RESULT:      -6.6      5.858      7.536
REMARK  Name = 
REMARK  3 active torsions:
REMARK  status: ('A' for Active; 'I' for Inactive)
REMARK    1  A    between atoms: N_3  and  C_4
REMARK    2  A    between atoms: C_4  and  C_5
REMARK    3  A    between atoms: N_10  and  C_11
REMARK                            x       y       z     vdW  Elec       q    Type
REMARK                         _______ _______ _______ _____ _____    ______ ____
ROOT
ATOM      1  O   UNL     1       8.275   7.105  18.625  0.00  0.00    +0.000 OA
ATOM      2  C   UNL     1       7.712   7.898  17.878  0.00  0.00    +0.000 C 
ATOM      3  N   UNL     1       8.044   9.226  17.842  0.00  0.00    +0.000 N 
ATOM      4  N   UNL     1       6.701   7.592  16.989  0.00  0.00    +0.000 N 
ATOM      5  H   UNL     1       7.528   9.877  17.271  0.00  0.00    +0.000 HD
ATOM      6  H   UNL     1       6.476   8.309  16.317  0.00  0.00    +0.000 HD
ENDROOT
BRANCH   4   7
ATOM      7  C   UNL     1       6.119   6.319  16.794  0.00  0.00    +0.000 A 
ATOM      8  C   UNL     1       5.411   5.635  17.787  0.00  0.00    +0.000 A 
ATOM      9  C   UNL     1       4.916   4.353  17.545  0.00  0.00    +0.000 A 
ATOM     10 CL   UNL     1       4.059   3.520  18.786  0.00  0.00    +0.000 Cl
ATOM     11  C   UNL     1       5.112   3.735  16.315  0.00  0.00    +0.000 A 
ATOM     12  C   UNL     1       5.784   4.428  15.314  0.00  0.00    +0.000 A 
ATOM     13 CL   UNL     1       6.035   3.679  13.784  0.00  0.00    +0.000 Cl
ATOM     14  C   UNL     1       6.274   5.718  15.540  0.00  0.00    +0.000 A 
ENDBRANCH   4   7
BRANCH   3  15
ATOM     15  C   UNL     1       9.000   9.806  18.779  0.00  0.00    +0.000 C 
BRANCH  15  16
ATOM     16  C   UNL     1       9.756  10.994  18.177  0.00  0.00    +0.000 C 
ATOM     17  C   UNL     1      10.881  11.551  19.036  0.00  0.00    +0.000 C 
ATOM     18  C   UNL     1      10.927  12.995  18.601  0.00  0.00    +0.000 C 
ATOM     19  C   UNL     1       9.466  13.305  18.356  0.00  0.00    +0.000 C 
ATOM     20  O   UNL     1       8.839  12.085  17.940  0.00  0.00    +0.000 OA
ENDBRANCH  15  16
ENDBRANCH   3  15
TORSDOF 3
ENDMDL
MODEL 7
REMARK VINA RESULT:      -6.6      2.176      3.019
REMARK  Name = 
REMARK  3 active torsions:
REMARK  status: ('A' for Active; 'I' for Inactive)
REMARK    1  A    between atoms: N_3  and  C_4
REMARK    2  A    between atoms: C_4  and  C_5
REMARK    3  A    between atoms: N_10  and  C_11
REMARK                            x       y       z     vdW  Elec       q    Type
REMARK                         _______ _______ _______ _____ _____    ______ ____
ROOT
ATOM      1  O   UNL     1       2.572   4.433  17.465  0.00  0.00    +0.000 OA
ATOM      2  C   UNL     1       3.040   3.299  17.469  0.00  0.00    +0.000 C 
ATOM      3  N   UNL     1       2.310   2.211  17.865  0.00  0.00    +0.000 N 
ATOM      4  N   UNL     1       4.322   2.953  17.088  0.00  0.00    +0.000 N 
ATOM      5  H   UNL     1       2.729   1.296  17.925  0.00  0.00    +0.000 HD
ATOM      6  H   UNL     1       4.492   1.967  16.968  0.00  0.00    +0.000 HD
ENDROOT
BRANCH   4   7
ATOM      7  C   UNL     1       5.328   3.840  16.647  0.00  0.00    +0.000 A 
ATOM      8  C   UNL     1       5.734   3.943  15.313  0.00  0.00    +0.000 A 
ATOM      9  C   UNL     1       6.780   4.796  14.956  0.00  0.00    +0.000 A 
ATOM     10 CL   UNL     1       7.275   4.898  13.309  0.00  0.00    +0.000 Cl
ATOM     11  C   UNL     1       7.431   5.563  15.915  0.00  0.00    +0.000 A 
ATOM     12  C   UNL     1       7.005   5.490  17.237  0.00  0.00    +0.000 A 
ATOM     13 CL   UNL     1       7.800   6.432  18.439  0.00  0.00    +0.000 Cl
ATOM     14  C   UNL     1       5.952   4.647  17.605  0.00  0.00    +0.000 A 
ENDBRANCH   4   7
BRANCH   3  15
ATOM     15  C   UNL     1       0.970   2.346  18.425  0.00  0.00    +0.000 C 
BRANCH  15  16
ATOM     16  C   UNL     1       0.993   2.556  19.943  0.00  0.00    +0.000 C 
ATOM     17  C   UNL     1       1.116   4.003  20.396  0.00  0.00    +0.000 C 
ATOM     18  C   UNL     1       1.803   3.859  21.732  0.00  0.00    +0.000 C 
ATOM     19  C   UNL     1       2.736   2.692  21.491  0.00  0.00    +0.000 C 
ATOM     20  O   UNL     1       2.114   1.847  20.515  0.00  0.00    +0.000 OA
ENDBRANCH  15  16
ENDBRANCH   3  15
TORSDOF 3
ENDMDL
MODEL 8
REMARK VINA RESULT:      -6.6      2.113      3.261
REMARK  Name = 
REMARK  3 active torsions:
REMARK  status: ('A' for Active; 'I' for Inactive)
REMARK    1  A    between atoms: N_3  and  C_4
REMARK    2  A    between atoms: C_4  and  C_5
REMARK    3  A    between atoms: N_10  and  C_11
REMARK                            x       y       z     vdW  Elec       q    Type
REMARK                         _______ _______ _______ _____ _____    ______ ____
ROOT
ATOM      1  O   UNL     1       2.584   4.394  17.373  0.00  0.00    +0.000 OA
ATOM      2  C   UNL     1       3.063   3.268  17.444  0.00  0.00    +0.000 C 
ATOM      3  N   UNL     1       2.340   2.195  17.891  0.00  0.00    +0.000 N 
ATOM      4  N   UNL     1       4.353   2.915  17.097  0.00  0.00    +0.000 N 
ATOM      5  H   UNL     1       2.768   1.289  18.007  0.00  0.00    +0.000 HD
ATOM      6  H   UNL     1       4.534   1.925  17.033  0.00  0.00    +0.000 HD
ENDROOT
BRANCH   4   7
ATOM      7  C   UNL     1       5.355   3.788  16.617  0.00  0.00    +0.000 A 
ATOM      8  C   UNL     1       5.990   4.745  17.415  0.00  0.00    +0.000 A 
ATOM      9  C   UNL     1       6.927   5.618  16.860  0.00  0.00    +0.000 A 
ATOM     10 CL   UNL     1       7.688   6.800  17.856  0.00  0.00    +0.000 Cl
ATOM     11  C   UNL     1       7.252   5.548  15.510  0.00  0.00    +0.000 A 
ATOM     12  C   UNL     1       6.649   4.573  14.723  0.00  0.00    +0.000 A 
ATOM     13 CL   UNL     1       7.039   4.472  13.049  0.00  0.00    +0.000 Cl
ATOM     14  C   UNL     1       5.717   3.686  15.269  0.00  0.00    +0.000 A 
ENDBRANCH   4   7
BRANCH   3  15
ATOM     15  C   UNL     1       0.992   2.346  18.430  0.00  0.00    +0.000 C 
BRANCH  15  16
ATOM     16  C   UNL     1       0.995   2.608  19.939  0.00  0.00    +0.000 C 
ATOM     17  C   UNL     1       1.155   4.066  20.344  0.00  0.00    +0.000 C 
ATOM     18  C   UNL     1       1.813   3.948  21.697  0.00  0.00    +0.000 C 
ATOM     19  C   UNL     1       2.714   2.746  21.514  0.00  0.00    +0.000 C 
ATOM     20  O   UNL     1       2.083   1.886  20.556  0.00  0.00    +0.000 OA
ENDBRANCH  15  16
ENDBRANCH   3  15
TORSDOF 3
ENDMDL
MODEL 9
REMARK VINA RESULT:      -6.6      5.927      7.607
REMARK  Name = 
REMARK  3 active torsions:
REMARK  status: ('A' for Active; 'I' for Inactive)
REMARK    1  A    between atoms: N_3  and  C_4
REMARK    2  A    between atoms: C_4  and  C_5
REMARK    3  A    between atoms: N_10  and  C_11
REMARK                            x       y       z     vdW  Elec       q    Type
REMARK                         _______ _______ _______ _____ _____    ______ ____
ROOT
ATOM      1  O   UNL     1       8.307   7.135  18.621  0.00  0.00    +0.000 OA
ATOM      2  C   UNL     1       7.756   7.960  17.900  0.00  0.00    +0.000 C 
ATOM      3  N   UNL     1       8.096   9.286  17.920  0.00  0.00    +0.000 N 
ATOM      4  N   UNL     1       6.752   7.695  16.990  0.00  0.00    +0.000 N 
ATOM      5  H   UNL     1       7.589   9.962  17.369  0.00  0.00    +0.000 HD
ATOM      6  H   UNL     1       6.539   8.439  16.344  0.00  0.00    +0.000 HD
ENDROOT
BRANCH   4   7
ATOM      7  C   UNL     1       6.166   6.434  16.740  0.00  0.00    +0.000 A 
ATOM      8  C   UNL     1       6.427   5.676  15.594  0.00  0.00    +0.000 A 
ATOM      9  C   UNL     1       5.764   4.467  15.380  0.00  0.00    +0.000 A 
ATOM     10 CL   UNL     1       6.089   3.554  13.956  0.00  0.00    +0.000 Cl
ATOM     11  C   UNL     1       4.838   3.991  16.302  0.00  0.00    +0.000 A 
ATOM     12  C   UNL     1       4.604   4.725  17.460  0.00  0.00    +0.000 A 
ATOM     13 CL   UNL     1       3.462   4.150  18.613  0.00  0.00    +0.000 Cl
ATOM     14  C   UNL     1       5.270   5.932  17.691  0.00  0.00    +0.000 A 
ENDBRANCH   4   7
BRANCH   3  15
ATOM     15  C   UNL     1       9.045   9.824  18.888  0.00  0.00    +0.000 C 
BRANCH  15  16
ATOM     16  C   UNL     1       9.871  10.979  18.313  0.00  0.00    +0.000 C 
ATOM     17  C   UNL     1      10.959  11.518  19.229  0.00  0.00    +0.000 C 
ATOM     18  C   UNL     1      11.073  12.952  18.775  0.00  0.00    +0.000 C 
ATOM     19  C   UNL     1       9.640  13.299  18.436  0.00  0.00    +0.000 C 
ATOM     20  O   UNL     1       9.002  12.091  18.003  0.00  0.00    +0.000 OA
ENDBRANCH  15  16
ENDBRANCH   3  15
TORSDOF 3
ENDMDL
