MODEL 1
REMARK VINA RESULT:      -8.2      0.000      0.000
REMARK  Name = 
REMARK  4 active torsions:
REMARK  status: ('A' for Active; 'I' for Inactive)
REMARK    1  A    between atoms: C_1  and  N_2
REMARK    2  A    between atoms: C_7  and  C_8
REMARK    3  A    between atoms: N_15  and  C_16
REMARK    4  A    between atoms: C_16  and  C_17
REMARK                            x       y       z     vdW  Elec       q    Type
REMARK                         _______ _______ _______ _____ _____    ______ ____
ROOT
ATOM      1  C   UNL     1       1.347   2.421  21.662  0.00  0.00    +0.000 C 
ATOM      2  N   UNL     1       2.374   3.094  20.894  0.00  0.00    +0.000 N 
ATOM      3  N   UNL     1       3.599   2.427  20.747  0.00  0.00    +0.000 NA
ATOM      4  C   UNL     1       4.546   3.005  20.068  0.00  0.00    +0.000 A 
ATOM      5  C   UNL     1       4.351   4.298  19.496  0.00  0.00    +0.000 A 
ATOM      6  C   UNL     1       3.176   4.990  19.672  0.00  0.00    +0.000 A 
ATOM      7  C   UNL     1       3.380   6.249  19.049  0.00  0.00    +0.000 A 
ATOM      8  N   UNL     1       4.572   6.266  18.416  0.00  0.00    +0.000 NA
ATOM      9  N   UNL     1       5.144   5.072  18.708  0.00  0.00    +0.000 N 
ATOM     10  C   UNL     1       2.076   4.375  20.382  0.00  0.00    +0.000 A 
ATOM     11  O   UNL     1       0.977   4.905  20.519  0.00  0.00    +0.000 OA
ENDROOT
BRANCH   7  12
ATOM     12  C   UNL     1       2.489   7.410  19.032  0.00  0.00    +0.000 A 
ATOM     13  C   UNL     1       2.231   8.091  17.834  0.00  0.00    +0.000 A 
ATOM     14  C   UNL     1       1.447   9.246  17.814  0.00  0.00    +0.000 A 
ATOM     15  C   UNL     1       0.875   9.713  18.993  0.00  0.00    +0.000 A 
ATOM     16  C   UNL     1       1.075   9.018  20.185  0.00  0.00    +0.000 A 
ATOM     17  C   UNL     1       1.878   7.872  20.206  0.00  0.00    +0.000 A 
ENDBRANCH   7  12
BRANCH   9  18
ATOM     18  C   UNL     1       6.374   4.680  18.026  0.00  0.00    +0.000 C 
BRANCH  18  19
ATOM     19  C   UNL     1       6.238   4.592  16.526  0.00  0.00    +0.000 A 
ATOM     20  C   UNL     1       7.240   5.105  15.687  0.00  0.00    +0.000 A 
ATOM     21  C   UNL     1       7.171   4.923  14.303  0.00  0.00    +0.000 A 
ATOM     22  C   UNL     1       6.102   4.228  13.741  0.00  0.00    +0.000 A 
ATOM     23  C   UNL     1       5.093   3.727  14.561  0.00  0.00    +0.000 A 
ATOM     24  C   UNL     1       5.160   3.907  15.943  0.00  0.00    +0.000 A 
ENDBRANCH  18  19
ENDBRANCH   9  18
TORSDOF 3
ENDMDL
MODEL 2
REMARK VINA RESULT:      -8.1      2.281      6.490
REMARK  Name = 
REMARK  4 active torsions:
REMARK  status: ('A' for Active; 'I' for Inactive)
REMARK    1  A    between atoms: C_1  and  N_2
REMARK    2  A    between atoms: C_7  and  C_8
REMARK    3  A    between atoms: N_15  and  C_16
REMARK    4  A    between atoms: C_16  and  C_17
REMARK                            x       y       z     vdW  Elec       q    Type
REMARK                         _______ _______ _______ _____ _____    ______ ____
ROOT
ATOM      1  C   UNL     1       6.244   4.156  15.614  0.00  0.00    +0.000 C 
ATOM      2  N   UNL     1       5.381   5.140  16.235  0.00  0.00    +0.000 N 
ATOM      3  N   UNL     1       5.585   6.481  15.880  0.00  0.00    +0.000 NA
ATOM      4  C   UNL     1       4.831   7.391  16.423  0.00  0.00    +0.000 A 
ATOM      5  C   UNL     1       3.827   7.037  17.373  0.00  0.00    +0.000 A 
ATOM      6  C   UNL     1       3.645   5.735  17.773  0.00  0.00    +0.000 A 
ATOM      7  C   UNL     1       2.640   5.781  18.773  0.00  0.00    +0.000 A 
ATOM      8  N   UNL     1       2.148   7.033  18.878  0.00  0.00    +0.000 NA
ATOM      9  N   UNL     1       2.889   7.778  18.022  0.00  0.00    +0.000 N 
ATOM     10  C   UNL     1       4.428   4.679  17.168  0.00  0.00    +0.000 A 
ATOM     11  O   UNL     1       4.273   3.488  17.425  0.00  0.00    +0.000 OA
ENDROOT
BRANCH   7  12
ATOM     12  C   UNL     1       2.138   4.689  19.609  0.00  0.00    +0.000 A 
ATOM     13  C   UNL     1       2.558   4.563  20.941  0.00  0.00    +0.000 A 
ATOM     14  C   UNL     1       2.150   3.485  21.727  0.00  0.00    +0.000 A 
ATOM     15  C   UNL     1       1.280   2.536  21.201  0.00  0.00    +0.000 A 
ATOM     16  C   UNL     1       0.808   2.674  19.896  0.00  0.00    +0.000 A 
ATOM     17  C   UNL     1       1.234   3.745  19.104  0.00  0.00    +0.000 A 
ENDBRANCH   7  12
BRANCH   9  18
ATOM     18  C   UNL     1       2.498   9.157  17.748  0.00  0.00    +0.000 C 
BRANCH  18  19
ATOM     19  C   UNL     1       1.194   9.561  18.388  0.00  0.00    +0.000 A 
ATOM     20  C   UNL     1       1.160  10.004  19.720  0.00  0.00    +0.000 A 
ATOM     21  C   UNL     1      -0.027  10.486  20.279  0.00  0.00    +0.000 A 
ATOM     22  C   UNL     1      -1.192  10.531  19.517  0.00  0.00    +0.000 A 
ATOM     23  C   UNL     1      -1.176  10.080  18.198  0.00  0.00    +0.000 A 
ATOM     24  C   UNL     1       0.008   9.598  17.638  0.00  0.00    +0.000 A 
ENDBRANCH  18  19
ENDBRANCH   9  18
TORSDOF 3
ENDMDL
MODEL 3
REMARK VINA RESULT:      -7.9      2.235      6.431
REMARK  Name = 
REMARK  4 active torsions:
REMARK  status: ('A' for Active; 'I' for Inactive)
REMARK    1  A    between atoms: C_1  and  N_2
REMARK    2  A    between atoms: C_7  and  C_8
REMARK    3  A    between atoms: N_15  and  C_16
REMARK    4  A    between atoms: C_16  and  C_17
REMARK                            x       y       z     vdW  Elec       q    Type
REMARK                         _______ _______ _______ _____ _____    ______ ____
ROOT
ATOM      1  C   UNL     1       6.235   4.008  15.483  0.00  0.00    +0.000 C 
ATOM      2  N   UNL     1       5.388   4.996  16.120  0.00  0.00    +0.000 N 
ATOM      3  N   UNL     1       5.581   6.335  15.749  0.00  0.00    +0.000 NA
ATOM      4  C   UNL     1       4.841   7.248  16.305  0.00  0.00    +0.000 A 
ATOM      5  C   UNL     1       3.862   6.901  17.284  0.00  0.00    +0.000 A 
ATOM      6  C   UNL     1       3.693   5.601  17.699  0.00  0.00    +0.000 A 
ATOM      7  C   UNL     1       2.715   5.654  18.725  0.00  0.00    +0.000 A 
ATOM      8  N   UNL     1       2.224   6.907  18.834  0.00  0.00    +0.000 NA
ATOM      9  N   UNL     1       2.941   7.645  17.953  0.00  0.00    +0.000 N 
ATOM     10  C   UNL     1       4.461   4.541  17.081  0.00  0.00    +0.000 A 
ATOM     11  O   UNL     1       4.314   3.353  17.352  0.00  0.00    +0.000 OA
ENDROOT
BRANCH   7  12
ATOM     12  C   UNL     1       2.237   4.569  19.583  0.00  0.00    +0.000 A 
ATOM     13  C   UNL     1       1.351   3.604  19.082  0.00  0.00    +0.000 A 
ATOM     14  C   UNL     1       0.825   2.609  19.908  0.00  0.00    +0.000 A 
ATOM     15  C   UNL     1       1.213   2.543  21.243  0.00  0.00    +0.000 A 
ATOM     16  C   UNL     1       2.135   3.460  21.745  0.00  0.00    +0.000 A 
ATOM     17  C   UNL     1       2.645   4.468  20.920  0.00  0.00    +0.000 A 
ENDBRANCH   7  12
BRANCH   9  18
ATOM     18  C   UNL     1       2.542   9.022  17.678  0.00  0.00    +0.000 C 
BRANCH  18  19
ATOM     19  C   UNL     1       1.377   9.497  18.509  0.00  0.00    +0.000 A 
ATOM     20  C   UNL     1       0.182   9.906  17.896  0.00  0.00    +0.000 A 
ATOM     21  C   UNL     1      -0.936  10.238  18.667  0.00  0.00    +0.000 A 
ATOM     22  C   UNL     1      -0.875  10.164  20.057  0.00  0.00    +0.000 A 
ATOM     23  C   UNL     1       0.310   9.774  20.679  0.00  0.00    +0.000 A 
ATOM     24  C   UNL     1       1.427   9.443  19.912  0.00  0.00    +0.000 A 
ENDBRANCH  18  19
ENDBRANCH   9  18
TORSDOF 3
ENDMDL
MODEL 4
REMARK VINA RESULT:      -7.9      2.270      6.506
REMARK  Name = 
REMARK  4 active torsions:
REMARK  status: ('A' for Active; 'I' for Inactive)
REMARK    1  A    between atoms: C_1  and  N_2
REMARK    2  A    between atoms: C_7  and  C_8
REMARK    3  A    between atoms: N_15  and  C_16
REMARK    4  A    between atoms: C_16  and  C_17
REMARK                            x       y       z     vdW  Elec       q    Type
REMARK                         _______ _______ _______ _____ _____    ______ ____
ROOT
ATOM      1  C   UNL     1       6.469   4.173  15.816  0.00  0.00    +0.000 C 
ATOM      2  N   UNL     1       5.545   5.141  16.372  0.00  0.00    +0.000 N 
ATOM      3  N   UNL     1       5.724   6.481  15.996  0.00  0.00    +0.000 NA
ATOM      4  C   UNL     1       4.915   7.376  16.482  0.00  0.00    +0.000 A 
ATOM      5  C   UNL     1       3.877   7.009  17.389  0.00  0.00    +0.000 A 
ATOM      6  C   UNL     1       3.718   5.710  17.809  0.00  0.00    +0.000 A 
ATOM      7  C   UNL     1       2.663   5.745  18.758  0.00  0.00    +0.000 A 
ATOM      8  N   UNL     1       2.126   6.982  18.811  0.00  0.00    +0.000 NA
ATOM      9  N   UNL     1       2.885   7.732  17.975  0.00  0.00    +0.000 N 
ATOM     10  C   UNL     1       4.563   4.668  17.267  0.00  0.00    +0.000 A 
ATOM     11  O   UNL     1       4.433   3.479  17.544  0.00  0.00    +0.000 OA
ENDROOT
BRANCH   7  12
ATOM     12  C   UNL     1       2.155   4.655  19.594  0.00  0.00    +0.000 A 
ATOM     13  C   UNL     1       2.515   4.570  20.947  0.00  0.00    +0.000 A 
ATOM     14  C   UNL     1       2.104   3.495  21.736  0.00  0.00    +0.000 A 
ATOM     15  C   UNL     1       1.289   2.508  21.190  0.00  0.00    +0.000 A 
ATOM     16  C   UNL     1       0.876   2.604  19.862  0.00  0.00    +0.000 A 
ATOM     17  C   UNL     1       1.307   3.672  19.067  0.00  0.00    +0.000 A 
ENDBRANCH   7  12
BRANCH   9  18
ATOM     18  C   UNL     1       2.464   9.092  17.650  0.00  0.00    +0.000 C 
BRANCH  18  19
ATOM     19  C   UNL     1       1.307   9.587  18.482  0.00  0.00    +0.000 A 
ATOM     20  C   UNL     1       0.057   9.833  17.891  0.00  0.00    +0.000 A 
ATOM     21  C   UNL     1      -1.044  10.183  18.677  0.00  0.00    +0.000 A 
ATOM     22  C   UNL     1      -0.911  10.291  20.060  0.00  0.00    +0.000 A 
ATOM     23  C   UNL     1       0.327  10.064  20.658  0.00  0.00    +0.000 A 
ATOM     24  C   UNL     1       1.428   9.715  19.875  0.00  0.00    +0.000 A 
ENDBRANCH  18  19
ENDBRANCH   9  18
TORSDOF 3
ENDMDL
MODEL 5
REMARK VINA RESULT:      -7.8      1.984      4.582
REMARK  Name = 
REMARK  4 active torsions:
REMARK  status: ('A' for Active; 'I' for Inactive)
REMARK    1  A    between atoms: C_1  and  N_2
REMARK    2  A    between atoms: C_7  and  C_8
REMARK    3  A    between atoms: N_15  and  C_16
REMARK    4  A    between atoms: C_16  and  C_17
REMARK                            x       y       z     vdW  Elec       q    Type
REMARK                         _______ _______ _______ _____ _____    ______ ____
ROOT
ATOM      1  C   UNL     1       0.314  10.198  20.813  0.00  0.00    +0.000 C 
ATOM      2  N   UNL     1       1.126   9.421  19.899  0.00  0.00    +0.000 N 
ATOM      3  N   UNL     1       1.631  10.087  18.773  0.00  0.00    +0.000 NA
ATOM      4  C   UNL     1       2.360   9.417  17.929  0.00  0.00    +0.000 A 
ATOM      5  C   UNL     1       2.627   8.030  18.133  0.00  0.00    +0.000 A 
ATOM      6  C   UNL     1       2.098   7.347  19.202  0.00  0.00    +0.000 A 
ATOM      7  C   UNL     1       2.499   5.998  19.027  0.00  0.00    +0.000 A 
ATOM      8  N   UNL     1       3.337   5.895  17.974  0.00  0.00    +0.000 NA
ATOM      9  N   UNL     1       3.394   7.141  17.445  0.00  0.00    +0.000 N 
ATOM     10  C   UNL     1       1.317   8.054  20.194  0.00  0.00    +0.000 A 
ATOM     11  O   UNL     1       0.872   7.525  21.208  0.00  0.00    +0.000 OA
ENDROOT
BRANCH   7  12
ATOM     12  C   UNL     1       2.122   4.827  19.821  0.00  0.00    +0.000 A 
ATOM     13  C   UNL     1       1.208   3.890  19.317  0.00  0.00    +0.000 A 
ATOM     14  C   UNL     1       0.779   2.812  20.092  0.00  0.00    +0.000 A 
ATOM     15  C   UNL     1       1.294   2.632  21.372  0.00  0.00    +0.000 A 
ATOM     16  C   UNL     1       2.245   3.522  21.870  0.00  0.00    +0.000 A 
ATOM     17  C   UNL     1       2.658   4.614  21.098  0.00  0.00    +0.000 A 
ENDBRANCH   7  12
BRANCH   9  18
ATOM     18  C   UNL     1       4.363   7.431  16.393  0.00  0.00    +0.000 C 
BRANCH  18  19
ATOM     19  C   UNL     1       5.468   6.410  16.284  0.00  0.00    +0.000 A 
ATOM     20  C   UNL     1       6.416   6.272  17.310  0.00  0.00    +0.000 A 
ATOM     21  C   UNL     1       7.371   5.252  17.264  0.00  0.00    +0.000 A 
ATOM     22  C   UNL     1       7.390   4.359  16.193  0.00  0.00    +0.000 A 
ATOM     23  C   UNL     1       6.465   4.495  15.161  0.00  0.00    +0.000 A 
ATOM     24  C   UNL     1       5.510   5.512  15.205  0.00  0.00    +0.000 A 
ENDBRANCH  18  19
ENDBRANCH   9  18
TORSDOF 3
ENDMDL
MODEL 6
REMARK VINA RESULT:      -7.7      0.279      1.417
REMARK  Name = 
REMARK  4 active torsions:
REMARK  status: ('A' for Active; 'I' for Inactive)
REMARK    1  A    between atoms: C_1  and  N_2
REMARK    2  A    between atoms: C_7  and  C_8
REMARK    3  A    between atoms: N_15  and  C_16
REMARK    4  A    between atoms: C_16  and  C_17
REMARK                            x       y       z     vdW  Elec       q    Type
REMARK                         _______ _______ _______ _____ _____    ______ ____
ROOT
ATOM      1  C   UNL     1       1.361   2.339  21.113  0.00  0.00    +0.000 C 
ATOM      2  N   UNL     1       2.414   3.103  20.474  0.00  0.00    +0.000 N 
ATOM      3  N   UNL     1       3.666   2.483  20.352  0.00  0.00    +0.000 NA
ATOM      4  C   UNL     1       4.635   3.143  19.789  0.00  0.00    +0.000 A 
ATOM      5  C   UNL     1       4.436   4.475  19.317  0.00  0.00    +0.000 A 
ATOM      6  C   UNL     1       3.232   5.118  19.474  0.00  0.00    +0.000 A 
ATOM      7  C   UNL     1       3.435   6.431  18.975  0.00  0.00    +0.000 A 
ATOM      8  N   UNL     1       4.663   6.534  18.426  0.00  0.00    +0.000 NA
ATOM      9  N   UNL     1       5.253   5.335  18.652  0.00  0.00    +0.000 N 
ATOM     10  C   UNL     1       2.108   4.415  20.055  0.00  0.00    +0.000 A 
ATOM     11  O   UNL     1       0.987   4.903  20.163  0.00  0.00    +0.000 OA
ENDROOT
BRANCH   7  12
ATOM     12  C   UNL     1       2.510   7.566  18.998  0.00  0.00    +0.000 A 
ATOM     13  C   UNL     1       1.920   7.979  20.201  0.00  0.00    +0.000 A 
ATOM     14  C   UNL     1       0.978   9.007  20.227  0.00  0.00    +0.000 A 
ATOM     15  C   UNL     1       0.642   9.667  19.050  0.00  0.00    +0.000 A 
ATOM     16  C   UNL     1       1.259   9.308  17.852  0.00  0.00    +0.000 A 
ATOM     17  C   UNL     1       2.188   8.263  17.825  0.00  0.00    +0.000 A 
ENDBRANCH   7  12
BRANCH   9  18
ATOM     18  C   UNL     1       6.535   5.036  18.022  0.00  0.00    +0.000 C 
BRANCH  18  19
ATOM     19  C   UNL     1       6.427   4.671  16.562  0.00  0.00    +0.000 A 
ATOM     20  C   UNL     1       5.263   4.068  16.061  0.00  0.00    +0.000 A 
ATOM     21  C   UNL     1       5.116   3.833  14.691  0.00  0.00    +0.000 A 
ATOM     22  C   UNL     1       6.128   4.198  13.806  0.00  0.00    +0.000 A 
ATOM     23  C   UNL     1       7.296   4.784  14.292  0.00  0.00    +0.000 A 
ATOM     24  C   UNL     1       7.445   5.020  15.659  0.00  0.00    +0.000 A 
ENDBRANCH  18  19
ENDBRANCH   9  18
TORSDOF 3
ENDMDL
MODEL 7
REMARK VINA RESULT:      -7.6      1.998      4.686
REMARK  Name = 
REMARK  4 active torsions:
REMARK  status: ('A' for Active; 'I' for Inactive)
REMARK    1  A    between atoms: C_1  and  N_2
REMARK    2  A    between atoms: C_7  and  C_8
REMARK    3  A    between atoms: N_15  and  C_16
REMARK    4  A    between atoms: C_16  and  C_17
REMARK                            x       y       z     vdW  Elec       q    Type
REMARK                         _______ _______ _______ _____ _____    ______ ____
ROOT
ATOM      1  C   UNL     1       0.183  10.231  20.840  0.00  0.00    +0.000 C 
ATOM      2  N   UNL     1       1.027   9.458  19.951  0.00  0.00    +0.000 N 
ATOM      3  N   UNL     1       1.565  10.128  18.843  0.00  0.00    +0.000 NA
ATOM      4  C   UNL     1       2.323   9.462  18.021  0.00  0.00    +0.000 A 
ATOM      5  C   UNL     1       2.591   8.076  18.232  0.00  0.00    +0.000 A 
ATOM      6  C   UNL     1       2.032   7.390  19.284  0.00  0.00    +0.000 A 
ATOM      7  C   UNL     1       2.445   6.043  19.121  0.00  0.00    +0.000 A 
ATOM      8  N   UNL     1       3.316   5.946  18.094  0.00  0.00    +0.000 NA
ATOM      9  N   UNL     1       3.383   7.193  17.568  0.00  0.00    +0.000 N 
ATOM     10  C   UNL     1       1.216   8.093  20.251  0.00  0.00    +0.000 A 
ATOM     11  O   UNL     1       0.741   7.560  21.250  0.00  0.00    +0.000 OA
ENDROOT
BRANCH   7  12
ATOM     12  C   UNL     1       2.048   4.869  19.901  0.00  0.00    +0.000 A 
ATOM     13  C   UNL     1       2.550   4.674  21.196  0.00  0.00    +0.000 A 
ATOM     14  C   UNL     1       2.244   3.522  21.922  0.00  0.00    +0.000 A 
ATOM     15  C   UNL     1       1.395   2.565  21.375  0.00  0.00    +0.000 A 
ATOM     16  C   UNL     1       0.843   2.767  20.110  0.00  0.00    +0.000 A 
ATOM     17  C   UNL     1       1.168   3.914  19.376  0.00  0.00    +0.000 A 
ENDBRANCH   7  12
BRANCH   9  18
ATOM     18  C   UNL     1       4.384   7.488  16.548  0.00  0.00    +0.000 C 
BRANCH  18  19
ATOM     19  C   UNL     1       5.344   6.354  16.289  0.00  0.00    +0.000 A 
ATOM     20  C   UNL     1       5.277   5.621  15.093  0.00  0.00    +0.000 A 
ATOM     21  C   UNL     1       6.235   4.647  14.801  0.00  0.00    +0.000 A 
ATOM     22  C   UNL     1       7.271   4.392  15.698  0.00  0.00    +0.000 A 
ATOM     23  C   UNL     1       7.340   5.101  16.896  0.00  0.00    +0.000 A 
ATOM     24  C   UNL     1       6.385   6.075  17.189  0.00  0.00    +0.000 A 
ENDBRANCH  18  19
ENDBRANCH   9  18
TORSDOF 3
ENDMDL
MODEL 8
REMARK VINA RESULT:      -7.6      1.377      1.731
REMARK  Name = 
REMARK  4 active torsions:
REMARK  status: ('A' for Active; 'I' for Inactive)
REMARK    1  A    between atoms: C_1  and  N_2
REMARK    2  A    between atoms: C_7  and  C_8
REMARK    3  A    between atoms: N_15  and  C_16
REMARK    4  A    between atoms: C_16  and  C_17
REMARK                            x       y       z     vdW  Elec       q    Type
REMARK                         _______ _______ _______ _____ _____    ______ ____
ROOT
ATOM      1  C   UNL     1       1.076   1.767  18.911  0.00  0.00    +0.000 C 
ATOM      2  N   UNL     1       2.235   2.568  18.572  0.00  0.00    +0.000 N 
ATOM      3  N   UNL     1       3.431   1.881  18.318  0.00  0.00    +0.000 NA
ATOM      4  C   UNL     1       4.492   2.570  18.016  0.00  0.00    +0.000 A 
ATOM      5  C   UNL     1       4.448   3.995  17.958  0.00  0.00    +0.000 A 
ATOM      6  C   UNL     1       3.299   4.689  18.254  0.00  0.00    +0.000 A 
ATOM      7  C   UNL     1       3.654   6.060  18.180  0.00  0.00    +0.000 A 
ATOM      8  N   UNL     1       4.922   6.188  17.735  0.00  0.00    +0.000 NA
ATOM      9  N   UNL     1       5.383   4.920  17.613  0.00  0.00    +0.000 N 
ATOM     10  C   UNL     1       2.079   3.970  18.554  0.00  0.00    +0.000 A 
ATOM     11  O   UNL     1       1.002   4.521  18.760  0.00  0.00    +0.000 OA
ENDROOT
BRANCH   7  12
ATOM     12  C   UNL     1       2.836   7.231  18.507  0.00  0.00    +0.000 A 
ATOM     13  C   UNL     1       2.288   7.379  19.789  0.00  0.00    +0.000 A 
ATOM     14  C   UNL     1       1.443   8.447  20.093  0.00  0.00    +0.000 A 
ATOM     15  C   UNL     1       1.169   9.408  19.125  0.00  0.00    +0.000 A 
ATOM     16  C   UNL     1       1.749   9.307  17.861  0.00  0.00    +0.000 A 
ATOM     17  C   UNL     1       2.579   8.224  17.553  0.00  0.00    +0.000 A 
ENDBRANCH   7  12
BRANCH   9  18
ATOM     18  C   UNL     1       6.673   4.684  16.972  0.00  0.00    +0.000 C 
BRANCH  18  19
ATOM     19  C   UNL     1       6.600   4.601  15.468  0.00  0.00    +0.000 A 
ATOM     20  C   UNL     1       7.599   5.185  14.672  0.00  0.00    +0.000 A 
ATOM     21  C   UNL     1       7.594   5.011  13.285  0.00  0.00    +0.000 A 
ATOM     22  C   UNL     1       6.594   4.253  12.677  0.00  0.00    +0.000 A 
ATOM     23  C   UNL     1       5.589   3.681  13.455  0.00  0.00    +0.000 A 
ATOM     24  C   UNL     1       5.592   3.853  14.840  0.00  0.00    +0.000 A 
ENDBRANCH  18  19
ENDBRANCH   9  18
TORSDOF 3
ENDMDL
MODEL 9
REMARK VINA RESULT:      -7.6      1.273      1.293
REMARK  Name = 
REMARK  4 active torsions:
REMARK  status: ('A' for Active; 'I' for Inactive)
REMARK    1  A    between atoms: C_1  and  N_2
REMARK    2  A    between atoms: C_7  and  C_8
REMARK    3  A    between atoms: N_15  and  C_16
REMARK    4  A    between atoms: C_16  and  C_17
REMARK                            x       y       z     vdW  Elec       q    Type
REMARK                         _______ _______ _______ _____ _____    ______ ____
ROOT
ATOM      1  C   UNL     1       0.956   1.690  19.069  0.00  0.00    +0.000 C 
ATOM      2  N   UNL     1       2.117   2.494  18.745  0.00  0.00    +0.000 N 
ATOM      3  N   UNL     1       3.322   1.812  18.523  0.00  0.00    +0.000 NA
ATOM      4  C   UNL     1       4.385   2.504  18.235  0.00  0.00    +0.000 A 
ATOM      5  C   UNL     1       4.333   3.928  18.162  0.00  0.00    +0.000 A 
ATOM      6  C   UNL     1       3.174   4.618  18.426  0.00  0.00    +0.000 A 
ATOM      7  C   UNL     1       3.522   5.991  18.344  0.00  0.00    +0.000 A 
ATOM      8  N   UNL     1       4.798   6.122  17.924  0.00  0.00    +0.000 NA
ATOM      9  N   UNL     1       5.270   4.855  17.826  0.00  0.00    +0.000 N 
ATOM     10  C   UNL     1       1.953   3.895  18.709  0.00  0.00    +0.000 A 
ATOM     11  O   UNL     1       0.868   4.442  18.887  0.00  0.00    +0.000 OA
ENDROOT
BRANCH   7  12
ATOM     12  C   UNL     1       2.691   7.159  18.642  0.00  0.00    +0.000 A 
ATOM     13  C   UNL     1       2.406   8.101  17.643  0.00  0.00    +0.000 A 
ATOM     14  C   UNL     1       1.682   9.260  17.930  0.00  0.00    +0.000 A 
ATOM     15  C   UNL     1       1.197   9.471  19.216  0.00  0.00    +0.000 A 
ATOM     16  C   UNL     1       1.423   8.519  20.210  0.00  0.00    +0.000 A 
ATOM     17  C   UNL     1       2.167   7.368  19.924  0.00  0.00    +0.000 A 
ENDBRANCH   7  12
BRANCH   9  18
ATOM     18  C   UNL     1       6.574   4.621  17.214  0.00  0.00    +0.000 C 
BRANCH  18  19
ATOM     19  C   UNL     1       6.540   4.570  15.707  0.00  0.00    +0.000 A 
ATOM     20  C   UNL     1       7.520   5.231  14.948  0.00  0.00    +0.000 A 
ATOM     21  C   UNL     1       7.557   5.092  13.558  0.00  0.00    +0.000 A 
ATOM     22  C   UNL     1       6.618   4.292  12.910  0.00  0.00    +0.000 A 
ATOM     23  C   UNL     1       5.631   3.642  13.649  0.00  0.00    +0.000 A 
ATOM     24  C   UNL     1       5.592   3.780  15.037  0.00  0.00    +0.000 A 
ENDBRANCH  18  19
ENDBRANCH   9  18
TORSDOF 3
ENDMDL
