MODEL 1
REMARK VINA RESULT:      -8.0      0.000      0.000
REMARK  Name = 
REMARK  11 active torsions:
REMARK  status: ('A' for Active; 'I' for Inactive)
REMARK    1  A    between atoms: C_2  and  C_28
REMARK    2  A    between atoms: N_3  and  C_4
REMARK    3  A    between atoms: C_4  and  C_5
REMARK    4  A    between atoms: C_5  and  C_6
REMARK    5  A    between atoms: C_6  and  N_7
REMARK    6  A    between atoms: N_10  and  C_11
REMARK    7  A    between atoms: C_11  and  C_12
REMARK    8  A    between atoms: C_12  and  C_13
REMARK    9  A    between atoms: C_13  and  N_14
REMARK   10  A    between atoms: N_14  and  C_15
REMARK   11  A    between atoms: C_31  and  O_32
REMARK                            x       y       z     vdW  Elec       q    Type
REMARK                         _______ _______ _______ _____ _____    ______ ____
ROOT
ATOM      1  N   UNL     1       4.508   5.092  17.199  0.00  0.00    +0.000 NA
ATOM      2  C   UNL     1       5.248   5.668  18.339  0.00  0.00    +0.000 C 
ATOM      3  C   UNL     1       6.757   5.344  18.329  0.00  0.00    +0.000 C 
ATOM      4  N   UNL     1       7.455   5.798  17.109  0.00  0.00    +0.000 NA
ATOM      5  C   UNL     1       6.731   5.294  15.921  0.00  0.00    +0.000 C 
ATOM      6  C   UNL     1       5.194   5.513  15.946  0.00  0.00    +0.000 C 
ENDROOT
BRANCH   1   7
ATOM      7  C   UNL     1       4.402   3.623  17.259  0.00  0.00    +0.000 C 
BRANCH   7   8
ATOM      8  C   UNL     1       4.054   3.034  18.633  0.00  0.00    +0.000 C 
BRANCH   8   9
ATOM      9  C   UNL     1       2.566   3.053  18.980  0.00  0.00    +0.000 C 
BRANCH   9  12
ATOM     10  O   UNL     1       2.399   4.776  21.183  0.00  0.00    +0.000 OA
ATOM     11  C   UNL     1       2.088   5.207  20.079  0.00  0.00    +0.000 C 
ATOM     12  N   UNL     1       2.057   4.420  18.944  0.00  0.00    +0.000 N 
ATOM     13  H   UNL     1       1.991   4.867  18.039  0.00  0.00    +0.000 HD
BRANCH  11  14
ATOM     14  C   UNL     1       1.801   6.658  19.910  0.00  0.00    +0.000 A 
ATOM     15  C   UNL     1       2.096   7.239  18.666  0.00  0.00    +0.000 A 
ATOM     16  C   UNL     1       1.872   8.599  18.443  0.00  0.00    +0.000 A 
ATOM     17  C   UNL     1       1.357   9.379  19.469  0.00  0.00    +0.000 A 
ATOM     18  C   UNL     1       1.063   8.820  20.709  0.00  0.00    +0.000 A 
ATOM     19  C   UNL     1       1.282   7.458  20.936  0.00  0.00    +0.000 A 
BRANCH  17  20
ATOM     20  O   UNL     1       1.136  10.715  19.297  0.00  0.00    +0.000 OA
ATOM     21  H   UNL     1       1.576  11.002  18.479  0.00  0.00    +0.000 HD
ENDBRANCH  17  20
ENDBRANCH  11  14
ENDBRANCH   9  12
ENDBRANCH   8   9
ENDBRANCH   7   8
ENDBRANCH   1   7
BRANCH   4  22
ATOM     22  C   UNL     1       7.627   7.259  17.048  0.00  0.00    +0.000 C 
BRANCH  22  23
ATOM     23  C   UNL     1       8.136   7.856  18.365  0.00  0.00    +0.000 C 
BRANCH  23  24
ATOM     24  C   UNL     1       8.408   9.351  18.219  0.00  0.00    +0.000 C 
BRANCH  24  25
ATOM     25  N   UNL     1       9.340   9.776  19.264  0.00  0.00    +0.000 N 
ATOM     26  H   UNL     1       9.999   9.032  19.466  0.00  0.00    +0.000 HD
BRANCH  25  27
ATOM     27  C   UNL     1      10.014  11.005  19.062  0.00  0.00    +0.000 A 
ATOM     28  C   UNL     1      10.641  11.288  17.845  0.00  0.00    +0.000 A 
ATOM     29  C   UNL     1      11.216  12.526  17.649  0.00  0.00    +0.000 A 
ATOM     30  N   UNL     1      11.185  13.515  18.557  0.00  0.00    +0.000 NA
ATOM     31  C   UNL     1      10.548  13.285  19.713  0.00  0.00    +0.000 A 
ATOM     32  C   UNL     1      10.492  14.328  20.622  0.00  0.00    +0.000 A 
ATOM     33  C   UNL     1       9.853  14.187  21.851  0.00  0.00    +0.000 A 
ATOM     34 CL   UNL     1       9.794  15.512  22.944  0.00  0.00    +0.000 Cl
ATOM     35  C   UNL     1       9.260  12.982  22.198  0.00  0.00    +0.000 A 
ATOM     36  C   UNL     1       9.299  11.921  21.293  0.00  0.00    +0.000 A 
ATOM     37  C   UNL     1       9.938  12.047  20.031  0.00  0.00    +0.000 A 
ENDBRANCH  25  27
ENDBRANCH  24  25
ENDBRANCH  23  24
ENDBRANCH  22  23
ENDBRANCH   4  22
TORSDOF 11
ENDMDL
MODEL 2
REMARK VINA RESULT:      -7.7      5.543      8.952
REMARK  Name = 
REMARK  11 active torsions:
REMARK  status: ('A' for Active; 'I' for Inactive)
REMARK    1  A    between atoms: C_2  and  C_28
REMARK    2  A    between atoms: N_3  and  C_4
REMARK    3  A    between atoms: C_4  and  C_5
REMARK    4  A    between atoms: C_5  and  C_6
REMARK    5  A    between atoms: C_6  and  N_7
REMARK    6  A    between atoms: N_10  and  C_11
REMARK    7  A    between atoms: C_11  and  C_12
REMARK    8  A    between atoms: C_12  and  C_13
REMARK    9  A    between atoms: C_13  and  N_14
REMARK   10  A    between atoms: N_14  and  C_15
REMARK   11  A    between atoms: C_31  and  O_32
REMARK                            x       y       z     vdW  Elec       q    Type
REMARK                         _______ _______ _______ _____ _____    ______ ____
ROOT
ATOM      1  N   UNL     1       1.677   4.059  19.802  0.00  0.00    +0.000 NA
ATOM      2  C   UNL     1       2.140   5.103  20.737  0.00  0.00    +0.000 C 
ATOM      3  C   UNL     1       3.320   5.940  20.199  0.00  0.00    +0.000 C 
ATOM      4  N   UNL     1       3.031   6.624  18.921  0.00  0.00    +0.000 NA
ATOM      5  C   UNL     1       2.511   5.635  17.951  0.00  0.00    +0.000 C 
ATOM      6  C   UNL     1       1.391   4.707  18.494  0.00  0.00    +0.000 C 
ENDROOT
BRANCH   1   7
ATOM      7  C   UNL     1       2.646   2.960  19.634  0.00  0.00    +0.000 C 
BRANCH   7   8
ATOM      8  C   UNL     1       2.391   2.020  18.447  0.00  0.00    +0.000 C 
BRANCH   8   9
ATOM      9  C   UNL     1       3.515   1.972  17.414  0.00  0.00    +0.000 C 
BRANCH   9  12
ATOM     10  O   UNL     1       4.702   3.937  15.808  0.00  0.00    +0.000 OA
ATOM     11  C   UNL     1       5.073   3.830  16.972  0.00  0.00    +0.000 C 
ATOM     12  N   UNL     1       4.612   2.844  17.822  0.00  0.00    +0.000 N 
ATOM     13  H   UNL     1       4.797   2.925  18.813  0.00  0.00    +0.000 HD
BRANCH  11  14
ATOM     14  C   UNL     1       6.005   4.842  17.542  0.00  0.00    +0.000 A 
ATOM     15  C   UNL     1       6.369   5.924  16.724  0.00  0.00    +0.000 A 
ATOM     16  C   UNL     1       7.254   6.900  17.184  0.00  0.00    +0.000 A 
ATOM     17  C   UNL     1       7.779   6.789  18.464  0.00  0.00    +0.000 A 
ATOM     18  C   UNL     1       7.432   5.722  19.287  0.00  0.00    +0.000 A 
ATOM     19  C   UNL     1       6.543   4.744  18.830  0.00  0.00    +0.000 A 
BRANCH  17  20
ATOM     20  O   UNL     1       8.658   7.714  18.949  0.00  0.00    +0.000 OA
ATOM     21  H   UNL     1       9.556   7.471  18.666  0.00  0.00    +0.000 HD
ENDBRANCH  17  20
ENDBRANCH  11  14
ENDBRANCH   9  12
ENDBRANCH   8   9
ENDBRANCH   7   8
ENDBRANCH   1   7
BRANCH   4  22
ATOM     22  C   UNL     1       2.109   7.762  19.068  0.00  0.00    +0.000 C 
BRANCH  22  23
ATOM     23  C   UNL     1       2.010   8.618  17.801  0.00  0.00    +0.000 C 
BRANCH  23  24
ATOM     24  C   UNL     1       1.594  10.048  18.137  0.00  0.00    +0.000 C 
BRANCH  24  25
ATOM     25  N   UNL     1       0.220  10.269  17.686  0.00  0.00    +0.000 N 
ATOM     26  H   UNL     1      -0.231   9.380  17.495  0.00  0.00    +0.000 HD
BRANCH  25  27
ATOM     27  C   UNL     1      -0.600  11.085  18.503  0.00  0.00    +0.000 A 
ATOM     28  C   UNL     1      -0.040  12.049  19.346  0.00  0.00    +0.000 A 
ATOM     29  C   UNL     1      -0.868  12.885  20.065  0.00  0.00    +0.000 A 
ATOM     30  N   UNL     1      -2.208  12.858  19.985  0.00  0.00    +0.000 NA
ATOM     31  C   UNL     1      -2.768  11.974  19.148  0.00  0.00    +0.000 A 
ATOM     32  C   UNL     1      -4.149  11.985  19.048  0.00  0.00    +0.000 A 
ATOM     33  C   UNL     1      -4.824  11.105  18.206  0.00  0.00    +0.000 A 
ATOM     34 CL   UNL     1      -6.539  11.163  18.101  0.00  0.00    +0.000 Cl
ATOM     35  C   UNL     1      -4.120  10.183  17.447  0.00  0.00    +0.000 A 
ATOM     36  C   UNL     1      -2.726  10.160  17.528  0.00  0.00    +0.000 A 
ATOM     37  C   UNL     1      -2.019  11.054  18.373  0.00  0.00    +0.000 A 
ENDBRANCH  25  27
ENDBRANCH  24  25
ENDBRANCH  23  24
ENDBRANCH  22  23
ENDBRANCH   4  22
TORSDOF 11
ENDMDL
MODEL 3
REMARK VINA RESULT:      -7.3      5.059      7.735
REMARK  Name = 
REMARK  11 active torsions:
REMARK  status: ('A' for Active; 'I' for Inactive)
REMARK    1  A    between atoms: C_2  and  C_28
REMARK    2  A    between atoms: N_3  and  C_4
REMARK    3  A    between atoms: C_4  and  C_5
REMARK    4  A    between atoms: C_5  and  C_6
REMARK    5  A    between atoms: C_6  and  N_7
REMARK    6  A    between atoms: N_10  and  C_11
REMARK    7  A    between atoms: C_11  and  C_12
REMARK    8  A    between atoms: C_12  and  C_13
REMARK    9  A    between atoms: C_13  and  N_14
REMARK   10  A    between atoms: N_14  and  C_15
REMARK   11  A    between atoms: C_31  and  O_32
REMARK                            x       y       z     vdW  Elec       q    Type
REMARK                         _______ _______ _______ _____ _____    ______ ____
ROOT
ATOM      1  N   UNL     1       3.089   6.444  19.038  0.00  0.00    +0.000 NA
ATOM      2  C   UNL     1       2.950   5.557  20.210  0.00  0.00    +0.000 C 
ATOM      3  C   UNL     1       1.598   4.816  20.271  0.00  0.00    +0.000 C 
ATOM      4  N   UNL     1       1.320   3.983  19.084  0.00  0.00    +0.000 NA
ATOM      5  C   UNL     1       1.493   4.805  17.865  0.00  0.00    +0.000 C 
ATOM      6  C   UNL     1       2.799   5.644  17.818  0.00  0.00    +0.000 C 
ENDROOT
BRANCH   1   7
ATOM      7  C   UNL     1       2.210   7.627  19.100  0.00  0.00    +0.000 C 
BRANCH   7   8
ATOM      8  C   UNL     1       2.227   8.538  17.864  0.00  0.00    +0.000 C 
BRANCH   8   9
ATOM      9  C   UNL     1       1.755   9.968  18.115  0.00  0.00    +0.000 C 
BRANCH   9  12
ATOM     10  O   UNL     1      -0.453   9.997  19.840  0.00  0.00    +0.000 OA
ATOM     11  C   UNL     1      -0.642  10.194  18.645  0.00  0.00    +0.000 C 
ATOM     12  N   UNL     1       0.364  10.121  17.701  0.00  0.00    +0.000 N 
ATOM     13  H   UNL     1       0.193  10.486  16.773  0.00  0.00    +0.000 HD
BRANCH  11  14
ATOM     14  C   UNL     1      -1.992  10.608  18.173  0.00  0.00    +0.000 A 
ATOM     15  C   UNL     1      -2.448  10.071  16.958  0.00  0.00    +0.000 A 
ATOM     16  C   UNL     1      -3.695  10.430  16.442  0.00  0.00    +0.000 A 
ATOM     17  C   UNL     1      -4.484  11.332  17.144  0.00  0.00    +0.000 A 
ATOM     18  C   UNL     1      -4.046  11.876  18.347  0.00  0.00    +0.000 A 
ATOM     19  C   UNL     1      -2.799  11.516  18.868  0.00  0.00    +0.000 A 
BRANCH  17  20
ATOM     20  O   UNL     1      -5.703  11.720  16.669  0.00  0.00    +0.000 OA
ATOM     21  H   UNL     1      -5.798  11.406  15.754  0.00  0.00    +0.000 HD
ENDBRANCH  17  20
ENDBRANCH  11  14
ENDBRANCH   9  12
ENDBRANCH   8   9
ENDBRANCH   7   8
ENDBRANCH   1   7
BRANCH   4  22
ATOM     22  C   UNL     1       2.143   2.763  19.025  0.00  0.00    +0.000 C 
BRANCH  22  23
ATOM     23  C   UNL     1       3.505   2.929  19.707  0.00  0.00    +0.000 C 
BRANCH  23  24
ATOM     24  C   UNL     1       4.634   2.953  18.678  0.00  0.00    +0.000 C 
BRANCH  24  25
ATOM     25  N   UNL     1       5.739   3.761  19.194  0.00  0.00    +0.000 N 
ATOM     26  H   UNL     1       6.465   3.159  19.567  0.00  0.00    +0.000 HD
BRANCH  25  27
ATOM     27  C   UNL     1       6.288   4.730  18.319  0.00  0.00    +0.000 A 
ATOM     28  C   UNL     1       6.969   5.845  18.820  0.00  0.00    +0.000 A 
ATOM     29  C   UNL     1       7.564   6.727  17.943  0.00  0.00    +0.000 A 
ATOM     30  N   UNL     1       7.564   6.567  16.609  0.00  0.00    +0.000 NA
ATOM     31  C   UNL     1       6.959   5.482  16.108  0.00  0.00    +0.000 A 
ATOM     32  C   UNL     1       7.001   5.313  14.734  0.00  0.00    +0.000 A 
ATOM     33  C   UNL     1       6.402   4.218  14.118  0.00  0.00    +0.000 A 
ATOM     34 CL   UNL     1       6.491   4.038  12.411  0.00  0.00    +0.000 Cl
ATOM     35  C   UNL     1       5.735   3.267  14.875  0.00  0.00    +0.000 A 
ATOM     36  C   UNL     1       5.687   3.415  16.262  0.00  0.00    +0.000 A 
ATOM     37  C   UNL     1       6.299   4.519  16.910  0.00  0.00    +0.000 A 
ENDBRANCH  25  27
ENDBRANCH  24  25
ENDBRANCH  23  24
ENDBRANCH  22  23
ENDBRANCH   4  22
TORSDOF 11
ENDMDL
MODEL 4
REMARK VINA RESULT:      -7.3      0.811      1.223
REMARK  Name = 
REMARK  11 active torsions:
REMARK  status: ('A' for Active; 'I' for Inactive)
REMARK    1  A    between atoms: C_2  and  C_28
REMARK    2  A    between atoms: N_3  and  C_4
REMARK    3  A    between atoms: C_4  and  C_5
REMARK    4  A    between atoms: C_5  and  C_6
REMARK    5  A    between atoms: C_6  and  N_7
REMARK    6  A    between atoms: N_10  and  C_11
REMARK    7  A    between atoms: C_11  and  C_12
REMARK    8  A    between atoms: C_12  and  C_13
REMARK    9  A    between atoms: C_13  and  N_14
REMARK   10  A    between atoms: N_14  and  C_15
REMARK   11  A    between atoms: C_31  and  O_32
REMARK                            x       y       z     vdW  Elec       q    Type
REMARK                         _______ _______ _______ _____ _____    ______ ____
ROOT
ATOM      1  N   UNL     1       5.204   5.386  18.822  0.00  0.00    +0.000 NA
ATOM      2  C   UNL     1       6.517   5.273  19.488  0.00  0.00    +0.000 C 
ATOM      3  C   UNL     1       7.708   5.233  18.508  0.00  0.00    +0.000 C 
ATOM      4  N   UNL     1       7.791   6.412  17.622  0.00  0.00    +0.000 NA
ATOM      5  C   UNL     1       6.484   6.612  16.959  0.00  0.00    +0.000 C 
ATOM      6  C   UNL     1       5.252   6.556  17.904  0.00  0.00    +0.000 C 
ENDROOT
BRANCH   1   7
ATOM      7  C   UNL     1       4.821   4.167  18.085  0.00  0.00    +0.000 C 
BRANCH   7   8
ATOM      8  C   UNL     1       4.241   3.027  18.933  0.00  0.00    +0.000 C 
BRANCH   8   9
ATOM      9  C   UNL     1       2.763   3.181  19.289  0.00  0.00    +0.000 C 
BRANCH   9  12
ATOM     10  O   UNL     1       2.222   5.228  21.125  0.00  0.00    +0.000 OA
ATOM     11  C   UNL     1       2.133   5.478  19.928  0.00  0.00    +0.000 C 
ATOM     12  N   UNL     1       2.299   4.521  18.945  0.00  0.00    +0.000 N 
ATOM     13  H   UNL     1       2.412   4.820  17.985  0.00  0.00    +0.000 HD
BRANCH  11  14
ATOM     14  C   UNL     1       1.912   6.882  19.484  0.00  0.00    +0.000 A 
ATOM     15  C   UNL     1       1.495   7.810  20.451  0.00  0.00    +0.000 A 
ATOM     16  C   UNL     1       1.249   9.140  20.104  0.00  0.00    +0.000 A 
ATOM     17  C   UNL     1       1.416   9.538  18.784  0.00  0.00    +0.000 A 
ATOM     18  C   UNL     1       1.826   8.629  17.813  0.00  0.00    +0.000 A 
ATOM     19  C   UNL     1       2.076   7.298  18.157  0.00  0.00    +0.000 A 
BRANCH  17  20
ATOM     20  O   UNL     1       1.173  10.824  18.399  0.00  0.00    +0.000 OA
ATOM     21  H   UNL     1       1.538  11.426  19.070  0.00  0.00    +0.000 HD
ENDBRANCH  17  20
ENDBRANCH  11  14
ENDBRANCH   9  12
ENDBRANCH   8   9
ENDBRANCH   7   8
ENDBRANCH   1   7
BRANCH   4  22
ATOM     22  C   UNL     1       8.228   7.632  18.320  0.00  0.00    +0.000 C 
BRANCH  22  23
ATOM     23  C   UNL     1       8.169   8.881  17.433  0.00  0.00    +0.000 C 
BRANCH  23  24
ATOM     24  C   UNL     1       8.229  10.154  18.275  0.00  0.00    +0.000 C 
BRANCH  24  25
ATOM     25  N   UNL     1       9.435  10.128  19.103  0.00  0.00    +0.000 N 
ATOM     26  H   UNL     1       9.982   9.300  18.895  0.00  0.00    +0.000 HD
BRANCH  25  27
ATOM     27  C   UNL     1      10.248  11.287  19.089  0.00  0.00    +0.000 A 
ATOM     28  C   UNL     1      11.107  11.548  18.017  0.00  0.00    +0.000 A 
ATOM     29  C   UNL     1      11.824  12.726  17.991  0.00  0.00    +0.000 A 
ATOM     30  N   UNL     1      11.725  13.679  18.932  0.00  0.00    +0.000 NA
ATOM     31  C   UNL     1      10.873  13.474  19.946  0.00  0.00    +0.000 A 
ATOM     32  C   UNL     1      10.755  14.483  20.886  0.00  0.00    +0.000 A 
ATOM     33  C   UNL     1       9.896  14.365  21.976  0.00  0.00    +0.000 A 
ATOM     34 CL   UNL     1       9.769  15.648  23.112  0.00  0.00    +0.000 Cl
ATOM     35  C   UNL     1       9.138  13.216  22.148  0.00  0.00    +0.000 A 
ATOM     36  C   UNL     1       9.237  12.190  21.207  0.00  0.00    +0.000 A 
ATOM     37  C   UNL     1      10.100  12.295  20.085  0.00  0.00    +0.000 A 
ENDBRANCH  25  27
ENDBRANCH  24  25
ENDBRANCH  23  24
ENDBRANCH  22  23
ENDBRANCH   4  22
TORSDOF 11
ENDMDL
MODEL 5
REMARK VINA RESULT:      -7.2      5.423      8.616
REMARK  Name = 
REMARK  11 active torsions:
REMARK  status: ('A' for Active; 'I' for Inactive)
REMARK    1  A    between atoms: C_2  and  C_28
REMARK    2  A    between atoms: N_3  and  C_4
REMARK    3  A    between atoms: C_4  and  C_5
REMARK    4  A    between atoms: C_5  and  C_6
REMARK    5  A    between atoms: C_6  and  N_7
REMARK    6  A    between atoms: N_10  and  C_11
REMARK    7  A    between atoms: C_11  and  C_12
REMARK    8  A    between atoms: C_12  and  C_13
REMARK    9  A    between atoms: C_13  and  N_14
REMARK   10  A    between atoms: N_14  and  C_15
REMARK   11  A    between atoms: C_31  and  O_32
REMARK                            x       y       z     vdW  Elec       q    Type
REMARK                         _______ _______ _______ _____ _____    ______ ____
ROOT
ATOM      1  N   UNL     1       1.072   3.591  19.959  0.00  0.00    +0.000 NA
ATOM      2  C   UNL     1       1.652   4.781  20.613  0.00  0.00    +0.000 C 
ATOM      3  C   UNL     1       2.846   5.390  19.849  0.00  0.00    +0.000 C 
ATOM      4  N   UNL     1       2.526   5.792  18.464  0.00  0.00    +0.000 NA
ATOM      5  C   UNL     1       1.891   4.652  17.765  0.00  0.00    +0.000 C 
ATOM      6  C   UNL     1       0.751   3.951  18.552  0.00  0.00    +0.000 C 
ENDROOT
BRANCH   1   7
ATOM      7  C   UNL     1       1.962   2.416  20.001  0.00  0.00    +0.000 C 
BRANCH   7   8
ATOM      8  C   UNL     1       3.334   2.639  20.654  0.00  0.00    +0.000 C 
BRANCH   8   9
ATOM      9  C   UNL     1       4.522   2.141  19.834  0.00  0.00    +0.000 C 
BRANCH   9  12
ATOM     10  O   UNL     1       4.777   3.315  17.303  0.00  0.00    +0.000 OA
ATOM     11  C   UNL     1       5.402   3.802  18.238  0.00  0.00    +0.000 C 
ATOM     12  N   UNL     1       5.410   3.252  19.506  0.00  0.00    +0.000 N 
ATOM     13  H   UNL     1       5.773   3.799  20.275  0.00  0.00    +0.000 HD
BRANCH  11  14
ATOM     14  C   UNL     1       6.131   5.086  18.047  0.00  0.00    +0.000 A 
ATOM     15  C   UNL     1       5.668   5.952  17.044  0.00  0.00    +0.000 A 
ATOM     16  C   UNL     1       6.314   7.164  16.793  0.00  0.00    +0.000 A 
ATOM     17  C   UNL     1       7.430   7.505  17.546  0.00  0.00    +0.000 A 
ATOM     18  C   UNL     1       7.904   6.656  18.541  0.00  0.00    +0.000 A 
ATOM     19  C   UNL     1       7.258   5.444  18.797  0.00  0.00    +0.000 A 
BRANCH  17  20
ATOM     20  O   UNL     1       8.099   8.674  17.325  0.00  0.00    +0.000 OA
ATOM     21  H   UNL     1       7.520   9.278  16.831  0.00  0.00    +0.000 HD
ENDBRANCH  17  20
ENDBRANCH  11  14
ENDBRANCH   9  12
ENDBRANCH   8   9
ENDBRANCH   7   8
ENDBRANCH   1   7
BRANCH   4  22
ATOM     22  C   UNL     1       1.685   6.998  18.390  0.00  0.00    +0.000 C 
BRANCH  22  23
ATOM     23  C   UNL     1       2.457   8.237  17.925  0.00  0.00    +0.000 C 
BRANCH  23  24
ATOM     24  C   UNL     1       1.967   9.490  18.646  0.00  0.00    +0.000 C 
BRANCH  24  25
ATOM     25  N   UNL     1       0.932  10.138  17.840  0.00  0.00    +0.000 N 
ATOM     26  H   UNL     1       0.401   9.440  17.331  0.00  0.00    +0.000 HD
BRANCH  25  27
ATOM     27  C   UNL     1       0.069  11.040  18.508  0.00  0.00    +0.000 A 
ATOM     28  C   UNL     1       0.583  12.112  19.245  0.00  0.00    +0.000 A 
ATOM     29  C   UNL     1      -0.283  13.022  19.814  0.00  0.00    +0.000 A 
ATOM     30  N   UNL     1      -1.618  12.966  19.679  0.00  0.00    +0.000 NA
ATOM     31  C   UNL     1      -2.132  11.975  18.938  0.00  0.00    +0.000 A 
ATOM     32  C   UNL     1      -3.508  11.955  18.776  0.00  0.00    +0.000 A 
ATOM     33  C   UNL     1      -4.136  10.966  18.024  0.00  0.00    +0.000 A 
ATOM     34 CL   UNL     1      -5.845  10.987  17.837  0.00  0.00    +0.000 Cl
ATOM     35  C   UNL     1      -3.391   9.964  17.422  0.00  0.00    +0.000 A 
ATOM     36  C   UNL     1      -2.003   9.970  17.567  0.00  0.00    +0.000 A 
ATOM     37  C   UNL     1      -1.342  10.974  18.321  0.00  0.00    +0.000 A 
ENDBRANCH  25  27
ENDBRANCH  24  25
ENDBRANCH  23  24
ENDBRANCH  22  23
ENDBRANCH   4  22
TORSDOF 11
ENDMDL
MODEL 6
REMARK VINA RESULT:      -7.1      6.410     11.324
REMARK  Name = 
REMARK  11 active torsions:
REMARK  status: ('A' for Active; 'I' for Inactive)
REMARK    1  A    between atoms: C_2  and  C_28
REMARK    2  A    between atoms: N_3  and  C_4
REMARK    3  A    between atoms: C_4  and  C_5
REMARK    4  A    between atoms: C_5  and  C_6
REMARK    5  A    between atoms: C_6  and  N_7
REMARK    6  A    between atoms: N_10  and  C_11
REMARK    7  A    between atoms: C_11  and  C_12
REMARK    8  A    between atoms: C_12  and  C_13
REMARK    9  A    between atoms: C_13  and  N_14
REMARK   10  A    between atoms: N_14  and  C_15
REMARK   11  A    between atoms: C_31  and  O_32
REMARK                            x       y       z     vdW  Elec       q    Type
REMARK                         _______ _______ _______ _____ _____    ______ ____
ROOT
ATOM      1  N   UNL     1       0.240   8.553  20.620  0.00  0.00    +0.000 NA
ATOM      2  C   UNL     1      -0.576   8.470  21.848  0.00  0.00    +0.000 C 
ATOM      3  C   UNL     1       0.016   9.249  23.041  0.00  0.00    +0.000 C 
ATOM      4  N   UNL     1       0.219  10.687  22.773  0.00  0.00    +0.000 NA
ATOM      5  C   UNL     1       0.990  10.842  21.520  0.00  0.00    +0.000 C 
ATOM      6  C   UNL     1       0.481   9.991  20.325  0.00  0.00    +0.000 C 
ENDROOT
BRANCH   1   7
ATOM      7  C   UNL     1       1.519   7.826  20.724  0.00  0.00    +0.000 C 
BRANCH   7   8
ATOM      8  C   UNL     1       1.483   6.348  20.312  0.00  0.00    +0.000 C 
BRANCH   8   9
ATOM      9  C   UNL     1       2.684   5.525  20.774  0.00  0.00    +0.000 C 
BRANCH   9  12
ATOM     10  O   UNL     1       3.846   3.341  19.457  0.00  0.00    +0.000 OA
ATOM     11  C   UNL     1       4.209   4.471  19.148  0.00  0.00    +0.000 C 
ATOM     12  N   UNL     1       3.760   5.608  19.791  0.00  0.00    +0.000 N 
ATOM     13  H   UNL     1       3.935   6.511  19.369  0.00  0.00    +0.000 HD
BRANCH  11  14
ATOM     14  C   UNL     1       5.115   4.659  17.982  0.00  0.00    +0.000 A 
ATOM     15  C   UNL     1       6.155   5.594  18.112  0.00  0.00    +0.000 A 
ATOM     16  C   UNL     1       7.031   5.839  17.052  0.00  0.00    +0.000 A 
ATOM     17  C   UNL     1       6.861   5.148  15.860  0.00  0.00    +0.000 A 
ATOM     18  C   UNL     1       5.834   4.221  15.713  0.00  0.00    +0.000 A 
ATOM     19  C   UNL     1       4.957   3.971  16.773  0.00  0.00    +0.000 A 
BRANCH  17  20
ATOM     20  O   UNL     1       7.686   5.366  14.795  0.00  0.00    +0.000 OA
ATOM     21  H   UNL     1       7.231   5.085  13.983  0.00  0.00    +0.000 HD
ENDBRANCH  17  20
ENDBRANCH  11  14
ENDBRANCH   9  12
ENDBRANCH   8   9
ENDBRANCH   7   8
ENDBRANCH   1   7
BRANCH   4  22
ATOM     22  C   UNL     1      -1.040  11.450  22.721  0.00  0.00    +0.000 C 
BRANCH  22  23
ATOM     23  C   UNL     1      -0.824  12.941  22.443  0.00  0.00    +0.000 C 
BRANCH  23  24
ATOM     24  C   UNL     1      -1.672  13.801  23.378  0.00  0.00    +0.000 C 
BRANCH  24  25
ATOM     25  N   UNL     1      -2.816  14.333  22.637  0.00  0.00    +0.000 N 
ATOM     26  H   UNL     1      -2.567  14.471  21.664  0.00  0.00    +0.000 HD
BRANCH  25  27
ATOM     27  C   UNL     1      -4.038  13.625  22.749  0.00  0.00    +0.000 A 
ATOM     28  C   UNL     1      -4.774  13.647  23.938  0.00  0.00    +0.000 A 
ATOM     29  C   UNL     1      -6.000  13.018  23.989  0.00  0.00    +0.000 A 
ATOM     30  N   UNL     1      -6.565  12.398  22.940  0.00  0.00    +0.000 NA
ATOM     31  C   UNL     1      -5.900  12.403  21.777  0.00  0.00    +0.000 A 
ATOM     32  C   UNL     1      -6.514  11.793  20.695  0.00  0.00    +0.000 A 
ATOM     33  C   UNL     1      -5.904  11.746  19.445  0.00  0.00    +0.000 A 
ATOM     34 CL   UNL     1      -6.707  10.992  18.126  0.00  0.00    +0.000 Cl
ATOM     35  C   UNL     1      -4.651  12.309  19.255  0.00  0.00    +0.000 A 
ATOM     36  C   UNL     1      -4.018  12.935  20.331  0.00  0.00    +0.000 A 
ATOM     37  C   UNL     1      -4.627  13.001  21.611  0.00  0.00    +0.000 A 
ENDBRANCH  25  27
ENDBRANCH  24  25
ENDBRANCH  23  24
ENDBRANCH  22  23
ENDBRANCH   4  22
TORSDOF 11
ENDMDL
MODEL 7
REMARK VINA RESULT:      -7.1      5.293     10.466
REMARK  Name = 
REMARK  11 active torsions:
REMARK  status: ('A' for Active; 'I' for Inactive)
REMARK    1  A    between atoms: C_2  and  C_28
REMARK    2  A    between atoms: N_3  and  C_4
REMARK    3  A    between atoms: C_4  and  C_5
REMARK    4  A    between atoms: C_5  and  C_6
REMARK    5  A    between atoms: C_6  and  N_7
REMARK    6  A    between atoms: N_10  and  C_11
REMARK    7  A    between atoms: C_11  and  C_12
REMARK    8  A    between atoms: C_12  and  C_13
REMARK    9  A    between atoms: C_13  and  N_14
REMARK   10  A    between atoms: N_14  and  C_15
REMARK   11  A    between atoms: C_31  and  O_32
REMARK                            x       y       z     vdW  Elec       q    Type
REMARK                         _______ _______ _______ _____ _____    ______ ____
ROOT
ATOM      1  N   UNL     1       0.244  13.276  20.023  0.00  0.00    +0.000 NA
ATOM      2  C   UNL     1      -1.002  12.587  20.413  0.00  0.00    +0.000 C 
ATOM      3  C   UNL     1      -1.264  11.284  19.628  0.00  0.00    +0.000 C 
ATOM      4  N   UNL     1      -0.181  10.287  19.750  0.00  0.00    +0.000 NA
ATOM      5  C   UNL     1       1.109  10.931  19.420  0.00  0.00    +0.000 C 
ATOM      6  C   UNL     1       1.360  12.296  20.116  0.00  0.00    +0.000 C 
ENDROOT
BRANCH   1   7
ATOM      7  C   UNL     1       0.183  13.861  18.670  0.00  0.00    +0.000 C 
BRANCH   7   8
ATOM      8  C   UNL     1      -0.105  15.368  18.606  0.00  0.00    +0.000 C 
BRANCH   8   9
ATOM      9  C   UNL     1       0.844  16.237  19.428  0.00  0.00    +0.000 C 
BRANCH   9  12
ATOM     10  O   UNL     1       2.608  17.348  17.555  0.00  0.00    +0.000 OA
ATOM     11  C   UNL     1       3.030  16.483  18.314  0.00  0.00    +0.000 C 
ATOM     12  N   UNL     1       2.225  15.815  19.217  0.00  0.00    +0.000 N 
ATOM     13  H   UNL     1       2.659  15.264  19.946  0.00  0.00    +0.000 HD
BRANCH  11  14
ATOM     14  C   UNL     1       4.486  16.173  18.338  0.00  0.00    +0.000 A 
ATOM     15  C   UNL     1       4.900  14.956  17.774  0.00  0.00    +0.000 A 
ATOM     16  C   UNL     1       6.247  14.588  17.780  0.00  0.00    +0.000 A 
ATOM     17  C   UNL     1       7.180  15.441  18.355  0.00  0.00    +0.000 A 
ATOM     18  C   UNL     1       6.786  16.650  18.921  0.00  0.00    +0.000 A 
ATOM     19  C   UNL     1       5.438  17.022  18.915  0.00  0.00    +0.000 A 
BRANCH  17  20
ATOM     20  O   UNL     1       8.504  15.115  18.393  0.00  0.00    +0.000 OA
ATOM     21  H   UNL     1       8.725  14.806  19.288  0.00  0.00    +0.000 HD
ENDBRANCH  17  20
ENDBRANCH  11  14
ENDBRANCH   9  12
ENDBRANCH   8   9
ENDBRANCH   7   8
ENDBRANCH   1   7
BRANCH   4  22
ATOM     22  C   UNL     1      -0.132   9.643  21.074  0.00  0.00    +0.000 C 
BRANCH  22  23
ATOM     23  C   UNL     1       1.196   8.928  21.341  0.00  0.00    +0.000 C 
BRANCH  23  24
ATOM     24  C   UNL     1       1.153   7.486  20.840  0.00  0.00    +0.000 C 
BRANCH  24  25
ATOM     25  N   UNL     1       2.365   7.207  20.070  0.00  0.00    +0.000 N 
ATOM     26  H   UNL     1       3.162   7.667  20.496  0.00  0.00    +0.000 HD
BRANCH  25  27
ATOM     27  C   UNL     1       2.654   5.847  19.799  0.00  0.00    +0.000 A 
ATOM     28  C   UNL     1       2.073   4.825  20.557  0.00  0.00    +0.000 A 
ATOM     29  C   UNL     1       2.308   3.510  20.215  0.00  0.00    +0.000 A 
ATOM     30  N   UNL     1       3.047   3.134  19.159  0.00  0.00    +0.000 NA
ATOM     31  C   UNL     1       3.575   4.095  18.390  0.00  0.00    +0.000 A 
ATOM     32  C   UNL     1       4.302   3.690  17.282  0.00  0.00    +0.000 A 
ATOM     33  C   UNL     1       4.890   4.613  16.422  0.00  0.00    +0.000 A 
ATOM     34 CL   UNL     1       5.771   4.068  15.051  0.00  0.00    +0.000 Cl
ATOM     35  C   UNL     1       4.766   5.973  16.663  0.00  0.00    +0.000 A 
ATOM     36  C   UNL     1       4.032   6.402  17.770  0.00  0.00    +0.000 A 
ATOM     37  C   UNL     1       3.417   5.478  18.654  0.00  0.00    +0.000 A 
ENDBRANCH  25  27
ENDBRANCH  24  25
ENDBRANCH  23  24
ENDBRANCH  22  23
ENDBRANCH   4  22
TORSDOF 11
ENDMDL
MODEL 8
REMARK VINA RESULT:      -7.1      4.611      7.096
REMARK  Name = 
REMARK  11 active torsions:
REMARK  status: ('A' for Active; 'I' for Inactive)
REMARK    1  A    between atoms: C_2  and  C_28
REMARK    2  A    between atoms: N_3  and  C_4
REMARK    3  A    between atoms: C_4  and  C_5
REMARK    4  A    between atoms: C_5  and  C_6
REMARK    5  A    between atoms: C_6  and  N_7
REMARK    6  A    between atoms: N_10  and  C_11
REMARK    7  A    between atoms: C_11  and  C_12
REMARK    8  A    between atoms: C_12  and  C_13
REMARK    9  A    between atoms: C_13  and  N_14
REMARK   10  A    between atoms: N_14  and  C_15
REMARK   11  A    between atoms: C_31  and  O_32
REMARK                            x       y       z     vdW  Elec       q    Type
REMARK                         _______ _______ _______ _____ _____    ______ ____
ROOT
ATOM      1  N   UNL     1       1.151   3.855  19.169  0.00  0.00    +0.000 NA
ATOM      2  C   UNL     1       1.405   4.717  20.340  0.00  0.00    +0.000 C 
ATOM      3  C   UNL     1       2.758   5.457  20.284  0.00  0.00    +0.000 C 
ATOM      4  N   UNL     1       2.920   6.315  19.092  0.00  0.00    +0.000 NA
ATOM      5  C   UNL     1       2.627   5.519  17.880  0.00  0.00    +0.000 C 
ATOM      6  C   UNL     1       1.321   4.681  17.943  0.00  0.00    +0.000 C 
ENDROOT
BRANCH   1   7
ATOM      7  C   UNL     1       2.029   2.671  19.119  0.00  0.00    +0.000 C 
BRANCH   7   8
ATOM      8  C   UNL     1       3.233   2.692  20.071  0.00  0.00    +0.000 C 
BRANCH   8   9
ATOM      9  C   UNL     1       4.550   2.234  19.448  0.00  0.00    +0.000 C 
BRANCH   9  12
ATOM     10  O   UNL     1       5.204   3.516  17.044  0.00  0.00    +0.000 OA
ATOM     11  C   UNL     1       5.660   3.966  18.089  0.00  0.00    +0.000 C 
ATOM     12  N   UNL     1       5.466   3.363  19.317  0.00  0.00    +0.000 N 
ATOM     13  H   UNL     1       5.690   3.879  20.157  0.00  0.00    +0.000 HD
BRANCH  11  14
ATOM     14  C   UNL     1       6.394   5.261  18.074  0.00  0.00    +0.000 A 
ATOM     15  C   UNL     1       5.960   6.243  17.169  0.00  0.00    +0.000 A 
ATOM     16  C   UNL     1       6.614   7.473  17.084  0.00  0.00    +0.000 A 
ATOM     17  C   UNL     1       7.708   7.718  17.904  0.00  0.00    +0.000 A 
ATOM     18  C   UNL     1       8.153   6.755  18.803  0.00  0.00    +0.000 A 
ATOM     19  C   UNL     1       7.499   5.522  18.894  0.00  0.00    +0.000 A 
BRANCH  17  20
ATOM     20  O   UNL     1       8.384   8.902  17.843  0.00  0.00    +0.000 OA
ATOM     21  H   UNL     1       9.301   8.754  18.130  0.00  0.00    +0.000 HD
ENDBRANCH  17  20
ENDBRANCH  11  14
ENDBRANCH   9  12
ENDBRANCH   8   9
ENDBRANCH   7   8
ENDBRANCH   1   7
BRANCH   4  22
ATOM     22  C   UNL     1       2.097   7.535  19.140  0.00  0.00    +0.000 C 
BRANCH  22  23
ATOM     23  C   UNL     1       2.004   8.246  17.786  0.00  0.00    +0.000 C 
BRANCH  23  24
ATOM     24  C   UNL     1       2.076   9.762  17.958  0.00  0.00    +0.000 C 
BRANCH  24  25
ATOM     25  N   UNL     1       0.725  10.291  18.145  0.00  0.00    +0.000 N 
ATOM     26  H   UNL     1       0.039   9.565  17.967  0.00  0.00    +0.000 HD
BRANCH  25  27
ATOM     27  C   UNL     1       0.457  10.947  19.371  0.00  0.00    +0.000 A 
ATOM     28  C   UNL     1      -0.073  10.247  20.459  0.00  0.00    +0.000 A 
ATOM     29  C   UNL     1      -0.244  10.894  21.665  0.00  0.00    +0.000 A 
ATOM     30  N   UNL     1       0.103  12.173  21.881  0.00  0.00    +0.000 NA
ATOM     31  C   UNL     1       0.657  12.852  20.867  0.00  0.00    +0.000 A 
ATOM     32  C   UNL     1       1.044  14.158  21.118  0.00  0.00    +0.000 A 
ATOM     33  C   UNL     1       1.629  14.945  20.130  0.00  0.00    +0.000 A 
ATOM     34 CL   UNL     1       2.109  16.556  20.488  0.00  0.00    +0.000 Cl
ATOM     35  C   UNL     1       1.830  14.435  18.856  0.00  0.00    +0.000 A 
ATOM     36  C   UNL     1       1.453  13.119  18.585  0.00  0.00    +0.000 A 
ATOM     37  C   UNL     1       0.864  12.297  19.581  0.00  0.00    +0.000 A 
ENDBRANCH  25  27
ENDBRANCH  24  25
ENDBRANCH  23  24
ENDBRANCH  22  23
ENDBRANCH   4  22
TORSDOF 11
ENDMDL
MODEL 9
REMARK VINA RESULT:      -7.1      3.498      6.734
REMARK  Name = 
REMARK  11 active torsions:
REMARK  status: ('A' for Active; 'I' for Inactive)
REMARK    1  A    between atoms: C_2  and  C_28
REMARK    2  A    between atoms: N_3  and  C_4
REMARK    3  A    between atoms: C_4  and  C_5
REMARK    4  A    between atoms: C_5  and  C_6
REMARK    5  A    between atoms: C_6  and  N_7
REMARK    6  A    between atoms: N_10  and  C_11
REMARK    7  A    between atoms: C_11  and  C_12
REMARK    8  A    between atoms: C_12  and  C_13
REMARK    9  A    between atoms: C_13  and  N_14
REMARK   10  A    between atoms: N_14  and  C_15
REMARK   11  A    between atoms: C_31  and  O_32
REMARK                            x       y       z     vdW  Elec       q    Type
REMARK                         _______ _______ _______ _____ _____    ______ ____
ROOT
ATOM      1  N   UNL     1       9.267  11.329  19.498  0.00  0.00    +0.000 NA
ATOM      2  C   UNL     1      10.453  11.656  20.315  0.00  0.00    +0.000 C 
ATOM      3  C   UNL     1      11.776  11.650  19.521  0.00  0.00    +0.000 C 
ATOM      4  N   UNL     1      11.789  12.585  18.377  0.00  0.00    +0.000 NA
ATOM      5  C   UNL     1      10.592  12.342  17.541  0.00  0.00    +0.000 C 
ATOM      6  C   UNL     1       9.254  12.241  18.322  0.00  0.00    +0.000 C 
ENDROOT
BRANCH   1   7
ATOM      7  C   UNL     1       9.236   9.922  19.060  0.00  0.00    +0.000 C 
BRANCH   7   8
ATOM      8  C   UNL     1       8.111   9.550  18.084  0.00  0.00    +0.000 C 
BRANCH   8   9
ATOM      9  C   UNL     1       8.114   8.093  17.626  0.00  0.00    +0.000 C 
BRANCH   9  12
ATOM     10  O   UNL     1       7.249   5.884  16.135  0.00  0.00    +0.000 OA
ATOM     11  C   UNL     1       6.454   6.423  16.897  0.00  0.00    +0.000 C 
ATOM     12  N   UNL     1       6.754   7.564  17.615  0.00  0.00    +0.000 N 
ATOM     13  H   UNL     1       6.141   7.844  18.369  0.00  0.00    +0.000 HD
BRANCH  11  14
ATOM     14  C   UNL     1       5.125   5.795  17.136  0.00  0.00    +0.000 A 
ATOM     15  C   UNL     1       4.955   4.461  16.735  0.00  0.00    +0.000 A 
ATOM     16  C   UNL     1       3.731   3.814  16.909  0.00  0.00    +0.000 A 
ATOM     17  C   UNL     1       2.673   4.507  17.481  0.00  0.00    +0.000 A 
ATOM     18  C   UNL     1       2.823   5.832  17.882  0.00  0.00    +0.000 A 
ATOM     19  C   UNL     1       4.049   6.482  17.712  0.00  0.00    +0.000 A 
BRANCH  17  20
ATOM     20  O   UNL     1       1.455   3.917  17.657  0.00  0.00    +0.000 OA
ATOM     21  H   UNL     1       0.927   4.463  18.265  0.00  0.00    +0.000 HD
ENDBRANCH  17  20
ENDBRANCH  11  14
ENDBRANCH   9  12
ENDBRANCH   8   9
ENDBRANCH   7   8
ENDBRANCH   1   7
BRANCH   4  22
ATOM     22  C   UNL     1      11.878  13.997  18.783  0.00  0.00    +0.000 C 
BRANCH  22  23
ATOM     23  C   UNL     1      11.296  14.957  17.739  0.00  0.00    +0.000 C 
BRANCH  23  24
ATOM     24  C   UNL     1      11.332  16.399  18.241  0.00  0.00    +0.000 C 
BRANCH  24  25
ATOM     25  N   UNL     1      10.141  17.103  17.769  0.00  0.00    +0.000 N 
ATOM     26  H   UNL     1       9.812  16.690  16.903  0.00  0.00    +0.000 HD
BRANCH  25  27
ATOM     27  C   UNL     1       9.076  17.253  18.691  0.00  0.00    +0.000 A 
ATOM     28  C   UNL     1       9.094  18.272  19.649  0.00  0.00    +0.000 A 
ATOM     29  C   UNL     1       8.005  18.444  20.477  0.00  0.00    +0.000 A 
ATOM     30  N   UNL     1       6.887  17.703  20.404  0.00  0.00    +0.000 NA
ATOM     31  C   UNL     1       6.827  16.750  19.464  0.00  0.00    +0.000 A 
ATOM     32  C   UNL     1       5.653  16.021  19.377  0.00  0.00    +0.000 A 
ATOM     33  C   UNL     1       5.494  15.011  18.433  0.00  0.00    +0.000 A 
ATOM     34 CL   UNL     1       4.014  14.140  18.350  0.00  0.00    +0.000 Cl
ATOM     35  C   UNL     1       6.522  14.703  17.555  0.00  0.00    +0.000 A 
ATOM     36  C   UNL     1       7.711  15.431  17.621  0.00  0.00    +0.000 A 
ATOM     37  C   UNL     1       7.890  16.471  18.570  0.00  0.00    +0.000 A 
ENDBRANCH  25  27
ENDBRANCH  24  25
ENDBRANCH  23  24
ENDBRANCH  22  23
ENDBRANCH   4  22
TORSDOF 11
ENDMDL
