MODEL 1
REMARK VINA RESULT:      -7.4      0.000      0.000
REMARK  Name = 
REMARK  8 active torsions:
REMARK  status: ('A' for Active; 'I' for Inactive)
REMARK    1  A    between atoms: C_1  and  C_2
REMARK    2  A    between atoms: C_2  and  S_3
REMARK    3  A    between atoms: S_3  and  N_6
REMARK    4  A    between atoms: N_9  and  C_10
REMARK    5  A    between atoms: C_10  and  C_11
REMARK    6  A    between atoms: C_10  and  C_12
REMARK    7  A    between atoms: C_12  and  C_13
REMARK    8  A    between atoms: C_13  and  C_14
REMARK                            x       y       z     vdW  Elec       q    Type
REMARK                         _______ _______ _______ _____ _____    ______ ____
ROOT
ATOM      1  N   UNL     1       5.628   5.888  17.969  0.00  0.00    +0.000 NA
ATOM      2  C   UNL     1       4.577   5.534  16.961  0.00  0.00    +0.000 C 
ATOM      3  C   UNL     1       4.303   4.014  16.951  0.00  0.00    +0.000 C 
ATOM      4  N   UNL     1       3.993   3.426  18.272  0.00  0.00    +0.000 NA
ATOM      5  C   UNL     1       5.062   3.803  19.226  0.00  0.00    +0.000 C 
ATOM      6  C   UNL     1       5.342   5.316  19.324  0.00  0.00    +0.000 C 
ENDROOT
BRANCH   1   7
ATOM      7  S   UNL     1       7.231   5.656  17.449  0.00  0.00    +0.000 S 
ATOM      8  O   UNL     1       7.319   6.006  16.063  0.00  0.00    +0.000 OA
ATOM      9  O   UNL     1       7.695   4.376  17.949  0.00  0.00    +0.000 OA
BRANCH   7  11
ATOM     10  C   UNL     1       7.808   8.257  17.701  0.00  0.00    +0.000 C 
ATOM     11  C   UNL     1       8.051   6.934  18.401  0.00  0.00    +0.000 C 
ENDBRANCH   7  11
ENDBRANCH   1   7
BRANCH   4  12
ATOM     12  C   UNL     1       2.617   3.637  18.768  0.00  0.00    +0.000 C 
ATOM     13  C   UNL     1       2.317   3.231  20.217  0.00  0.00    +0.000 C 
BRANCH  12  14
ATOM     14  C   UNL     1       2.184   5.109  18.640  0.00  0.00    +0.000 C 
BRANCH  14  15
ATOM     15  C   UNL     1       2.147   5.885  19.956  0.00  0.00    +0.000 C 
BRANCH  15  16
ATOM     16  C   UNL     1       1.929   7.342  19.625  0.00  0.00    +0.000 A 
ATOM     17  C   UNL     1       1.317   8.192  20.555  0.00  0.00    +0.000 A 
ATOM     18  C   UNL     1       0.964   9.490  20.193  0.00  0.00    +0.000 A 
ATOM     19  C   UNL     1       1.225   9.950  18.903  0.00  0.00    +0.000 A 
ATOM     20  C   UNL     1       1.853   9.117  17.978  0.00  0.00    +0.000 A 
ATOM     21  C   UNL     1       2.204   7.818  18.336  0.00  0.00    +0.000 A 
ENDBRANCH  15  16
ENDBRANCH  14  15
ENDBRANCH  12  14
ENDBRANCH   4  12
TORSDOF 6
ENDMDL
MODEL 2
REMARK VINA RESULT:      -7.4      3.852      6.940
REMARK  Name = 
REMARK  8 active torsions:
REMARK  status: ('A' for Active; 'I' for Inactive)
REMARK    1  A    between atoms: C_1  and  C_2
REMARK    2  A    between atoms: C_2  and  S_3
REMARK    3  A    between atoms: S_3  and  N_6
REMARK    4  A    between atoms: N_9  and  C_10
REMARK    5  A    between atoms: C_10  and  C_11
REMARK    6  A    between atoms: C_10  and  C_12
REMARK    7  A    between atoms: C_12  and  C_13
REMARK    8  A    between atoms: C_13  and  C_14
REMARK                            x       y       z     vdW  Elec       q    Type
REMARK                         _______ _______ _______ _____ _____    ______ ____
ROOT
ATOM      1  N   UNL     1       1.988   4.146  18.363  0.00  0.00    +0.000 NA
ATOM      2  C   UNL     1       2.617   5.145  19.286  0.00  0.00    +0.000 C 
ATOM      3  C   UNL     1       4.096   4.797  19.561  0.00  0.00    +0.000 C 
ATOM      4  N   UNL     1       4.925   4.593  18.353  0.00  0.00    +0.000 NA
ATOM      5  C   UNL     1       4.260   3.597  17.480  0.00  0.00    +0.000 C 
ATOM      6  C   UNL     1       2.796   3.920  17.122  0.00  0.00    +0.000 C 
ENDROOT
BRANCH   1   7
ATOM      7  S   UNL     1       1.458   2.712  19.108  0.00  0.00    +0.000 S 
ATOM      8  O   UNL     1       2.584   1.844  19.286  0.00  0.00    +0.000 OA
ATOM      9  O   UNL     1       0.245   2.271  18.447  0.00  0.00    +0.000 OA
BRANCH   7  11
ATOM     10  C   UNL     1       1.736   2.557  21.766  0.00  0.00    +0.000 C 
ATOM     11  C   UNL     1       0.991   3.356  20.714  0.00  0.00    +0.000 C 
ENDBRANCH   7  11
ENDBRANCH   1   7
BRANCH   4  12
ATOM     12  C   UNL     1       5.376   5.819  17.662  0.00  0.00    +0.000 C 
ATOM     13  C   UNL     1       6.679   6.467  18.148  0.00  0.00    +0.000 C 
BRANCH  12  14
ATOM     14  C   UNL     1       5.554   5.590  16.150  0.00  0.00    +0.000 C 
BRANCH  14  15
ATOM     15  C   UNL     1       6.820   4.829  15.760  0.00  0.00    +0.000 C 
BRANCH  15  16
ATOM     16  C   UNL     1       6.779   4.600  14.268  0.00  0.00    +0.000 A 
ATOM     17  C   UNL     1       5.962   3.597  13.731  0.00  0.00    +0.000 A 
ATOM     18  C   UNL     1       6.046   3.273  12.379  0.00  0.00    +0.000 A 
ATOM     19  C   UNL     1       6.942   3.951  11.553  0.00  0.00    +0.000 A 
ATOM     20  C   UNL     1       7.744   4.964  12.076  0.00  0.00    +0.000 A 
ATOM     21  C   UNL     1       7.664   5.288  13.428  0.00  0.00    +0.000 A 
ENDBRANCH  15  16
ENDBRANCH  14  15
ENDBRANCH  12  14
ENDBRANCH   4  12
TORSDOF 6
ENDMDL
MODEL 3
REMARK VINA RESULT:      -7.4      3.795      6.899
REMARK  Name = 
REMARK  8 active torsions:
REMARK  status: ('A' for Active; 'I' for Inactive)
REMARK    1  A    between atoms: C_1  and  C_2
REMARK    2  A    between atoms: C_2  and  S_3
REMARK    3  A    between atoms: S_3  and  N_6
REMARK    4  A    between atoms: N_9  and  C_10
REMARK    5  A    between atoms: C_10  and  C_11
REMARK    6  A    between atoms: C_10  and  C_12
REMARK    7  A    between atoms: C_12  and  C_13
REMARK    8  A    between atoms: C_13  and  C_14
REMARK                            x       y       z     vdW  Elec       q    Type
REMARK                         _______ _______ _______ _____ _____    ______ ____
ROOT
ATOM      1  N   UNL     1       2.009   4.036  17.984  0.00  0.00    +0.000 NA
ATOM      2  C   UNL     1       2.270   5.333  18.689  0.00  0.00    +0.000 C 
ATOM      3  C   UNL     1       3.660   5.334  19.360  0.00  0.00    +0.000 C 
ATOM      4  N   UNL     1       4.786   4.978  18.469  0.00  0.00    +0.000 NA
ATOM      5  C   UNL     1       4.478   3.691  17.803  0.00  0.00    +0.000 C 
ATOM      6  C   UNL     1       3.125   3.647  17.064  0.00  0.00    +0.000 C 
ENDROOT
BRANCH   1   7
ATOM      7  S   UNL     1       1.470   2.770  18.984  0.00  0.00    +0.000 S 
ATOM      8  O   UNL     1       2.582   1.918  19.285  0.00  0.00    +0.000 OA
ATOM      9  O   UNL     1       0.231   2.251  18.439  0.00  0.00    +0.000 OA
BRANCH   7  11
ATOM     10  C   UNL     1       1.599   2.930  21.652  0.00  0.00    +0.000 C 
ATOM     11  C   UNL     1       1.062   3.699  20.461  0.00  0.00    +0.000 C 
ENDBRANCH   7  11
ENDBRANCH   1   7
BRANCH   4  12
ATOM     12  C   UNL     1       5.258   6.047  17.564  0.00  0.00    +0.000 C 
ATOM     13  C   UNL     1       6.577   6.745  17.921  0.00  0.00    +0.000 C 
BRANCH  12  14
ATOM     14  C   UNL     1       5.423   5.540  16.119  0.00  0.00    +0.000 C 
BRANCH  14  15
ATOM     15  C   UNL     1       6.869   5.433  15.637  0.00  0.00    +0.000 C 
BRANCH  15  16
ATOM     16  C   UNL     1       6.853   4.782  14.275  0.00  0.00    +0.000 A 
ATOM     17  C   UNL     1       7.670   5.273  13.249  0.00  0.00    +0.000 A 
ATOM     18  C   UNL     1       7.536   4.784  11.951  0.00  0.00    +0.000 A 
ATOM     19  C   UNL     1       6.592   3.797  11.670  0.00  0.00    +0.000 A 
ATOM     20  C   UNL     1       5.789   3.289  12.690  0.00  0.00    +0.000 A 
ATOM     21  C   UNL     1       5.918   3.778  13.988  0.00  0.00    +0.000 A 
ENDBRANCH  15  16
ENDBRANCH  14  15
ENDBRANCH  12  14
ENDBRANCH   4  12
TORSDOF 6
ENDMDL
MODEL 4
REMARK VINA RESULT:      -7.2      3.545      6.870
REMARK  Name = 
REMARK  8 active torsions:
REMARK  status: ('A' for Active; 'I' for Inactive)
REMARK    1  A    between atoms: C_1  and  C_2
REMARK    2  A    between atoms: C_2  and  S_3
REMARK    3  A    between atoms: S_3  and  N_6
REMARK    4  A    between atoms: N_9  and  C_10
REMARK    5  A    between atoms: C_10  and  C_11
REMARK    6  A    between atoms: C_10  and  C_12
REMARK    7  A    between atoms: C_12  and  C_13
REMARK    8  A    between atoms: C_13  and  C_14
REMARK                            x       y       z     vdW  Elec       q    Type
REMARK                         _______ _______ _______ _____ _____    ______ ____
ROOT
ATOM      1  N   UNL     1       3.081   4.166  19.090  0.00  0.00    +0.000 NA
ATOM      2  C   UNL     1       4.071   5.103  19.714  0.00  0.00    +0.000 C 
ATOM      3  C   UNL     1       5.506   4.800  19.232  0.00  0.00    +0.000 C 
ATOM      4  N   UNL     1       5.675   4.749  17.763  0.00  0.00    +0.000 NA
ATOM      5  C   UNL     1       4.677   3.809  17.200  0.00  0.00    +0.000 C 
ATOM      6  C   UNL     1       3.215   4.096  17.600  0.00  0.00    +0.000 C 
ENDROOT
BRANCH   1   7
ATOM      7  S   UNL     1       2.957   2.646  19.841  0.00  0.00    +0.000 S 
ATOM      8  O   UNL     1       4.164   2.395  20.572  0.00  0.00    +0.000 OA
ATOM      9  O   UNL     1       2.432   1.698  18.878  0.00  0.00    +0.000 OA
BRANCH   7  11
ATOM     10  C   UNL     1       0.762   4.062  20.422  0.00  0.00    +0.000 C 
ATOM     11  C   UNL     1       1.653   2.991  21.021  0.00  0.00    +0.000 C 
ENDBRANCH   7  11
ENDBRANCH   1   7
BRANCH   4  12
ATOM     12  C   UNL     1       5.754   6.055  17.074  0.00  0.00    +0.000 C 
ATOM     13  C   UNL     1       6.957   6.951  17.393  0.00  0.00    +0.000 C 
BRANCH  12  14
ATOM     14  C   UNL     1       5.736   5.894  15.543  0.00  0.00    +0.000 C 
BRANCH  14  15
ATOM     15  C   UNL     1       6.977   5.226  14.953  0.00  0.00    +0.000 C 
BRANCH  15  16
ATOM     16  C   UNL     1       6.533   4.379  13.785  0.00  0.00    +0.000 A 
ATOM     17  C   UNL     1       7.399   4.154  12.707  0.00  0.00    +0.000 A 
ATOM     18  C   UNL     1       6.937   3.516  11.558  0.00  0.00    +0.000 A 
ATOM     19  C   UNL     1       5.611   3.094  11.478  0.00  0.00    +0.000 A 
ATOM     20  C   UNL     1       4.748   3.296  12.554  0.00  0.00    +0.000 A 
ATOM     21  C   UNL     1       5.205   3.937  13.704  0.00  0.00    +0.000 A 
ENDBRANCH  15  16
ENDBRANCH  14  15
ENDBRANCH  12  14
ENDBRANCH   4  12
TORSDOF 6
ENDMDL
MODEL 5
REMARK VINA RESULT:      -7.1      3.695      6.870
REMARK  Name = 
REMARK  8 active torsions:
REMARK  status: ('A' for Active; 'I' for Inactive)
REMARK    1  A    between atoms: C_1  and  C_2
REMARK    2  A    between atoms: C_2  and  S_3
REMARK    3  A    between atoms: S_3  and  N_6
REMARK    4  A    between atoms: N_9  and  C_10
REMARK    5  A    between atoms: C_10  and  C_11
REMARK    6  A    between atoms: C_10  and  C_12
REMARK    7  A    between atoms: C_12  and  C_13
REMARK    8  A    between atoms: C_13  and  C_14
REMARK                            x       y       z     vdW  Elec       q    Type
REMARK                         _______ _______ _______ _____ _____    ______ ____
ROOT
ATOM      1  N   UNL     1       2.769   4.595  18.714  0.00  0.00    +0.000 NA
ATOM      2  C   UNL     1       3.794   4.999  19.731  0.00  0.00    +0.000 C 
ATOM      3  C   UNL     1       5.085   4.165  19.585  0.00  0.00    +0.000 C 
ATOM      4  N   UNL     1       5.665   4.143  18.224  0.00  0.00    +0.000 NA
ATOM      5  C   UNL     1       4.613   3.735  17.263  0.00  0.00    +0.000 C 
ATOM      6  C   UNL     1       3.319   4.571  17.321  0.00  0.00    +0.000 C 
ENDROOT
BRANCH   1   7
ATOM      7  S   UNL     1       1.861   3.215  19.119  0.00  0.00    +0.000 S 
ATOM      8  O   UNL     1       2.761   2.173  19.516  0.00  0.00    +0.000 OA
ATOM      9  O   UNL     1       0.854   3.011  18.095  0.00  0.00    +0.000 OA
BRANCH   7  11
ATOM     10  C   UNL     1       1.280   2.827  21.702  0.00  0.00    +0.000 C 
ATOM     11  C   UNL     1       1.023   3.818  20.584  0.00  0.00    +0.000 C 
ENDBRANCH   7  11
ENDBRANCH   1   7
BRANCH   4  12
ATOM     12  C   UNL     1       6.434   5.342  17.829  0.00  0.00    +0.000 C 
ATOM     13  C   UNL     1       7.583   5.780  18.746  0.00  0.00    +0.000 C 
BRANCH  12  14
ATOM     14  C   UNL     1       7.045   5.190  16.424  0.00  0.00    +0.000 C 
BRANCH  14  15
ATOM     15  C   UNL     1       6.192   5.754  15.288  0.00  0.00    +0.000 C 
BRANCH  15  16
ATOM     16  C   UNL     1       6.379   4.862  14.085  0.00  0.00    +0.000 A 
ATOM     17  C   UNL     1       7.492   5.027  13.250  0.00  0.00    +0.000 A 
ATOM     18  C   UNL     1       7.581   4.321  12.053  0.00  0.00    +0.000 A 
ATOM     19  C   UNL     1       6.564   3.441  11.683  0.00  0.00    +0.000 A 
ATOM     20  C   UNL     1       5.464   3.256  12.518  0.00  0.00    +0.000 A 
ATOM     21  C   UNL     1       5.370   3.963  13.715  0.00  0.00    +0.000 A 
ENDBRANCH  15  16
ENDBRANCH  14  15
ENDBRANCH  12  14
ENDBRANCH   4  12
TORSDOF 6
ENDMDL
MODEL 6
REMARK VINA RESULT:      -7.0      1.675      2.866
REMARK  Name = 
REMARK  8 active torsions:
REMARK  status: ('A' for Active; 'I' for Inactive)
REMARK    1  A    between atoms: C_1  and  C_2
REMARK    2  A    between atoms: C_2  and  S_3
REMARK    3  A    between atoms: S_3  and  N_6
REMARK    4  A    between atoms: N_9  and  C_10
REMARK    5  A    between atoms: C_10  and  C_11
REMARK    6  A    between atoms: C_10  and  C_12
REMARK    7  A    between atoms: C_12  and  C_13
REMARK    8  A    between atoms: C_13  and  C_14
REMARK                            x       y       z     vdW  Elec       q    Type
REMARK                         _______ _______ _______ _____ _____    ______ ____
ROOT
ATOM      1  N   UNL     1       5.433   4.966  16.411  0.00  0.00    +0.000 NA
ATOM      2  C   UNL     1       5.108   3.920  17.434  0.00  0.00    +0.000 C 
ATOM      3  C   UNL     1       5.216   4.487  18.866  0.00  0.00    +0.000 C 
ATOM      4  N   UNL     1       4.444   5.725  19.109  0.00  0.00    +0.000 NA
ATOM      5  C   UNL     1       4.806   6.723  18.075  0.00  0.00    +0.000 C 
ATOM      6  C   UNL     1       4.662   6.234  16.619  0.00  0.00    +0.000 C 
ENDROOT
BRANCH   1   7
ATOM      7  S   UNL     1       7.093   5.209  16.134  0.00  0.00    +0.000 S 
ATOM      8  O   UNL     1       7.829   4.212  16.853  0.00  0.00    +0.000 OA
ATOM      9  O   UNL     1       7.379   6.624  16.271  0.00  0.00    +0.000 OA
BRANCH   7  11
ATOM     10  C   UNL     1       5.933   4.013  14.039  0.00  0.00    +0.000 C 
ATOM     11  C   UNL     1       7.174   4.811  14.389  0.00  0.00    +0.000 C 
ENDBRANCH   7  11
ENDBRANCH   1   7
BRANCH   4  12
ATOM     12  C   UNL     1       2.992   5.553  19.322  0.00  0.00    +0.000 C 
ATOM     13  C   UNL     1       2.548   4.728  20.537  0.00  0.00    +0.000 C 
BRANCH  12  14
ATOM     14  C   UNL     1       2.267   6.906  19.439  0.00  0.00    +0.000 C 
BRANCH  14  15
ATOM     15  C   UNL     1       1.794   7.262  20.847  0.00  0.00    +0.000 C 
BRANCH  15  16
ATOM     16  C   UNL     1       0.983   8.532  20.754  0.00  0.00    +0.000 A 
ATOM     17  C   UNL     1       1.118   9.374  19.642  0.00  0.00    +0.000 A 
ATOM     18  C   UNL     1       0.500  10.623  19.629  0.00  0.00    +0.000 A 
ATOM     19  C   UNL     1      -0.260  11.037  20.722  0.00  0.00    +0.000 A 
ATOM     20  C   UNL     1      -0.416  10.197  21.823  0.00  0.00    +0.000 A 
ATOM     21  C   UNL     1       0.203   8.949  21.841  0.00  0.00    +0.000 A 
ENDBRANCH  15  16
ENDBRANCH  14  15
ENDBRANCH  12  14
ENDBRANCH   4  12
TORSDOF 6
ENDMDL
MODEL 7
REMARK VINA RESULT:      -7.0      3.574      6.900
REMARK  Name = 
REMARK  8 active torsions:
REMARK  status: ('A' for Active; 'I' for Inactive)
REMARK    1  A    between atoms: C_1  and  C_2
REMARK    2  A    between atoms: C_2  and  S_3
REMARK    3  A    between atoms: S_3  and  N_6
REMARK    4  A    between atoms: N_9  and  C_10
REMARK    5  A    between atoms: C_10  and  C_11
REMARK    6  A    between atoms: C_10  and  C_12
REMARK    7  A    between atoms: C_12  and  C_13
REMARK    8  A    between atoms: C_13  and  C_14
REMARK                            x       y       z     vdW  Elec       q    Type
REMARK                         _______ _______ _______ _____ _____    ______ ____
ROOT
ATOM      1  N   UNL     1       3.083   4.474  19.063  0.00  0.00    +0.000 NA
ATOM      2  C   UNL     1       3.975   5.506  19.686  0.00  0.00    +0.000 C 
ATOM      3  C   UNL     1       5.462   5.202  19.404  0.00  0.00    +0.000 C 
ATOM      4  N   UNL     1       5.800   4.999  17.979  0.00  0.00    +0.000 NA
ATOM      5  C   UNL     1       4.894   3.970  17.415  0.00  0.00    +0.000 C 
ATOM      6  C   UNL     1       3.390   4.248  17.614  0.00  0.00    +0.000 C 
ENDROOT
BRANCH   1   7
ATOM      7  S   UNL     1       2.907   3.040  19.960  0.00  0.00    +0.000 S 
ATOM      8  O   UNL     1       2.018   3.290  21.055  0.00  0.00    +0.000 OA
ATOM      9  O   UNL     1       4.219   2.455  20.154  0.00  0.00    +0.000 OA
BRANCH   7  11
ATOM     10  C   UNL     1       0.561   2.333  18.882  0.00  0.00    +0.000 C 
ATOM     11  C   UNL     1       2.041   2.031  18.758  0.00  0.00    +0.000 C 
ENDBRANCH   7  11
ENDBRANCH   1   7
BRANCH   4  12
ATOM     12  C   UNL     1       5.930   6.224  17.162  0.00  0.00    +0.000 C 
ATOM     13  C   UNL     1       7.211   7.052  17.327  0.00  0.00    +0.000 C 
BRANCH  12  14
ATOM     14  C   UNL     1       5.808   5.923  15.658  0.00  0.00    +0.000 C 
BRANCH  14  15
ATOM     15  C   UNL     1       7.051   5.299  15.025  0.00  0.00    +0.000 C 
BRANCH  15  16
ATOM     16  C   UNL     1       6.598   4.449  13.862  0.00  0.00    +0.000 A 
ATOM     17  C   UNL     1       7.438   4.260  12.757  0.00  0.00    +0.000 A 
ATOM     18  C   UNL     1       6.962   3.618  11.616  0.00  0.00    +0.000 A 
ATOM     19  C   UNL     1       5.648   3.154  11.572  0.00  0.00    +0.000 A 
ATOM     20  C   UNL     1       4.812   3.320  12.675  0.00  0.00    +0.000 A 
ATOM     21  C   UNL     1       5.283   3.965  13.817  0.00  0.00    +0.000 A 
ENDBRANCH  15  16
ENDBRANCH  14  15
ENDBRANCH  12  14
ENDBRANCH   4  12
TORSDOF 6
ENDMDL
MODEL 8
REMARK VINA RESULT:      -7.0      3.780      6.802
REMARK  Name = 
REMARK  8 active torsions:
REMARK  status: ('A' for Active; 'I' for Inactive)
REMARK    1  A    between atoms: C_1  and  C_2
REMARK    2  A    between atoms: C_2  and  S_3
REMARK    3  A    between atoms: S_3  and  N_6
REMARK    4  A    between atoms: N_9  and  C_10
REMARK    5  A    between atoms: C_10  and  C_11
REMARK    6  A    between atoms: C_10  and  C_12
REMARK    7  A    between atoms: C_12  and  C_13
REMARK    8  A    between atoms: C_13  and  C_14
REMARK                            x       y       z     vdW  Elec       q    Type
REMARK                         _______ _______ _______ _____ _____    ______ ____
ROOT
ATOM      1  N   UNL     1       3.196   3.353  19.204  0.00  0.00    +0.000 NA
ATOM      2  C   UNL     1       4.051   3.067  18.006  0.00  0.00    +0.000 C 
ATOM      3  C   UNL     1       3.891   4.165  16.932  0.00  0.00    +0.000 C 
ATOM      4  N   UNL     1       4.097   5.548  17.414  0.00  0.00    +0.000 NA
ATOM      5  C   UNL     1       3.228   5.776  18.593  0.00  0.00    +0.000 C 
ATOM      6  C   UNL     1       3.386   4.744  19.728  0.00  0.00    +0.000 C 
ENDROOT
BRANCH   1   7
ATOM      7  S   UNL     1       1.567   2.892  19.051  0.00  0.00    +0.000 S 
ATOM      8  O   UNL     1       1.486   1.463  19.115  0.00  0.00    +0.000 OA
ATOM      9  O   UNL     1       0.976   3.647  17.963  0.00  0.00    +0.000 OA
BRANCH   7  11
ATOM     10  C   UNL     1       1.404   2.674  21.714  0.00  0.00    +0.000 C 
ATOM     11  C   UNL     1       0.915   3.557  20.582  0.00  0.00    +0.000 C 
ENDBRANCH   7  11
ENDBRANCH   1   7
BRANCH   4  12
ATOM     12  C   UNL     1       5.502   5.970  17.589  0.00  0.00    +0.000 C 
ATOM     13  C   UNL     1       6.441   5.014  18.335  0.00  0.00    +0.000 C 
BRANCH  12  14
ATOM     14  C   UNL     1       6.181   6.267  16.239  0.00  0.00    +0.000 C 
BRANCH  14  15
ATOM     15  C   UNL     1       7.246   5.254  15.820  0.00  0.00    +0.000 C 
BRANCH  15  16
ATOM     16  C   UNL     1       6.949   4.836  14.399  0.00  0.00    +0.000 A 
ATOM     17  C   UNL     1       5.917   3.927  14.132  0.00  0.00    +0.000 A 
ATOM     18  C   UNL     1       5.750   3.414  12.847  0.00  0.00    +0.000 A 
ATOM     19  C   UNL     1       6.607   3.809  11.821  0.00  0.00    +0.000 A 
ATOM     20  C   UNL     1       7.623   4.728  12.074  0.00  0.00    +0.000 A 
ATOM     21  C   UNL     1       7.795   5.241  13.358  0.00  0.00    +0.000 A 
ENDBRANCH  15  16
ENDBRANCH  14  15
ENDBRANCH  12  14
ENDBRANCH   4  12
TORSDOF 6
ENDMDL
MODEL 9
REMARK VINA RESULT:      -6.8      3.907      6.826
REMARK  Name = 
REMARK  8 active torsions:
REMARK  status: ('A' for Active; 'I' for Inactive)
REMARK    1  A    between atoms: C_1  and  C_2
REMARK    2  A    between atoms: C_2  and  S_3
REMARK    3  A    between atoms: S_3  and  N_6
REMARK    4  A    between atoms: N_9  and  C_10
REMARK    5  A    between atoms: C_10  and  C_11
REMARK    6  A    between atoms: C_10  and  C_12
REMARK    7  A    between atoms: C_12  and  C_13
REMARK    8  A    between atoms: C_13  and  C_14
REMARK                            x       y       z     vdW  Elec       q    Type
REMARK                         _______ _______ _______ _____ _____    ______ ____
ROOT
ATOM      1  N   UNL     1       2.061   3.973  18.075  0.00  0.00    +0.000 NA
ATOM      2  C   UNL     1       2.187   5.467  18.051  0.00  0.00    +0.000 C 
ATOM      3  C   UNL     1       3.300   5.948  19.007  0.00  0.00    +0.000 C 
ATOM      4  N   UNL     1       4.616   5.300  18.813  0.00  0.00    +0.000 NA
ATOM      5  C   UNL     1       4.433   3.830  18.848  0.00  0.00    +0.000 C 
ATOM      6  C   UNL     1       3.374   3.281  17.871  0.00  0.00    +0.000 C 
ENDROOT
BRANCH   1   7
ATOM      7  S   UNL     1       1.149   3.350  19.367  0.00  0.00    +0.000 S 
ATOM      8  O   UNL     1       0.157   2.459  18.841  0.00  0.00    +0.000 OA
ATOM      9  O   UNL     1       0.805   4.442  20.256  0.00  0.00    +0.000 OA
BRANCH   7  11
ATOM     10  C   UNL     1       2.322   2.654  21.670  0.00  0.00    +0.000 C 
ATOM     11  C   UNL     1       2.405   2.366  20.183  0.00  0.00    +0.000 C 
ENDBRANCH   7  11
ENDBRANCH   1   7
BRANCH   4  12
ATOM     12  C   UNL     1       5.422   5.797  17.677  0.00  0.00    +0.000 C 
ATOM     13  C   UNL     1       6.813   6.362  17.991  0.00  0.00    +0.000 C 
BRANCH  12  14
ATOM     14  C   UNL     1       5.635   4.709  16.609  0.00  0.00    +0.000 C 
BRANCH  14  15
ATOM     15  C   UNL     1       7.040   4.663  16.011  0.00  0.00    +0.000 C 
BRANCH  15  16
ATOM     16  C   UNL     1       6.899   4.587  14.510  0.00  0.00    +0.000 A 
ATOM     17  C   UNL     1       5.991   3.692  13.931  0.00  0.00    +0.000 A 
ATOM     18  C   UNL     1       5.978   3.501  12.550  0.00  0.00    +0.000 A 
ATOM     19  C   UNL     1       6.865   4.207  11.739  0.00  0.00    +0.000 A 
ATOM     20  C   UNL     1       7.757   5.116  12.306  0.00  0.00    +0.000 A 
ATOM     21  C   UNL     1       7.776   5.306  13.686  0.00  0.00    +0.000 A 
ENDBRANCH  15  16
ENDBRANCH  14  15
ENDBRANCH  12  14
ENDBRANCH   4  12
TORSDOF 6
ENDMDL
