MODEL 1
REMARK VINA RESULT:      -8.2      0.000      0.000
REMARK  Name = 
REMARK  6 active torsions:
REMARK  status: ('A' for Active; 'I' for Inactive)
REMARK    1  A    between atoms: C_2  and  C_3
REMARK    2  A    between atoms: C_2  and  C_13
REMARK    3  A    between atoms: C_4  and  C_5
REMARK    4  A    between atoms: C_6  and  C_7
REMARK    5  A    between atoms: C_16  and  C_17
REMARK    6  A    between atoms: N_19  and  C_20
REMARK                            x       y       z     vdW  Elec       q    Type
REMARK                         _______ _______ _______ _____ _____    ______ ____
ROOT
ATOM      1  C   UNL     1       0.345   9.621  21.581  0.00  0.00    +0.000 A 
ATOM      2  C   UNL     1       1.078   8.436  21.692  0.00  0.00    +0.000 A 
ATOM      3  C   UNL     1       1.775   7.943  20.588  0.00  0.00    +0.000 A 
ATOM      4  C   UNL     1       1.766   8.629  19.365  0.00  0.00    +0.000 A 
ATOM      5  C   UNL     1       1.043   9.818  19.246  0.00  0.00    +0.000 A 
ATOM      6  C   UNL     1       0.337  10.312  20.356  0.00  0.00    +0.000 A 
ENDROOT
BRANCH   4   7
ATOM      7  C   UNL     1       2.478   7.982  18.231  0.00  0.00    +0.000 C 
ATOM      8  O   UNL     1       2.326   8.499  17.129  0.00  0.00    +0.000 OA
ATOM      9  N   UNL     1       3.183   6.817  18.494  0.00  0.00    +0.000 N 
ATOM     10  H   UNL     1       3.059   6.384  19.400  0.00  0.00    +0.000 HD
BRANCH   9  11
ATOM     11  C   UNL     1       3.872   6.061  17.510  0.00  0.00    +0.000 A 
ATOM     12  C   UNL     1       3.740   4.673  17.390  0.00  0.00    +0.000 A 
ATOM     13  C   UNL     1       4.483   3.954  16.450  0.00  0.00    +0.000 A 
ATOM     14  C   UNL     1       5.363   4.622  15.610  0.00  0.00    +0.000 A 
ATOM     15 CL   UNL     1       6.297   3.734  14.471  0.00  0.00    +0.000 Cl
ATOM     16  C   UNL     1       5.488   6.008  15.691  0.00  0.00    +0.000 A 
ATOM     17  C   UNL     1       4.737   6.727  16.632  0.00  0.00    +0.000 A 
ENDBRANCH   9  11
ENDBRANCH   4   7
BRANCH   1  19
ATOM     18  O   UNL     1       0.005   9.977  23.890  0.00  0.00    +0.000 OA
ATOM     19  C   UNL     1      -0.383  10.199  22.747  0.00  0.00    +0.000 C 
BRANCH  19  20
ATOM     20  C   UNL     1      -1.573  11.049  22.471  0.00  0.00    +0.000 C 
ATOM     21  C   UNL     1      -2.163  11.742  23.459  0.00  0.00    +0.000 C 
BRANCH  21  22
ATOM     22  C   UNL     1      -3.358  12.527  23.233  0.00  0.00    +0.000 C 
ATOM     23  C   UNL     1      -4.241  12.835  24.198  0.00  0.00    +0.000 C 
BRANCH  23  24
ATOM     24  C   UNL     1      -5.484  13.591  23.961  0.00  0.00    +0.000 A 
ATOM     25  C   UNL     1      -6.746  12.994  24.020  0.00  0.00    +0.000 A 
ATOM     26  C   UNL     1      -7.869  13.779  23.817  0.00  0.00    +0.000 A 
ATOM     27  N   UNL     1      -7.824  15.104  23.576  0.00  0.00    +0.000 NA
ATOM     28  C   UNL     1      -6.599  15.669  23.541  0.00  0.00    +0.000 A 
ATOM     29  C   UNL     1      -5.417  14.967  23.730  0.00  0.00    +0.000 A 
ENDBRANCH  23  24
ENDBRANCH  21  22
ENDBRANCH  19  20
ENDBRANCH   1  19
TORSDOF 6
ENDMDL
MODEL 2
REMARK VINA RESULT:      -7.8      4.510     12.617
REMARK  Name = 
REMARK  6 active torsions:
REMARK  status: ('A' for Active; 'I' for Inactive)
REMARK    1  A    between atoms: C_2  and  C_3
REMARK    2  A    between atoms: C_2  and  C_13
REMARK    3  A    between atoms: C_4  and  C_5
REMARK    4  A    between atoms: C_6  and  C_7
REMARK    5  A    between atoms: C_16  and  C_17
REMARK    6  A    between atoms: N_19  and  C_20
REMARK                            x       y       z     vdW  Elec       q    Type
REMARK                         _______ _______ _______ _____ _____    ______ ____
ROOT
ATOM      1  C   UNL     1       2.114   7.348  19.802  0.00  0.00    +0.000 A 
ATOM      2  C   UNL     1       1.462   7.394  21.038  0.00  0.00    +0.000 A 
ATOM      3  C   UNL     1       0.618   8.463  21.340  0.00  0.00    +0.000 A 
ATOM      4  C   UNL     1       0.397   9.492  20.413  0.00  0.00    +0.000 A 
ATOM      5  C   UNL     1       1.038   9.452  19.172  0.00  0.00    +0.000 A 
ATOM      6  C   UNL     1       1.892   8.378  18.870  0.00  0.00    +0.000 A 
ENDROOT
BRANCH   4   7
ATOM      7  C   UNL     1      -0.460  10.621  20.859  0.00  0.00    +0.000 C 
ATOM      8  O   UNL     1      -0.929  11.330  19.974  0.00  0.00    +0.000 OA
ATOM      9  N   UNL     1      -0.594  10.827  22.225  0.00  0.00    +0.000 N 
ATOM     10  H   UNL     1       0.009  10.301  22.843  0.00  0.00    +0.000 HD
BRANCH   9  11
ATOM     11  C   UNL     1      -1.337  11.889  22.803  0.00  0.00    +0.000 A 
ATOM     12  C   UNL     1      -2.633  11.723  23.304  0.00  0.00    +0.000 A 
ATOM     13  C   UNL     1      -3.359  12.806  23.809  0.00  0.00    +0.000 A 
ATOM     14  C   UNL     1      -2.786  14.071  23.825  0.00  0.00    +0.000 A 
ATOM     15 CL   UNL     1      -3.690  15.408  24.421  0.00  0.00    +0.000 Cl
ATOM     16  C   UNL     1      -1.486  14.254  23.360  0.00  0.00    +0.000 A 
ATOM     17  C   UNL     1      -0.759  13.164  22.859  0.00  0.00    +0.000 A 
ENDBRANCH   9  11
ENDBRANCH   4   7
BRANCH   1  19
ATOM     18  O   UNL     1       3.038   5.201  20.132  0.00  0.00    +0.000 OA
ATOM     19  C   UNL     1       2.995   6.205  19.428  0.00  0.00    +0.000 C 
BRANCH  19  20
ATOM     20  C   UNL     1       3.799   6.327  18.181  0.00  0.00    +0.000 C 
ATOM     21  C   UNL     1       3.979   5.267  17.377  0.00  0.00    +0.000 C 
BRANCH  21  22
ATOM     22  C   UNL     1       4.807   5.339  16.191  0.00  0.00    +0.000 C 
ATOM     23  C   UNL     1       5.073   4.285  15.402  0.00  0.00    +0.000 C 
BRANCH  23  24
ATOM     24  C   UNL     1       5.956   4.344  14.224  0.00  0.00    +0.000 A 
ATOM     25  C   UNL     1       7.106   5.138  14.189  0.00  0.00    +0.000 A 
ATOM     26  C   UNL     1       7.902   5.116  13.056  0.00  0.00    +0.000 A 
ATOM     27  N   UNL     1       7.643   4.358  11.972  0.00  0.00    +0.000 NA
ATOM     28  C   UNL     1       6.539   3.583  12.029  0.00  0.00    +0.000 A 
ATOM     29  C   UNL     1       5.680   3.537  13.117  0.00  0.00    +0.000 A 
ENDBRANCH  23  24
ENDBRANCH  21  22
ENDBRANCH  19  20
ENDBRANCH   1  19
TORSDOF 6
ENDMDL
MODEL 3
REMARK VINA RESULT:      -7.8      0.515      1.044
REMARK  Name = 
REMARK  6 active torsions:
REMARK  status: ('A' for Active; 'I' for Inactive)
REMARK    1  A    between atoms: C_2  and  C_3
REMARK    2  A    between atoms: C_2  and  C_13
REMARK    3  A    between atoms: C_4  and  C_5
REMARK    4  A    between atoms: C_6  and  C_7
REMARK    5  A    between atoms: C_16  and  C_17
REMARK    6  A    between atoms: N_19  and  C_20
REMARK                            x       y       z     vdW  Elec       q    Type
REMARK                         _______ _______ _______ _____ _____    ______ ____
ROOT
ATOM      1  C   UNL     1       0.586   9.290  21.787  0.00  0.00    +0.000 A 
ATOM      2  C   UNL     1       0.689  10.031  20.606  0.00  0.00    +0.000 A 
ATOM      3  C   UNL     1       1.302   9.472  19.484  0.00  0.00    +0.000 A 
ATOM      4  C   UNL     1       1.806   8.163  19.515  0.00  0.00    +0.000 A 
ATOM      5  C   UNL     1       1.701   7.411  20.689  0.00  0.00    +0.000 A 
ATOM      6  C   UNL     1       1.089   7.977  21.819  0.00  0.00    +0.000 A 
ENDROOT
BRANCH   4   7
ATOM      7  C   UNL     1       2.505   7.688  18.293  0.00  0.00    +0.000 C 
ATOM      8  O   UNL     1       2.214   8.255  17.245  0.00  0.00    +0.000 OA
ATOM      9  N   UNL     1       3.362   6.604  18.422  0.00  0.00    +0.000 N 
ATOM     10  H   UNL     1       3.356   6.099  19.298  0.00  0.00    +0.000 HD
BRANCH   9  11
ATOM     11  C   UNL     1       4.063   6.008  17.342  0.00  0.00    +0.000 A 
ATOM     12  C   UNL     1       3.997   4.639  17.058  0.00  0.00    +0.000 A 
ATOM     13  C   UNL     1       4.752   4.076  16.025  0.00  0.00    +0.000 A 
ATOM     14  C   UNL     1       5.576   4.885  15.255  0.00  0.00    +0.000 A 
ATOM     15 CL   UNL     1       6.525   4.188  14.001  0.00  0.00    +0.000 Cl
ATOM     16  C   UNL     1       5.634   6.256  15.499  0.00  0.00    +0.000 A 
ATOM     17  C   UNL     1       4.871   6.818  16.534  0.00  0.00    +0.000 A 
ENDBRANCH   9  11
ENDBRANCH   4   7
BRANCH   1  19
ATOM     18  O   UNL     1       0.411   9.705  24.105  0.00  0.00    +0.000 OA
ATOM     19  C   UNL     1      -0.094   9.839  22.995  0.00  0.00    +0.000 C 
BRANCH  19  20
ATOM     20  C   UNL     1      -1.386  10.553  22.800  0.00  0.00    +0.000 C 
ATOM     21  C   UNL     1      -1.521  11.837  23.169  0.00  0.00    +0.000 C 
BRANCH  21  22
ATOM     22  C   UNL     1      -2.781  12.539  23.050  0.00  0.00    +0.000 C 
ATOM     23  C   UNL     1      -3.680  12.633  24.044  0.00  0.00    +0.000 C 
BRANCH  23  24
ATOM     24  C   UNL     1      -4.985  13.304  23.909  0.00  0.00    +0.000 A 
ATOM     25  C   UNL     1      -6.196  12.627  24.083  0.00  0.00    +0.000 A 
ATOM     26  C   UNL     1      -7.381  13.335  23.971  0.00  0.00    +0.000 A 
ATOM     27  N   UNL     1      -7.445  14.656  23.714  0.00  0.00    +0.000 NA
ATOM     28  C   UNL     1      -6.267  15.299  23.568  0.00  0.00    +0.000 A 
ATOM     29  C   UNL     1      -5.030  14.678  23.660  0.00  0.00    +0.000 A 
ENDBRANCH  23  24
ENDBRANCH  21  22
ENDBRANCH  19  20
ENDBRANCH   1  19
TORSDOF 6
ENDMDL
MODEL 4
REMARK VINA RESULT:      -7.7      1.255      1.686
REMARK  Name = 
REMARK  6 active torsions:
REMARK  status: ('A' for Active; 'I' for Inactive)
REMARK    1  A    between atoms: C_2  and  C_3
REMARK    2  A    between atoms: C_2  and  C_13
REMARK    3  A    between atoms: C_4  and  C_5
REMARK    4  A    between atoms: C_6  and  C_7
REMARK    5  A    between atoms: C_16  and  C_17
REMARK    6  A    between atoms: N_19  and  C_20
REMARK                            x       y       z     vdW  Elec       q    Type
REMARK                         _______ _______ _______ _____ _____    ______ ____
ROOT
ATOM      1  C   UNL     1       0.359   9.689  21.518  0.00  0.00    +0.000 A 
ATOM      2  C   UNL     1       1.069   8.492  21.647  0.00  0.00    +0.000 A 
ATOM      3  C   UNL     1       1.779   7.984  20.558  0.00  0.00    +0.000 A 
ATOM      4  C   UNL     1       1.807   8.665  19.333  0.00  0.00    +0.000 A 
ATOM      5  C   UNL     1       1.106   9.867  19.196  0.00  0.00    +0.000 A 
ATOM      6  C   UNL     1       0.387  10.375  20.291  0.00  0.00    +0.000 A 
ENDROOT
BRANCH   4   7
ATOM      7  C   UNL     1       2.530   8.003  18.216  0.00  0.00    +0.000 C 
ATOM      8  O   UNL     1       2.305   8.438  17.091  0.00  0.00    +0.000 OA
ATOM      9  N   UNL     1       3.329   6.912  18.523  0.00  0.00    +0.000 N 
ATOM     10  H   UNL     1       3.267   6.529  19.457  0.00  0.00    +0.000 HD
BRANCH   9  11
ATOM     11  C   UNL     1       4.042   6.149  17.563  0.00  0.00    +0.000 A 
ATOM     12  C   UNL     1       4.979   6.712  16.690  0.00  0.00    +0.000 A 
ATOM     13  C   UNL     1       5.616   5.940  15.714  0.00  0.00    +0.000 A 
ATOM     14  C   UNL     1       5.325   4.587  15.609  0.00  0.00    +0.000 A 
ATOM     15 CL   UNL     1       6.088   3.643  14.390  0.00  0.00    +0.000 Cl
ATOM     16  C   UNL     1       4.418   3.998  16.487  0.00  0.00    +0.000 A 
ATOM     17  C   UNL     1       3.785   4.775  17.469  0.00  0.00    +0.000 A 
ENDBRANCH   9  11
ENDBRANCH   4   7
BRANCH   1  19
ATOM     18  O   UNL     1      -0.069   9.998  23.819  0.00  0.00    +0.000 OA
ATOM     19  C   UNL     1      -0.382  10.282  22.668  0.00  0.00    +0.000 C 
BRANCH  19  20
ATOM     20  C   UNL     1      -1.494  11.226  22.365  0.00  0.00    +0.000 C 
ATOM     21  C   UNL     1      -2.239  11.745  23.354  0.00  0.00    +0.000 C 
BRANCH  21  22
ATOM     22  C   UNL     1      -3.364  12.615  23.087  0.00  0.00    +0.000 C 
ATOM     23  C   UNL     1      -3.930  12.752  21.876  0.00  0.00    +0.000 C 
BRANCH  23  24
ATOM     24  C   UNL     1      -5.044  13.675  21.591  0.00  0.00    +0.000 A 
ATOM     25  C   UNL     1      -5.366  14.081  20.293  0.00  0.00    +0.000 A 
ATOM     26  C   UNL     1      -6.447  14.925  20.103  0.00  0.00    +0.000 A 
ATOM     27  N   UNL     1      -7.229  15.378  21.103  0.00  0.00    +0.000 NA
ATOM     28  C   UNL     1      -6.917  14.961  22.349  0.00  0.00    +0.000 A 
ATOM     29  C   UNL     1      -5.854  14.119  22.639  0.00  0.00    +0.000 A 
ENDBRANCH  23  24
ENDBRANCH  21  22
ENDBRANCH  19  20
ENDBRANCH   1  19
TORSDOF 6
ENDMDL
MODEL 5
REMARK VINA RESULT:      -7.7      0.862      1.316
REMARK  Name = 
REMARK  6 active torsions:
REMARK  status: ('A' for Active; 'I' for Inactive)
REMARK    1  A    between atoms: C_2  and  C_3
REMARK    2  A    between atoms: C_2  and  C_13
REMARK    3  A    between atoms: C_4  and  C_5
REMARK    4  A    between atoms: C_6  and  C_7
REMARK    5  A    between atoms: C_16  and  C_17
REMARK    6  A    between atoms: N_19  and  C_20
REMARK                            x       y       z     vdW  Elec       q    Type
REMARK                         _______ _______ _______ _____ _____    ______ ____
ROOT
ATOM      1  C   UNL     1       0.281   9.871  21.534  0.00  0.00    +0.000 A 
ATOM      2  C   UNL     1       0.948   8.652  21.683  0.00  0.00    +0.000 A 
ATOM      3  C   UNL     1       1.661   8.113  20.611  0.00  0.00    +0.000 A 
ATOM      4  C   UNL     1       1.734   8.786  19.383  0.00  0.00    +0.000 A 
ATOM      5  C   UNL     1       1.076  10.009  19.226  0.00  0.00    +0.000 A 
ATOM      6  C   UNL     1       0.355  10.549  20.304  0.00  0.00    +0.000 A 
ENDROOT
BRANCH   4   7
ATOM      7  C   UNL     1       2.455   8.093  18.283  0.00  0.00    +0.000 C 
ATOM      8  O   UNL     1       2.233   8.501  17.147  0.00  0.00    +0.000 OA
ATOM      9  N   UNL     1       3.247   7.005  18.617  0.00  0.00    +0.000 N 
ATOM     10  H   UNL     1       3.182   6.645  19.560  0.00  0.00    +0.000 HD
BRANCH   9  11
ATOM     11  C   UNL     1       3.957   6.215  17.677  0.00  0.00    +0.000 A 
ATOM     12  C   UNL     1       4.984   6.728  16.876  0.00  0.00    +0.000 A 
ATOM     13  C   UNL     1       5.618   5.936  15.915  0.00  0.00    +0.000 A 
ATOM     14  C   UNL     1       5.234   4.612  15.753  0.00  0.00    +0.000 A 
ATOM     15 CL   UNL     1       5.996   3.644  14.552  0.00  0.00    +0.000 Cl
ATOM     16  C   UNL     1       4.236   4.071  16.560  0.00  0.00    +0.000 A 
ATOM     17  C   UNL     1       3.605   4.868  17.527  0.00  0.00    +0.000 A 
ENDBRANCH   9  11
ENDBRANCH   4   7
BRANCH   1  19
ATOM     18  O   UNL     1      -0.294  10.093  23.814  0.00  0.00    +0.000 OA
ATOM     19  C   UNL     1      -0.460  10.496  22.667  0.00  0.00    +0.000 C 
BRANCH  19  20
ATOM     20  C   UNL     1      -1.389  11.617  22.355  0.00  0.00    +0.000 C 
ATOM     21  C   UNL     1      -2.416  11.902  23.171  0.00  0.00    +0.000 C 
BRANCH  21  22
ATOM     22  C   UNL     1      -3.372  12.945  22.862  0.00  0.00    +0.000 C 
ATOM     23  C   UNL     1      -4.675  12.880  23.180  0.00  0.00    +0.000 C 
BRANCH  23  24
ATOM     24  C   UNL     1      -5.659  13.917  22.823  0.00  0.00    +0.000 A 
ATOM     25  C   UNL     1      -6.410  14.600  23.784  0.00  0.00    +0.000 A 
ATOM     26  C   UNL     1      -7.292  15.585  23.370  0.00  0.00    +0.000 A 
ATOM     27  N   UNL     1      -7.468  15.941  22.082  0.00  0.00    +0.000 NA
ATOM     28  C   UNL     1      -6.722  15.285  21.169  0.00  0.00    +0.000 A 
ATOM     29  C   UNL     1      -5.814  14.285  21.484  0.00  0.00    +0.000 A 
ENDBRANCH  23  24
ENDBRANCH  21  22
ENDBRANCH  19  20
ENDBRANCH   1  19
TORSDOF 6
ENDMDL
MODEL 6
REMARK VINA RESULT:      -7.6      4.688     12.438
REMARK  Name = 
REMARK  6 active torsions:
REMARK  status: ('A' for Active; 'I' for Inactive)
REMARK    1  A    between atoms: C_2  and  C_3
REMARK    2  A    between atoms: C_2  and  C_13
REMARK    3  A    between atoms: C_4  and  C_5
REMARK    4  A    between atoms: C_6  and  C_7
REMARK    5  A    between atoms: C_16  and  C_17
REMARK    6  A    between atoms: N_19  and  C_20
REMARK                            x       y       z     vdW  Elec       q    Type
REMARK                         _______ _______ _______ _____ _____    ______ ____
ROOT
ATOM      1  C   UNL     1       2.262   7.129  19.411  0.00  0.00    +0.000 A 
ATOM      2  C   UNL     1       2.198   8.055  18.367  0.00  0.00    +0.000 A 
ATOM      3  C   UNL     1       1.531   9.266  18.551  0.00  0.00    +0.000 A 
ATOM      4  C   UNL     1       0.932   9.580  19.780  0.00  0.00    +0.000 A 
ATOM      5  C   UNL     1       0.997   8.664  20.833  0.00  0.00    +0.000 A 
ATOM      6  C   UNL     1       1.665   7.442  20.646  0.00  0.00    +0.000 A 
ENDROOT
BRANCH   4   7
ATOM      7  C   UNL     1       0.183  10.862  19.850  0.00  0.00    +0.000 C 
ATOM      8  O   UNL     1       0.339  11.634  18.909  0.00  0.00    +0.000 OA
ATOM      9  N   UNL     1      -0.561  11.111  20.994  0.00  0.00    +0.000 N 
ATOM     10  H   UNL     1      -0.442  10.487  21.780  0.00  0.00    +0.000 HD
BRANCH   9  11
ATOM     11  C   UNL     1      -1.290  12.306  21.228  0.00  0.00    +0.000 A 
ATOM     12  C   UNL     1      -2.529  12.569  20.632  0.00  0.00    +0.000 A 
ATOM     13  C   UNL     1      -3.188  13.784  20.836  0.00  0.00    +0.000 A 
ATOM     14  C   UNL     1      -2.613  14.750  21.651  0.00  0.00    +0.000 A 
ATOM     15 CL   UNL     1      -3.412  16.256  21.881  0.00  0.00    +0.000 Cl
ATOM     16  C   UNL     1      -1.396  14.499  22.280  0.00  0.00    +0.000 A 
ATOM     17  C   UNL     1      -0.740  13.275  22.076  0.00  0.00    +0.000 A 
ENDBRANCH   9  11
ENDBRANCH   4   7
BRANCH   1  19
ATOM     18  O   UNL     1       3.106   5.077  20.220  0.00  0.00    +0.000 OA
ATOM     19  C   UNL     1       2.998   5.839  19.265  0.00  0.00    +0.000 C 
BRANCH  19  20
ATOM     20  C   UNL     1       3.578   5.518  17.932  0.00  0.00    +0.000 C 
ATOM     21  C   UNL     1       4.111   4.310  17.691  0.00  0.00    +0.000 C 
BRANCH  21  22
ATOM     22  C   UNL     1       4.738   3.989  16.426  0.00  0.00    +0.000 C 
ATOM     23  C   UNL     1       5.471   4.861  15.715  0.00  0.00    +0.000 C 
BRANCH  23  24
ATOM     24  C   UNL     1       6.069   4.553  14.404  0.00  0.00    +0.000 A 
ATOM     25  C   UNL     1       5.467   3.677  13.495  0.00  0.00    +0.000 A 
ATOM     26  C   UNL     1       6.075   3.463  12.268  0.00  0.00    +0.000 A 
ATOM     27  N   UNL     1       7.219   4.063  11.883  0.00  0.00    +0.000 NA
ATOM     28  C   UNL     1       7.776   4.920  12.764  0.00  0.00    +0.000 A 
ATOM     29  C   UNL     1       7.245   5.198  14.015  0.00  0.00    +0.000 A 
ENDBRANCH  23  24
ENDBRANCH  21  22
ENDBRANCH  19  20
ENDBRANCH   1  19
TORSDOF 6
ENDMDL
MODEL 7
REMARK VINA RESULT:      -7.6      5.301     12.355
REMARK  Name = 
REMARK  6 active torsions:
REMARK  status: ('A' for Active; 'I' for Inactive)
REMARK    1  A    between atoms: C_2  and  C_3
REMARK    2  A    between atoms: C_2  and  C_13
REMARK    3  A    between atoms: C_4  and  C_5
REMARK    4  A    between atoms: C_6  and  C_7
REMARK    5  A    between atoms: C_16  and  C_17
REMARK    6  A    between atoms: N_19  and  C_20
REMARK                            x       y       z     vdW  Elec       q    Type
REMARK                         _______ _______ _______ _____ _____    ______ ____
ROOT
ATOM      1  C   UNL     1       2.324   7.292  19.324  0.00  0.00    +0.000 A 
ATOM      2  C   UNL     1       1.743   7.681  20.534  0.00  0.00    +0.000 A 
ATOM      3  C   UNL     1       1.034   8.881  20.612  0.00  0.00    +0.000 A 
ATOM      4  C   UNL     1       0.879   9.701  19.485  0.00  0.00    +0.000 A 
ATOM      5  C   UNL     1       1.450   9.317  18.268  0.00  0.00    +0.000 A 
ATOM      6  C   UNL     1       2.168   8.111  18.191  0.00  0.00    +0.000 A 
ENDROOT
BRANCH   4   7
ATOM      7  C   UNL     1       0.172  10.991  19.690  0.00  0.00    +0.000 C 
ATOM      8  O   UNL     1      -1.053  10.954  19.632  0.00  0.00    +0.000 OA
ATOM      9  N   UNL     1       0.945  12.132  19.849  0.00  0.00    +0.000 N 
ATOM     10  H   UNL     1       1.938  12.058  19.671  0.00  0.00    +0.000 HD
BRANCH   9  11
ATOM     11  C   UNL     1       0.417  13.439  20.006  0.00  0.00    +0.000 A 
ATOM     12  C   UNL     1       0.118  14.273  18.923  0.00  0.00    +0.000 A 
ATOM     13  C   UNL     1      -0.340  15.578  19.117  0.00  0.00    +0.000 A 
ATOM     14  C   UNL     1      -0.514  16.062  20.407  0.00  0.00    +0.000 A 
ATOM     15 CL   UNL     1      -1.054  17.677  20.647  0.00  0.00    +0.000 Cl
ATOM     16  C   UNL     1      -0.253  15.240  21.502  0.00  0.00    +0.000 A 
ATOM     17  C   UNL     1       0.202  13.928  21.302  0.00  0.00    +0.000 A 
ENDBRANCH   9  11
ENDBRANCH   4   7
BRANCH   1  19
ATOM     18  O   UNL     1       3.144   5.237  20.148  0.00  0.00    +0.000 OA
ATOM     19  C   UNL     1       3.058   6.000  19.192  0.00  0.00    +0.000 C 
BRANCH  19  20
ATOM     20  C   UNL     1       3.664   5.678  17.870  0.00  0.00    +0.000 C 
ATOM     21  C   UNL     1       4.051   4.425  17.583  0.00  0.00    +0.000 C 
BRANCH  21  22
ATOM     22  C   UNL     1       4.699   4.093  16.332  0.00  0.00    +0.000 C 
ATOM     23  C   UNL     1       5.435   4.962  15.620  0.00  0.00    +0.000 C 
BRANCH  23  24
ATOM     24  C   UNL     1       6.054   4.642  14.321  0.00  0.00    +0.000 A 
ATOM     25  C   UNL     1       7.246   5.235  13.893  0.00  0.00    +0.000 A 
ATOM     26  C   UNL     1       7.782   4.857  12.673  0.00  0.00    +0.000 A 
ATOM     27  N   UNL     1       7.228   3.932  11.865  0.00  0.00    +0.000 NA
ATOM     28  C   UNL     1       6.089   3.355  12.301  0.00  0.00    +0.000 A 
ATOM     29  C   UNL     1       5.475   3.666  13.505  0.00  0.00    +0.000 A 
ENDBRANCH  23  24
ENDBRANCH  21  22
ENDBRANCH  19  20
ENDBRANCH   1  19
TORSDOF 6
ENDMDL
MODEL 8
REMARK VINA RESULT:      -7.6      4.565     12.518
REMARK  Name = 
REMARK  6 active torsions:
REMARK  status: ('A' for Active; 'I' for Inactive)
REMARK    1  A    between atoms: C_2  and  C_3
REMARK    2  A    between atoms: C_2  and  C_13
REMARK    3  A    between atoms: C_4  and  C_5
REMARK    4  A    between atoms: C_6  and  C_7
REMARK    5  A    between atoms: C_16  and  C_17
REMARK    6  A    between atoms: N_19  and  C_20
REMARK                            x       y       z     vdW  Elec       q    Type
REMARK                         _______ _______ _______ _____ _____    ______ ____
ROOT
ATOM      1  C   UNL     1       2.227   7.160  19.549  0.00  0.00    +0.000 A 
ATOM      2  C   UNL     1       2.139   8.158  18.574  0.00  0.00    +0.000 A 
ATOM      3  C   UNL     1       1.452   9.341  18.850  0.00  0.00    +0.000 A 
ATOM      4  C   UNL     1       0.860   9.556  20.102  0.00  0.00    +0.000 A 
ATOM      5  C   UNL     1       0.949   8.567  21.087  0.00  0.00    +0.000 A 
ATOM      6  C   UNL     1       1.636   7.374  20.807  0.00  0.00    +0.000 A 
ENDROOT
BRANCH   4   7
ATOM      7  C   UNL     1       0.089  10.816  20.270  0.00  0.00    +0.000 C 
ATOM      8  O   UNL     1       0.248  11.669  19.403  0.00  0.00    +0.000 OA
ATOM      9  N   UNL     1      -0.676  10.955  21.419  0.00  0.00    +0.000 N 
ATOM     10  H   UNL     1      -0.558  10.267  22.151  0.00  0.00    +0.000 HD
BRANCH   9  11
ATOM     11  C   UNL     1      -1.426  12.115  21.743  0.00  0.00    +0.000 A 
ATOM     12  C   UNL     1      -1.107  12.949  22.820  0.00  0.00    +0.000 A 
ATOM     13  C   UNL     1      -1.907  14.047  23.148  0.00  0.00    +0.000 A 
ATOM     14  C   UNL     1      -3.035  14.328  22.389  0.00  0.00    +0.000 A 
ATOM     15 CL   UNL     1      -4.034  15.664  22.808  0.00  0.00    +0.000 Cl
ATOM     16  C   UNL     1      -3.355  13.530  21.293  0.00  0.00    +0.000 A 
ATOM     17  C   UNL     1      -2.547  12.431  20.964  0.00  0.00    +0.000 A 
ENDBRANCH   9  11
ENDBRANCH   4   7
BRANCH   1  19
ATOM     18  O   UNL     1       3.075   5.051  20.188  0.00  0.00    +0.000 OA
ATOM     19  C   UNL     1       2.983   5.897  19.305  0.00  0.00    +0.000 C 
BRANCH  19  20
ATOM     20  C   UNL     1       3.602   5.707  17.964  0.00  0.00    +0.000 C 
ATOM     21  C   UNL     1       4.934   5.773  17.811  0.00  0.00    +0.000 C 
BRANCH  21  22
ATOM     22  C   UNL     1       5.561   5.654  16.511  0.00  0.00    +0.000 C 
ATOM     23  C   UNL     1       5.316   4.649  15.654  0.00  0.00    +0.000 C 
BRANCH  23  24
ATOM     24  C   UNL     1       5.989   4.499  14.352  0.00  0.00    +0.000 A 
ATOM     25  C   UNL     1       7.150   5.206  14.024  0.00  0.00    +0.000 A 
ATOM     26  C   UNL     1       7.742   4.986  12.791  0.00  0.00    +0.000 A 
ATOM     27  N   UNL     1       7.273   4.112  11.879  0.00  0.00    +0.000 NA
ATOM     28  C   UNL     1       6.163   3.423  12.219  0.00  0.00    +0.000 A 
ATOM     29  C   UNL     1       5.498   3.574  13.427  0.00  0.00    +0.000 A 
ENDBRANCH  23  24
ENDBRANCH  21  22
ENDBRANCH  19  20
ENDBRANCH   1  19
TORSDOF 6
ENDMDL
MODEL 9
REMARK VINA RESULT:      -7.6      1.010      1.045
REMARK  Name = 
REMARK  6 active torsions:
REMARK  status: ('A' for Active; 'I' for Inactive)
REMARK    1  A    between atoms: C_2  and  C_3
REMARK    2  A    between atoms: C_2  and  C_13
REMARK    3  A    between atoms: C_4  and  C_5
REMARK    4  A    between atoms: C_6  and  C_7
REMARK    5  A    between atoms: C_16  and  C_17
REMARK    6  A    between atoms: N_19  and  C_20
REMARK                            x       y       z     vdW  Elec       q    Type
REMARK                         _______ _______ _______ _____ _____    ______ ____
ROOT
ATOM      1  C   UNL     1       0.300   9.727  21.558  0.00  0.00    +0.000 A 
ATOM      2  C   UNL     1       1.100   8.591  21.712  0.00  0.00    +0.000 A 
ATOM      3  C   UNL     1       1.792   8.074  20.616  0.00  0.00    +0.000 A 
ATOM      4  C   UNL     1       1.711   8.687  19.357  0.00  0.00    +0.000 A 
ATOM      5  C   UNL     1       0.920   9.827  19.195  0.00  0.00    +0.000 A 
ATOM      6  C   UNL     1       0.219  10.345  20.297  0.00  0.00    +0.000 A 
ENDROOT
BRANCH   4   7
ATOM      7  C   UNL     1       2.425   8.015  18.240  0.00  0.00    +0.000 C 
ATOM      8  O   UNL     1       2.254   8.491  17.122  0.00  0.00    +0.000 OA
ATOM      9  N   UNL     1       3.154   6.873  18.536  0.00  0.00    +0.000 N 
ATOM     10  H   UNL     1       3.047   6.469  19.457  0.00  0.00    +0.000 HD
BRANCH   9  11
ATOM     11  C   UNL     1       3.849   6.097  17.572  0.00  0.00    +0.000 A 
ATOM     12  C   UNL     1       3.638   4.723  17.409  0.00  0.00    +0.000 A 
ATOM     13  C   UNL     1       4.386   3.979  16.493  0.00  0.00    +0.000 A 
ATOM     14  C   UNL     1       5.352   4.609  15.720  0.00  0.00    +0.000 A 
ATOM     15 CL   UNL     1       6.292   3.688  14.612  0.00  0.00    +0.000 Cl
ATOM     16  C   UNL     1       5.558   5.981  15.843  0.00  0.00    +0.000 A 
ATOM     17  C   UNL     1       4.801   6.726  16.760  0.00  0.00    +0.000 A 
ENDBRANCH   9  11
ENDBRANCH   4   7
BRANCH   1  19
ATOM     18  O   UNL     1      -0.092  10.062  23.862  0.00  0.00    +0.000 OA
ATOM     19  C   UNL     1      -0.425  10.331  22.712  0.00  0.00    +0.000 C 
BRANCH  19  20
ATOM     20  C   UNL     1      -1.546  11.266  22.416  0.00  0.00    +0.000 C 
ATOM     21  C   UNL     1      -1.892  12.219  23.295  0.00  0.00    +0.000 C 
BRANCH  21  22
ATOM     22  C   UNL     1      -3.016  13.102  23.063  0.00  0.00    +0.000 C 
ATOM     23  C   UNL     1      -4.103  12.754  22.354  0.00  0.00    +0.000 C 
BRANCH  23  24
ATOM     24  C   UNL     1      -5.226  13.667  22.074  0.00  0.00    +0.000 A 
ATOM     25  C   UNL     1      -6.482  13.513  22.670  0.00  0.00    +0.000 A 
ATOM     26  C   UNL     1      -7.477  14.432  22.380  0.00  0.00    +0.000 A 
ATOM     27  N   UNL     1      -7.308  15.487  21.559  0.00  0.00    +0.000 NA
ATOM     28  C   UNL     1      -6.085  15.632  21.007  0.00  0.00    +0.000 A 
ATOM     29  C   UNL     1      -5.026  14.765  21.235  0.00  0.00    +0.000 A 
ENDBRANCH  23  24
ENDBRANCH  21  22
ENDBRANCH  19  20
ENDBRANCH   1  19
TORSDOF 6
ENDMDL
