MODEL 1
REMARK VINA RESULT:      -7.0      0.000      0.000
REMARK  Name = 
REMARK  6 active torsions:
REMARK  status: ('A' for Active; 'I' for Inactive)
REMARK    1  A    between atoms: C_1  and  S_2
REMARK    2  A    between atoms: S_2  and  C_5
REMARK    3  A    between atoms: C_5  and  C_6
REMARK    4  A    between atoms: C_9  and  C_10
REMARK    5  A    between atoms: N_12  and  C_13
REMARK    6  A    between atoms: C_13  and  C_14
REMARK                            x       y       z     vdW  Elec       q    Type
REMARK                         _______ _______ _______ _____ _____    ______ ____
ROOT
ATOM      1  C   UNL     1       3.775   4.878  19.121  0.00  0.00    +0.000 A 
ATOM      2  C   UNL     1       3.397   4.517  17.822  0.00  0.00    +0.000 A 
ATOM      3  C   UNL     1       4.343   4.461  16.796  0.00  0.00    +0.000 A 
ATOM      4  C   UNL     1       5.686   4.789  17.033  0.00  0.00    +0.000 A 
ATOM      5  C   UNL     1       6.058   5.201  18.317  0.00  0.00    +0.000 A 
ATOM      6  C   UNL     1       5.108   5.248  19.349  0.00  0.00    +0.000 A 
ENDROOT
BRANCH   4   7
ATOM      7  C   UNL     1       6.645   4.619  15.898  0.00  0.00    +0.000 C 
ATOM      8  O   UNL     1       7.834   4.414  16.136  0.00  0.00    +0.000 OA
ATOM      9  N   UNL     1       6.162   4.710  14.608  0.00  0.00    +0.000 N 
ATOM     10  H   UNL     1       5.174   4.622  14.420  0.00  0.00    +0.000 HD
BRANCH   9  11
ATOM     11  C   UNL     1       7.049   4.478  13.479  0.00  0.00    +0.000 C 
BRANCH  11  12
ATOM     12  C   UNL     1       6.347   3.870  12.265  0.00  0.00    +0.000 C 
ATOM     13  C   UNL     1       4.840   3.724  12.379  0.00  0.00    +0.000 C 
ATOM     14  C   UNL     1       4.569   2.753  11.254  0.00  0.00    +0.000 C 
ATOM     15  C   UNL     1       5.771   1.828  11.321  0.00  0.00    +0.000 C 
ATOM     16  O   UNL     1       6.829   2.542  11.985  0.00  0.00    +0.000 OA
ENDBRANCH  11  12
ENDBRANCH   9  11
ENDBRANCH   4   7
BRANCH   1  17
ATOM     17  C   UNL     1       2.770   4.869  20.247  0.00  0.00    +0.000 C 
BRANCH  17  19
ATOM     18  C   UNL     1       1.191   2.589  19.949  0.00  0.00    +0.000 C 
ATOM     19  S   UNL     1       2.571   3.197  20.881  0.00  0.00    +0.000 S 
ATOM     20  O   UNL     1       2.143   3.267  22.266  0.00  0.00    +0.000 OA
ATOM     21  O   UNL     1       3.713   2.395  20.486  0.00  0.00    +0.000 OA
ENDBRANCH  17  19
ENDBRANCH   1  17
TORSDOF 5
ENDMDL
MODEL 2
REMARK VINA RESULT:      -6.8      1.251      1.364
REMARK  Name = 
REMARK  6 active torsions:
REMARK  status: ('A' for Active; 'I' for Inactive)
REMARK    1  A    between atoms: C_1  and  S_2
REMARK    2  A    between atoms: S_2  and  C_5
REMARK    3  A    between atoms: C_5  and  C_6
REMARK    4  A    between atoms: C_9  and  C_10
REMARK    5  A    between atoms: N_12  and  C_13
REMARK    6  A    between atoms: C_13  and  C_14
REMARK                            x       y       z     vdW  Elec       q    Type
REMARK                         _______ _______ _______ _____ _____    ______ ____
ROOT
ATOM      1  C   UNL     1       4.096   3.251  19.303  0.00  0.00    +0.000 A 
ATOM      2  C   UNL     1       3.692   2.790  18.044  0.00  0.00    +0.000 A 
ATOM      3  C   UNL     1       4.216   3.353  16.878  0.00  0.00    +0.000 A 
ATOM      4  C   UNL     1       5.136   4.409  16.937  0.00  0.00    +0.000 A 
ATOM      5  C   UNL     1       5.503   4.909  18.191  0.00  0.00    +0.000 A 
ATOM      6  C   UNL     1       4.984   4.336  19.362  0.00  0.00    +0.000 A 
ENDROOT
BRANCH   4   7
ATOM      7  C   UNL     1       5.709   4.894  15.643  0.00  0.00    +0.000 C 
ATOM      8  O   UNL     1       5.641   6.088  15.360  0.00  0.00    +0.000 OA
ATOM      9  N   UNL     1       6.291   3.973  14.794  0.00  0.00    +0.000 N 
ATOM     10  H   UNL     1       6.569   3.064  15.133  0.00  0.00    +0.000 HD
BRANCH   9  11
ATOM     11  C   UNL     1       6.923   4.415  13.562  0.00  0.00    +0.000 C 
BRANCH  11  12
ATOM     12  C   UNL     1       6.278   3.838  12.302  0.00  0.00    +0.000 C 
ATOM     13  C   UNL     1       4.767   3.687  12.345  0.00  0.00    +0.000 C 
ATOM     14  C   UNL     1       4.549   2.745  11.185  0.00  0.00    +0.000 C 
ATOM     15  C   UNL     1       5.748   1.819  11.282  0.00  0.00    +0.000 C 
ATOM     16  O   UNL     1       6.775   2.517  12.010  0.00  0.00    +0.000 OA
ENDBRANCH  11  12
ENDBRANCH   9  11
ENDBRANCH   4   7
BRANCH   1  17
ATOM     17  C   UNL     1       3.589   2.597  20.565  0.00  0.00    +0.000 C 
BRANCH  17  19
ATOM     18  C   UNL     1       0.920   2.978  19.849  0.00  0.00    +0.000 C 
ATOM     19  S   UNL     1       2.082   3.409  21.117  0.00  0.00    +0.000 S 
ATOM     20  O   UNL     1       2.268   4.846  21.043  0.00  0.00    +0.000 OA
ATOM     21  O   UNL     1       1.612   2.773  22.332  0.00  0.00    +0.000 OA
ENDBRANCH  17  19
ENDBRANCH   1  17
TORSDOF 5
ENDMDL
MODEL 3
REMARK VINA RESULT:      -6.8      0.823      1.016
REMARK  Name = 
REMARK  6 active torsions:
REMARK  status: ('A' for Active; 'I' for Inactive)
REMARK    1  A    between atoms: C_1  and  S_2
REMARK    2  A    between atoms: S_2  and  C_5
REMARK    3  A    between atoms: C_5  and  C_6
REMARK    4  A    between atoms: C_9  and  C_10
REMARK    5  A    between atoms: N_12  and  C_13
REMARK    6  A    between atoms: C_13  and  C_14
REMARK                            x       y       z     vdW  Elec       q    Type
REMARK                         _______ _______ _______ _____ _____    ______ ____
ROOT
ATOM      1  C   UNL     1       3.713   4.787  19.113  0.00  0.00    +0.000 A 
ATOM      2  C   UNL     1       3.366   4.346  17.831  0.00  0.00    +0.000 A 
ATOM      3  C   UNL     1       4.318   4.306  16.810  0.00  0.00    +0.000 A 
ATOM      4  C   UNL     1       5.635   4.730  17.035  0.00  0.00    +0.000 A 
ATOM      5  C   UNL     1       5.974   5.222  18.300  0.00  0.00    +0.000 A 
ATOM      6  C   UNL     1       5.019   5.252  19.327  0.00  0.00    +0.000 A 
ENDROOT
BRANCH   4   7
ATOM      7  C   UNL     1       6.609   4.573  15.910  0.00  0.00    +0.000 C 
ATOM      8  O   UNL     1       7.795   4.369  16.160  0.00  0.00    +0.000 OA
ATOM      9  N   UNL     1       6.142   4.673  14.615  0.00  0.00    +0.000 N 
ATOM     10  H   UNL     1       5.156   4.585  14.414  0.00  0.00    +0.000 HD
BRANCH   9  11
ATOM     11  C   UNL     1       7.042   4.454  13.495  0.00  0.00    +0.000 C 
BRANCH  11  12
ATOM     12  C   UNL     1       6.357   3.854  12.267  0.00  0.00    +0.000 C 
ATOM     13  C   UNL     1       4.867   3.595  12.404  0.00  0.00    +0.000 C 
ATOM     14  C   UNL     1       4.639   2.659  11.240  0.00  0.00    +0.000 C 
ATOM     15  C   UNL     1       5.905   1.821  11.240  0.00  0.00    +0.000 C 
ATOM     16  O   UNL     1       6.926   2.577  11.915  0.00  0.00    +0.000 OA
ENDBRANCH  11  12
ENDBRANCH   9  11
ENDBRANCH   4   7
BRANCH   1  17
ATOM     17  C   UNL     1       2.706   4.763  20.237  0.00  0.00    +0.000 C 
BRANCH  17  19
ATOM     18  C   UNL     1       4.048   2.330  20.480  0.00  0.00    +0.000 C 
ATOM     19  S   UNL     1       2.478   3.078  20.822  0.00  0.00    +0.000 S 
ATOM     20  O   UNL     1       1.504   2.414  19.976  0.00  0.00    +0.000 OA
ATOM     21  O   UNL     1       2.338   3.086  22.266  0.00  0.00    +0.000 OA
ENDBRANCH  17  19
ENDBRANCH   1  17
TORSDOF 5
ENDMDL
MODEL 4
REMARK VINA RESULT:      -6.7      0.441      1.181
REMARK  Name = 
REMARK  6 active torsions:
REMARK  status: ('A' for Active; 'I' for Inactive)
REMARK    1  A    between atoms: C_1  and  S_2
REMARK    2  A    between atoms: S_2  and  C_5
REMARK    3  A    between atoms: C_5  and  C_6
REMARK    4  A    between atoms: C_9  and  C_10
REMARK    5  A    between atoms: N_12  and  C_13
REMARK    6  A    between atoms: C_13  and  C_14
REMARK                            x       y       z     vdW  Elec       q    Type
REMARK                         _______ _______ _______ _____ _____    ______ ____
ROOT
ATOM      1  C   UNL     1       3.894   4.734  19.008  0.00  0.00    +0.000 A 
ATOM      2  C   UNL     1       5.260   4.998  19.171  0.00  0.00    +0.000 A 
ATOM      3  C   UNL     1       6.134   4.923  18.084  0.00  0.00    +0.000 A 
ATOM      4  C   UNL     1       5.674   4.555  16.812  0.00  0.00    +0.000 A 
ATOM      5  C   UNL     1       4.320   4.239  16.655  0.00  0.00    +0.000 A 
ATOM      6  C   UNL     1       3.441   4.325  17.745  0.00  0.00    +0.000 A 
ENDROOT
BRANCH   4   7
ATOM      7  C   UNL     1       6.662   4.583  15.689  0.00  0.00    +0.000 C 
ATOM      8  O   UNL     1       7.864   4.529  15.941  0.00  0.00    +0.000 OA
ATOM      9  N   UNL     1       6.189   4.681  14.397  0.00  0.00    +0.000 N 
ATOM     10  H   UNL     1       5.224   4.471  14.184  0.00  0.00    +0.000 HD
BRANCH   9  11
ATOM     11  C   UNL     1       7.113   4.638  13.275  0.00  0.00    +0.000 C 
BRANCH  11  12
ATOM     12  C   UNL     1       6.611   3.798  12.101  0.00  0.00    +0.000 C 
ATOM     13  C   UNL     1       5.309   3.053  12.331  0.00  0.00    +0.000 C 
ATOM     14  C   UNL     1       5.353   2.057  11.197  0.00  0.00    +0.000 C 
ATOM     15  C   UNL     1       6.827   1.698  11.133  0.00  0.00    +0.000 C 
ATOM     16  O   UNL     1       7.562   2.779  11.734  0.00  0.00    +0.000 OA
ENDBRANCH  11  12
ENDBRANCH   9  11
ENDBRANCH   4   7
BRANCH   1  17
ATOM     17  C   UNL     1       2.935   4.886  20.163  0.00  0.00    +0.000 C 
BRANCH  17  19
ATOM     18  C   UNL     1       0.975   2.909  19.998  0.00  0.00    +0.000 C 
ATOM     19  S   UNL     1       2.503   3.269  20.822  0.00  0.00    +0.000 S 
ATOM     20  O   UNL     1       2.197   3.403  22.234  0.00  0.00    +0.000 OA
ATOM     21  O   UNL     1       3.460   2.287  20.349  0.00  0.00    +0.000 OA
ENDBRANCH  17  19
ENDBRANCH   1  17
TORSDOF 5
ENDMDL
MODEL 5
REMARK VINA RESULT:      -6.7      1.361      1.440
REMARK  Name = 
REMARK  6 active torsions:
REMARK  status: ('A' for Active; 'I' for Inactive)
REMARK    1  A    between atoms: C_1  and  S_2
REMARK    2  A    between atoms: S_2  and  C_5
REMARK    3  A    between atoms: C_5  and  C_6
REMARK    4  A    between atoms: C_9  and  C_10
REMARK    5  A    between atoms: N_12  and  C_13
REMARK    6  A    between atoms: C_13  and  C_14
REMARK                            x       y       z     vdW  Elec       q    Type
REMARK                         _______ _______ _______ _____ _____    ______ ____
ROOT
ATOM      1  C   UNL     1       3.936   3.361  19.334  0.00  0.00    +0.000 A 
ATOM      2  C   UNL     1       3.754   2.723  18.101  0.00  0.00    +0.000 A 
ATOM      3  C   UNL     1       4.289   3.267  16.932  0.00  0.00    +0.000 A 
ATOM      4  C   UNL     1       4.999   4.476  16.958  0.00  0.00    +0.000 A 
ATOM      5  C   UNL     1       5.139   5.145  18.178  0.00  0.00    +0.000 A 
ATOM      6  C   UNL     1       4.609   4.592  19.354  0.00  0.00    +0.000 A 
ENDROOT
BRANCH   4   7
ATOM      7  C   UNL     1       5.610   4.941  15.674  0.00  0.00    +0.000 C 
ATOM      8  O   UNL     1       5.549   6.131  15.371  0.00  0.00    +0.000 OA
ATOM      9  N   UNL     1       6.219   4.009  14.858  0.00  0.00    +0.000 N 
ATOM     10  H   UNL     1       6.487   3.105  15.219  0.00  0.00    +0.000 HD
BRANCH   9  11
ATOM     11  C   UNL     1       6.887   4.432  13.638  0.00  0.00    +0.000 C 
BRANCH  11  12
ATOM     12  C   UNL     1       6.256   3.866  12.367  0.00  0.00    +0.000 C 
ATOM     13  C   UNL     1       4.749   3.682  12.403  0.00  0.00    +0.000 C 
ATOM     14  C   UNL     1       4.552   2.758  11.225  0.00  0.00    +0.000 C 
ATOM     15  C   UNL     1       5.771   1.857  11.307  0.00  0.00    +0.000 C 
ATOM     16  O   UNL     1       6.782   2.562  12.050  0.00  0.00    +0.000 OA
ENDBRANCH  11  12
ENDBRANCH   9  11
ENDBRANCH   4   7
BRANCH   1  17
ATOM     17  C   UNL     1       3.422   2.739  20.609  0.00  0.00    +0.000 C 
BRANCH  17  19
ATOM     18  C   UNL     1       1.607   4.849  20.776  0.00  0.00    +0.000 C 
ATOM     19  S   UNL     1       1.666   3.078  20.796  0.00  0.00    +0.000 S 
ATOM     20  O   UNL     1       1.244   2.659  22.119  0.00  0.00    +0.000 OA
ATOM     21  O   UNL     1       0.963   2.635  19.607  0.00  0.00    +0.000 OA
ENDBRANCH  17  19
ENDBRANCH   1  17
TORSDOF 5
ENDMDL
MODEL 6
REMARK VINA RESULT:      -6.6      4.231      8.279
REMARK  Name = 
REMARK  6 active torsions:
REMARK  status: ('A' for Active; 'I' for Inactive)
REMARK    1  A    between atoms: C_1  and  S_2
REMARK    2  A    between atoms: S_2  and  C_5
REMARK    3  A    between atoms: C_5  and  C_6
REMARK    4  A    between atoms: C_9  and  C_10
REMARK    5  A    between atoms: N_12  and  C_13
REMARK    6  A    between atoms: C_13  and  C_14
REMARK                            x       y       z     vdW  Elec       q    Type
REMARK                         _______ _______ _______ _____ _____    ______ ____
ROOT
ATOM      1  C   UNL     1       4.661   4.208  17.225  0.00  0.00    +0.000 A 
ATOM      2  C   UNL     1       3.266   4.157  17.114  0.00  0.00    +0.000 A 
ATOM      3  C   UNL     1       2.453   4.731  18.094  0.00  0.00    +0.000 A 
ATOM      4  C   UNL     1       3.010   5.348  19.223  0.00  0.00    +0.000 A 
ATOM      5  C   UNL     1       4.401   5.355  19.365  0.00  0.00    +0.000 A 
ATOM      6  C   UNL     1       5.217   4.787  18.375  0.00  0.00    +0.000 A 
ENDROOT
BRANCH   4   7
ATOM      7  C   UNL     1       2.068   6.011  20.178  0.00  0.00    +0.000 C 
ATOM      8  O   UNL     1       1.319   5.321  20.867  0.00  0.00    +0.000 OA
ATOM      9  N   UNL     1       2.062   7.390  20.247  0.00  0.00    +0.000 N 
ATOM     10  H   UNL     1       2.834   7.928  19.881  0.00  0.00    +0.000 HD
BRANCH   9  11
ATOM     11  C   UNL     1       1.213   8.069  21.213  0.00  0.00    +0.000 C 
BRANCH  11  12
ATOM     12  C   UNL     1       0.892   9.514  20.836  0.00  0.00    +0.000 C 
ATOM     13  C   UNL     1      -0.244  10.161  21.608  0.00  0.00    +0.000 C 
ATOM     14  C   UNL     1      -0.542  11.348  20.723  0.00  0.00    +0.000 C 
ATOM     15  C   UNL     1      -0.347  10.777  19.330  0.00  0.00    +0.000 C 
ATOM     16  O   UNL     1       0.511   9.628  19.451  0.00  0.00    +0.000 OA
ENDBRANCH  11  12
ENDBRANCH   9  11
ENDBRANCH   4   7
BRANCH   1  17
ATOM     17  C   UNL     1       5.543   3.654  16.133  0.00  0.00    +0.000 C 
BRANCH  17  19
ATOM     18  C   UNL     1       6.648   4.321  13.661  0.00  0.00    +0.000 C 
ATOM     19  S   UNL     1       6.382   4.995  15.279  0.00  0.00    +0.000 S 
ATOM     20  O   UNL     1       7.691   5.187  15.874  0.00  0.00    +0.000 OA
ATOM     21  O   UNL     1       5.463   6.105  15.109  0.00  0.00    +0.000 OA
ENDBRANCH  17  19
ENDBRANCH   1  17
TORSDOF 5
ENDMDL
MODEL 7
REMARK VINA RESULT:      -6.6      5.173      8.293
REMARK  Name = 
REMARK  6 active torsions:
REMARK  status: ('A' for Active; 'I' for Inactive)
REMARK    1  A    between atoms: C_1  and  S_2
REMARK    2  A    between atoms: S_2  and  C_5
REMARK    3  A    between atoms: C_5  and  C_6
REMARK    4  A    between atoms: C_9  and  C_10
REMARK    5  A    between atoms: N_12  and  C_13
REMARK    6  A    between atoms: C_13  and  C_14
REMARK                            x       y       z     vdW  Elec       q    Type
REMARK                         _______ _______ _______ _____ _____    ______ ____
ROOT
ATOM      1  C   UNL     1       4.540   5.538  17.617  0.00  0.00    +0.000 A 
ATOM      2  C   UNL     1       4.215   6.805  17.119  0.00  0.00    +0.000 A 
ATOM      3  C   UNL     1       3.294   7.617  17.785  0.00  0.00    +0.000 A 
ATOM      4  C   UNL     1       2.654   7.176  18.952  0.00  0.00    +0.000 A 
ATOM      5  C   UNL     1       2.936   5.890  19.424  0.00  0.00    +0.000 A 
ATOM      6  C   UNL     1       3.868   5.079  18.760  0.00  0.00    +0.000 A 
ENDROOT
BRANCH   4   7
ATOM      7  C   UNL     1       1.748   8.143  19.646  0.00  0.00    +0.000 C 
ATOM      8  O   UNL     1       1.382   7.911  20.796  0.00  0.00    +0.000 OA
ATOM      9  N   UNL     1       1.338   9.270  18.961  0.00  0.00    +0.000 N 
ATOM     10  H   UNL     1       1.831   9.579  18.136  0.00  0.00    +0.000 HD
BRANCH   9  11
ATOM     11  C   UNL     1       0.517  10.269  19.626  0.00  0.00    +0.000 C 
BRANCH  11  12
ATOM     12  C   UNL     1      -0.935  10.282  19.150  0.00  0.00    +0.000 C 
ATOM     13  C   UNL     1      -1.157   9.903  17.697  0.00  0.00    +0.000 C 
ATOM     14  C   UNL     1      -2.560  10.420  17.485  0.00  0.00    +0.000 C 
ATOM     15  C   UNL     1      -2.565  11.701  18.299  0.00  0.00    +0.000 C 
ATOM     16  O   UNL     1      -1.525  11.590  19.287  0.00  0.00    +0.000 OA
ENDBRANCH  11  12
ENDBRANCH   9  11
ENDBRANCH   4   7
BRANCH   1  17
ATOM     17  C   UNL     1       5.588   4.688  16.941  0.00  0.00    +0.000 C 
BRANCH  17  19
ATOM     18  C   UNL     1       7.064   5.693  19.084  0.00  0.00    +0.000 C 
ATOM     19  S   UNL     1       7.231   5.283  17.367  0.00  0.00    +0.000 S 
ATOM     20  O   UNL     1       7.480   6.526  16.662  0.00  0.00    +0.000 OA
ATOM     21  O   UNL     1       8.172   4.180  17.303  0.00  0.00    +0.000 OA
ENDBRANCH  17  19
ENDBRANCH   1  17
TORSDOF 5
ENDMDL
MODEL 8
REMARK VINA RESULT:      -6.5      4.142      8.577
REMARK  Name = 
REMARK  6 active torsions:
REMARK  status: ('A' for Active; 'I' for Inactive)
REMARK    1  A    between atoms: C_1  and  S_2
REMARK    2  A    between atoms: S_2  and  C_5
REMARK    3  A    between atoms: C_5  and  C_6
REMARK    4  A    between atoms: C_9  and  C_10
REMARK    5  A    between atoms: N_12  and  C_13
REMARK    6  A    between atoms: C_13  and  C_14
REMARK                            x       y       z     vdW  Elec       q    Type
REMARK                         _______ _______ _______ _____ _____    ______ ____
ROOT
ATOM      1  C   UNL     1       5.255   4.554  17.362  0.00  0.00    +0.000 A 
ATOM      2  C   UNL     1       5.512   5.353  18.483  0.00  0.00    +0.000 A 
ATOM      3  C   UNL     1       4.476   5.731  19.339  0.00  0.00    +0.000 A 
ATOM      4  C   UNL     1       3.152   5.345  19.086  0.00  0.00    +0.000 A 
ATOM      5  C   UNL     1       2.883   4.591  17.939  0.00  0.00    +0.000 A 
ATOM      6  C   UNL     1       3.926   4.202  17.085  0.00  0.00    +0.000 A 
ENDROOT
BRANCH   4   7
ATOM      7  C   UNL     1       2.121   5.722  20.101  0.00  0.00    +0.000 C 
ATOM      8  O   UNL     1       1.465   4.842  20.655  0.00  0.00    +0.000 OA
ATOM      9  N   UNL     1       1.928   7.061  20.378  0.00  0.00    +0.000 N 
ATOM     10  H   UNL     1       2.624   7.746  20.121  0.00  0.00    +0.000 HD
BRANCH   9  11
ATOM     11  C   UNL     1       0.986   7.465  21.410  0.00  0.00    +0.000 C 
BRANCH  11  12
ATOM     12  C   UNL     1       0.912   8.978  21.612  0.00  0.00    +0.000 C 
ATOM     13  C   UNL     1      -0.220   9.471  22.496  0.00  0.00    +0.000 C 
ATOM     14  C   UNL     1      -0.239  10.936  22.132  0.00  0.00    +0.000 C 
ATOM     15  C   UNL     1       0.060  10.909  20.644  0.00  0.00    +0.000 C 
ATOM     16  O   UNL     1       0.735   9.671  20.361  0.00  0.00    +0.000 OA
ENDBRANCH  11  12
ENDBRANCH   9  11
ENDBRANCH   4   7
BRANCH   1  17
ATOM     17  C   UNL     1       6.382   4.082  16.475  0.00  0.00    +0.000 C 
BRANCH  17  19
ATOM     18  C   UNL     1       5.879   3.981  13.734  0.00  0.00    +0.000 C 
ATOM     19  S   UNL     1       6.459   5.091  14.988  0.00  0.00    +0.000 S 
ATOM     20  O   UNL     1       7.849   5.376  14.685  0.00  0.00    +0.000 OA
ATOM     21  O   UNL     1       5.476   6.153  15.078  0.00  0.00    +0.000 OA
ENDBRANCH  17  19
ENDBRANCH   1  17
TORSDOF 5
ENDMDL
MODEL 9
REMARK VINA RESULT:      -6.5      5.323      7.193
REMARK  Name = 
REMARK  6 active torsions:
REMARK  status: ('A' for Active; 'I' for Inactive)
REMARK    1  A    between atoms: C_1  and  S_2
REMARK    2  A    between atoms: S_2  and  C_5
REMARK    3  A    between atoms: C_5  and  C_6
REMARK    4  A    between atoms: C_9  and  C_10
REMARK    5  A    between atoms: N_12  and  C_13
REMARK    6  A    between atoms: C_13  and  C_14
REMARK                            x       y       z     vdW  Elec       q    Type
REMARK                         _______ _______ _______ _____ _____    ______ ____
ROOT
ATOM      1  C   UNL     1       0.349   9.834  19.746  0.00  0.00    +0.000 A 
ATOM      2  C   UNL     1       0.771   8.855  20.654  0.00  0.00    +0.000 A 
ATOM      3  C   UNL     1       1.702   7.887  20.274  0.00  0.00    +0.000 A 
ATOM      4  C   UNL     1       2.218   7.853  18.970  0.00  0.00    +0.000 A 
ATOM      5  C   UNL     1       1.760   8.797  18.045  0.00  0.00    +0.000 A 
ATOM      6  C   UNL     1       0.832   9.776  18.430  0.00  0.00    +0.000 A 
ENDROOT
BRANCH   4   7
ATOM      7  C   UNL     1       3.274   6.835  18.675  0.00  0.00    +0.000 C 
ATOM      8  O   UNL     1       3.846   6.855  17.587  0.00  0.00    +0.000 OA
ATOM      9  N   UNL     1       3.566   5.891  19.639  0.00  0.00    +0.000 N 
ATOM     10  H   UNL     1       3.288   6.031  20.599  0.00  0.00    +0.000 HD
BRANCH   9  11
ATOM     11  C   UNL     1       4.636   4.931  19.419  0.00  0.00    +0.000 C 
BRANCH  11  12
ATOM     12  C   UNL     1       4.136   3.526  19.082  0.00  0.00    +0.000 C 
ATOM     13  C   UNL     1       3.634   3.326  17.664  0.00  0.00    +0.000 C 
ATOM     14  C   UNL     1       2.868   2.034  17.818  0.00  0.00    +0.000 C 
ATOM     15  C   UNL     1       2.244   2.185  19.194  0.00  0.00    +0.000 C 
ATOM     16  O   UNL     1       3.033   3.140  19.925  0.00  0.00    +0.000 OA
ENDBRANCH  11  12
ENDBRANCH   9  11
ENDBRANCH   4   7
BRANCH   1  17
ATOM     17  C   UNL     1      -0.601  10.926  20.174  0.00  0.00    +0.000 C 
BRANCH  17  19
ATOM     18  C   UNL     1      -0.678  13.458  21.341  0.00  0.00    +0.000 C 
ATOM     19  S   UNL     1       0.127  11.888  21.509  0.00  0.00    +0.000 S 
ATOM     20  O   UNL     1       1.532  12.104  21.220  0.00  0.00    +0.000 OA
ATOM     21  O   UNL     1      -0.304  11.344  22.783  0.00  0.00    +0.000 OA
ENDBRANCH  17  19
ENDBRANCH   1  17
TORSDOF 5
ENDMDL
