MODEL 1
REMARK VINA RESULT:      -8.1      0.000      0.000
REMARK  Name = 
REMARK  8 active torsions:
REMARK  status: ('A' for Active; 'I' for Inactive)
REMARK    1  A    between atoms: C_2  and  C_3
REMARK    2  A    between atoms: C_3  and  S_4
REMARK    3  A    between atoms: S_4  and  C_5
REMARK    4  A    between atoms: N_15  and  C_16
REMARK    5  A    between atoms: C_16  and  C_17
REMARK    6  A    between atoms: C_17  and  C_18
REMARK    7  A    between atoms: N_24  and  N_25
REMARK    8  A    between atoms: C_26  and  C_28
REMARK                            x       y       z     vdW  Elec       q    Type
REMARK                         _______ _______ _______ _____ _____    ______ ____
ROOT
ATOM      1  C   UNL     1       3.277   5.901  18.043  0.00  0.00    +0.000 A 
ATOM      2  N   UNL     1       2.580   5.809  19.121  0.00  0.00    +0.000 NA
ATOM      3  C   UNL     1       2.528   4.584  19.783  0.00  0.00    +0.000 A 
ATOM      4  C   UNL     1       1.979   4.550  21.062  0.00  0.00    +0.000 A 
ATOM      5  C   UNL     1       2.118   3.413  21.859  0.00  0.00    +0.000 A 
ATOM      6  C   UNL     1       2.778   2.289  21.363  0.00  0.00    +0.000 A 
ATOM      7  C   UNL     1       3.280   2.295  20.066  0.00  0.00    +0.000 A 
ATOM      8  C   UNL     1       3.156   3.452  19.290  0.00  0.00    +0.000 A 
ATOM      9  C   UNL     1       3.781   3.542  17.971  0.00  0.00    +0.000 A 
ATOM     10  O   UNL     1       4.264   2.523  17.491  0.00  0.00    +0.000 OA
ATOM     11  N   UNL     1       3.837   4.808  17.372  0.00  0.00    +0.000 N 
ENDROOT
BRANCH   1  12
ATOM     12  S   UNL     1       3.552   7.547  17.480  0.00  0.00    +0.000 S 
BRANCH  12  13
ATOM     13  C   UNL     1       1.806   8.213  17.469  0.00  0.00    +0.000 C 
BRANCH  13  15
ATOM     14  O   UNL     1       2.423  10.549  17.773  0.00  0.00    +0.000 OA
ATOM     15  C   UNL     1       1.707   9.608  18.117  0.00  0.00    +0.000 C 
ATOM     16  N   UNL     1       0.827   9.682  19.186  0.00  0.00    +0.000 N 
ATOM     17  H   UNL     1       0.139   8.939  19.333  0.00  0.00    +0.000 HD
BRANCH  16  18
ATOM     18  N   UNL     1       0.556  10.894  19.835  0.00  0.00    +0.000 N 
ATOM     19  C   UNL     1      -0.083  10.833  21.069  0.00  0.00    +0.000 C 
ATOM     20  O   UNL     1      -0.459   9.789  21.584  0.00  0.00    +0.000 OA
ATOM     21  H   UNL     1       1.131  11.698  19.578  0.00  0.00    +0.000 HD
BRANCH  19  22
ATOM     22  C   UNL     1      -0.249  12.140  21.759  0.00  0.00    +0.000 A 
ATOM     23  C   UNL     1      -1.142  12.287  22.829  0.00  0.00    +0.000 A 
ATOM     24  C   UNL     1      -1.344  13.539  23.409  0.00  0.00    +0.000 A 
ATOM     25  C   UNL     1      -0.636  14.645  22.943  0.00  0.00    +0.000 A 
ATOM     26  C   UNL     1       0.298  14.498  21.916  0.00  0.00    +0.000 A 
ATOM     27  C   UNL     1       0.497  13.248  21.325  0.00  0.00    +0.000 A 
ENDBRANCH  19  22
ENDBRANCH  16  18
ENDBRANCH  13  15
ENDBRANCH  12  13
ENDBRANCH   1  12
BRANCH  11  28
ATOM     28  C   UNL     1       4.632   4.844  16.116  0.00  0.00    +0.000 C 
BRANCH  28  29
ATOM     29  C   UNL     1       6.141   4.523  16.291  0.00  0.00    +0.000 C 
BRANCH  29  30
ATOM     30  C   UNL     1       6.873   5.522  17.150  0.00  0.00    +0.000 A 
ATOM     31  C   UNL     1       7.439   5.188  18.384  0.00  0.00    +0.000 A 
ATOM     32  C   UNL     1       8.078   6.187  19.119  0.00  0.00    +0.000 A 
ATOM     33  C   UNL     1       8.156   7.475  18.591  0.00  0.00    +0.000 A 
ATOM     34  C   UNL     1       7.626   7.698  17.345  0.00  0.00    +0.000 A 
ATOM     35  N   UNL     1       6.982   6.765  16.614  0.00  0.00    +0.000 NA
ENDBRANCH  29  30
ENDBRANCH  28  29
ENDBRANCH  11  28
TORSDOF 8
ENDMDL
MODEL 2
REMARK VINA RESULT:      -8.1      3.821     10.824
REMARK  Name = 
REMARK  8 active torsions:
REMARK  status: ('A' for Active; 'I' for Inactive)
REMARK    1  A    between atoms: C_2  and  C_3
REMARK    2  A    between atoms: C_3  and  S_4
REMARK    3  A    between atoms: S_4  and  C_5
REMARK    4  A    between atoms: N_15  and  C_16
REMARK    5  A    between atoms: C_16  and  C_17
REMARK    6  A    between atoms: C_17  and  C_18
REMARK    7  A    between atoms: N_24  and  N_25
REMARK    8  A    between atoms: C_26  and  C_28
REMARK                            x       y       z     vdW  Elec       q    Type
REMARK                         _______ _______ _______ _____ _____    ______ ____
ROOT
ATOM      1  C   UNL     1      -1.424  11.741  19.687  0.00  0.00    +0.000 A 
ATOM      2  N   UNL     1      -1.226  10.893  18.738  0.00  0.00    +0.000 NA
ATOM      3  C   UNL     1      -2.239  10.682  17.807  0.00  0.00    +0.000 A 
ATOM      4  C   UNL     1      -1.936   9.956  16.657  0.00  0.00    +0.000 A 
ATOM      5  C   UNL     1      -2.834   9.918  15.590  0.00  0.00    +0.000 A 
ATOM      6  C   UNL     1      -4.058  10.579  15.683  0.00  0.00    +0.000 A 
ATOM      7  C   UNL     1      -4.392  11.258  16.848  0.00  0.00    +0.000 A 
ATOM      8  C   UNL     1      -3.470  11.310  17.899  0.00  0.00    +0.000 A 
ATOM      9  C   UNL     1      -3.731  12.120  19.089  0.00  0.00    +0.000 A 
ATOM     10  O   UNL     1      -4.848  12.609  19.220  0.00  0.00    +0.000 OA
ATOM     11  N   UNL     1      -2.661  12.329  19.971  0.00  0.00    +0.000 N 
ENDROOT
BRANCH   1  12
ATOM     12  S   UNL     1       0.018  12.182  20.596  0.00  0.00    +0.000 S 
BRANCH  12  13
ATOM     13  C   UNL     1      -0.016  10.903  21.957  0.00  0.00    +0.000 C 
BRANCH  13  15
ATOM     14  O   UNL     1       1.224   8.865  22.441  0.00  0.00    +0.000 OA
ATOM     15  C   UNL     1       0.776   9.634  21.590  0.00  0.00    +0.000 C 
ATOM     16  N   UNL     1       1.034   9.491  20.236  0.00  0.00    +0.000 N 
ATOM     17  H   UNL     1       0.512  10.049  19.555  0.00  0.00    +0.000 HD
BRANCH  16  18
ATOM     18  N   UNL     1       1.670   8.353  19.722  0.00  0.00    +0.000 N 
ATOM     19  C   UNL     1       2.062   8.383  18.388  0.00  0.00    +0.000 C 
ATOM     20  O   UNL     1       1.836   9.324  17.639  0.00  0.00    +0.000 OA
ATOM     21  H   UNL     1       2.129   7.734  20.393  0.00  0.00    +0.000 HD
BRANCH  19  22
ATOM     22  C   UNL     1       2.827   7.194  17.928  0.00  0.00    +0.000 A 
ATOM     23  C   UNL     1       2.361   5.894  18.168  0.00  0.00    +0.000 A 
ATOM     24  C   UNL     1       3.132   4.791  17.802  0.00  0.00    +0.000 A 
ATOM     25  C   UNL     1       4.360   4.979  17.171  0.00  0.00    +0.000 A 
ATOM     26  C   UNL     1       4.807   6.268  16.876  0.00  0.00    +0.000 A 
ATOM     27  C   UNL     1       4.042   7.376  17.248  0.00  0.00    +0.000 A 
ENDBRANCH  19  22
ENDBRANCH  16  18
ENDBRANCH  13  15
ENDBRANCH  12  13
ENDBRANCH   1  12
BRANCH  11  28
ATOM     28  C   UNL     1      -2.962  13.295  21.060  0.00  0.00    +0.000 C 
BRANCH  28  29
ATOM     29  C   UNL     1      -3.569  12.662  22.342  0.00  0.00    +0.000 C 
BRANCH  29  30
ATOM     30  C   UNL     1      -4.743  13.429  22.894  0.00  0.00    +0.000 A 
ATOM     31  C   UNL     1      -5.846  12.803  23.482  0.00  0.00    +0.000 A 
ATOM     32  C   UNL     1      -6.897  13.595  23.944  0.00  0.00    +0.000 A 
ATOM     33  C   UNL     1      -6.804  14.981  23.830  0.00  0.00    +0.000 A 
ATOM     34  C   UNL     1      -5.658  15.513  23.295  0.00  0.00    +0.000 A 
ATOM     35  N   UNL     1      -4.631  14.780  22.818  0.00  0.00    +0.000 NA
ENDBRANCH  29  30
ENDBRANCH  28  29
ENDBRANCH  11  28
TORSDOF 8
ENDMDL
MODEL 3
REMARK VINA RESULT:      -8.1      3.421     10.339
REMARK  Name = 
REMARK  8 active torsions:
REMARK  status: ('A' for Active; 'I' for Inactive)
REMARK    1  A    between atoms: C_2  and  C_3
REMARK    2  A    between atoms: C_3  and  S_4
REMARK    3  A    between atoms: S_4  and  C_5
REMARK    4  A    between atoms: N_15  and  C_16
REMARK    5  A    between atoms: C_16  and  C_17
REMARK    6  A    between atoms: C_17  and  C_18
REMARK    7  A    between atoms: N_24  and  N_25
REMARK    8  A    between atoms: C_26  and  C_28
REMARK                            x       y       z     vdW  Elec       q    Type
REMARK                         _______ _______ _______ _____ _____    ______ ____
ROOT
ATOM      1  C   UNL     1      -1.381  11.757  19.611  0.00  0.00    +0.000 A 
ATOM      2  N   UNL     1      -1.198  10.866  18.700  0.00  0.00    +0.000 NA
ATOM      3  C   UNL     1      -2.214  10.635  17.776  0.00  0.00    +0.000 A 
ATOM      4  C   UNL     1      -1.923   9.854  16.660  0.00  0.00    +0.000 A 
ATOM      5  C   UNL     1      -2.819   9.788  15.592  0.00  0.00    +0.000 A 
ATOM      6  C   UNL     1      -4.030  10.478  15.653  0.00  0.00    +0.000 A 
ATOM      7  C   UNL     1      -4.353  11.214  16.787  0.00  0.00    +0.000 A 
ATOM      8  C   UNL     1      -3.432  11.292  17.837  0.00  0.00    +0.000 A 
ATOM      9  C   UNL     1      -3.679  12.157  18.990  0.00  0.00    +0.000 A 
ATOM     10  O   UNL     1      -4.785  12.675  19.096  0.00  0.00    +0.000 OA
ATOM     11  N   UNL     1      -2.607  12.383  19.865  0.00  0.00    +0.000 N 
ENDROOT
BRANCH   1  12
ATOM     12  S   UNL     1       0.068  12.208  20.505  0.00  0.00    +0.000 S 
BRANCH  12  13
ATOM     13  C   UNL     1       0.062  10.922  21.860  0.00  0.00    +0.000 C 
BRANCH  13  15
ATOM     14  O   UNL     1       1.519   9.031  22.337  0.00  0.00    +0.000 OA
ATOM     15  C   UNL     1       0.900   9.682  21.495  0.00  0.00    +0.000 C 
ATOM     16  N   UNL     1       0.988   9.428  20.135  0.00  0.00    +0.000 N 
ATOM     17  H   UNL     1       0.336   9.881  19.488  0.00  0.00    +0.000 HD
BRANCH  16  18
ATOM     18  N   UNL     1       1.642   8.294  19.636  0.00  0.00    +0.000 N 
ATOM     19  C   UNL     1       2.111   8.346  18.328  0.00  0.00    +0.000 C 
ATOM     20  O   UNL     1       1.939   9.304  17.586  0.00  0.00    +0.000 OA
ATOM     21  H   UNL     1       2.055   7.658  20.320  0.00  0.00    +0.000 HD
BRANCH  19  22
ATOM     22  C   UNL     1       2.890   7.158  17.889  0.00  0.00    +0.000 A 
ATOM     23  C   UNL     1       2.409   5.858  18.097  0.00  0.00    +0.000 A 
ATOM     24  C   UNL     1       3.191   4.755  17.753  0.00  0.00    +0.000 A 
ATOM     25  C   UNL     1       4.445   4.944  17.176  0.00  0.00    +0.000 A 
ATOM     26  C   UNL     1       4.909   6.234  16.913  0.00  0.00    +0.000 A 
ATOM     27  C   UNL     1       4.134   7.342  17.263  0.00  0.00    +0.000 A 
ENDBRANCH  19  22
ENDBRANCH  16  18
ENDBRANCH  13  15
ENDBRANCH  12  13
ENDBRANCH   1  12
BRANCH  11  28
ATOM     28  C   UNL     1      -2.890  13.400  20.911  0.00  0.00    +0.000 C 
BRANCH  28  29
ATOM     29  C   UNL     1      -2.995  12.839  22.355  0.00  0.00    +0.000 C 
BRANCH  29  30
ATOM     30  C   UNL     1      -2.704  13.863  23.422  0.00  0.00    +0.000 A 
ATOM     31  C   UNL     1      -1.404  14.193  23.819  0.00  0.00    +0.000 A 
ATOM     32  C   UNL     1      -1.234  15.137  24.831  0.00  0.00    +0.000 A 
ATOM     33  C   UNL     1      -2.357  15.740  25.394  0.00  0.00    +0.000 A 
ATOM     34  C   UNL     1      -3.592  15.401  24.900  0.00  0.00    +0.000 A 
ATOM     35  N   UNL     1      -3.798  14.477  23.939  0.00  0.00    +0.000 NA
ENDBRANCH  29  30
ENDBRANCH  28  29
ENDBRANCH  11  28
TORSDOF 8
ENDMDL
MODEL 4
REMARK VINA RESULT:      -8.1      1.289      2.128
REMARK  Name = 
REMARK  8 active torsions:
REMARK  status: ('A' for Active; 'I' for Inactive)
REMARK    1  A    between atoms: C_2  and  C_3
REMARK    2  A    between atoms: C_3  and  S_4
REMARK    3  A    between atoms: S_4  and  C_5
REMARK    4  A    between atoms: N_15  and  C_16
REMARK    5  A    between atoms: C_16  and  C_17
REMARK    6  A    between atoms: C_17  and  C_18
REMARK    7  A    between atoms: N_24  and  N_25
REMARK    8  A    between atoms: C_26  and  C_28
REMARK                            x       y       z     vdW  Elec       q    Type
REMARK                         _______ _______ _______ _____ _____    ______ ____
ROOT
ATOM      1  C   UNL     1       3.618   6.142  18.182  0.00  0.00    +0.000 A 
ATOM      2  N   UNL     1       2.445   5.684  18.453  0.00  0.00    +0.000 NA
ATOM      3  C   UNL     1       2.337   4.542  19.242  0.00  0.00    +0.000 A 
ATOM      4  C   UNL     1       1.080   4.195  19.730  0.00  0.00    +0.000 A 
ATOM      5  C   UNL     1       0.951   3.211  20.710  0.00  0.00    +0.000 A 
ATOM      6  C   UNL     1       2.080   2.543  21.183  0.00  0.00    +0.000 A 
ATOM      7  C   UNL     1       3.333   2.844  20.661  0.00  0.00    +0.000 A 
ATOM      8  C   UNL     1       3.449   3.852  19.698  0.00  0.00    +0.000 A 
ATOM      9  C   UNL     1       4.760   4.286  19.219  0.00  0.00    +0.000 A 
ATOM     10  O   UNL     1       5.741   3.628  19.549  0.00  0.00    +0.000 OA
ATOM     11  N   UNL     1       4.810   5.464  18.460  0.00  0.00    +0.000 N 
ENDROOT
BRANCH   1  12
ATOM     12  S   UNL     1       3.636   7.755  17.477  0.00  0.00    +0.000 S 
BRANCH  12  13
ATOM     13  C   UNL     1       1.824   8.200  17.564  0.00  0.00    +0.000 C 
BRANCH  13  15
ATOM     14  O   UNL     1       2.323  10.539  18.018  0.00  0.00    +0.000 OA
ATOM     15  C   UNL     1       1.588   9.573  18.222  0.00  0.00    +0.000 C 
ATOM     16  N   UNL     1       0.551   9.597  19.142  0.00  0.00    +0.000 N 
ATOM     17  H   UNL     1      -0.132   8.835  19.162  0.00  0.00    +0.000 HD
BRANCH  16  18
ATOM     18  N   UNL     1       0.150  10.783  19.770  0.00  0.00    +0.000 N 
ATOM     19  C   UNL     1       0.415  10.911  21.130  0.00  0.00    +0.000 C 
ATOM     20  O   UNL     1       0.929  10.029  21.804  0.00  0.00    +0.000 OA
ATOM     21  H   UNL     1       0.028  11.606  19.178  0.00  0.00    +0.000 HD
BRANCH  19  22
ATOM     22  C   UNL     1       0.065  12.231  21.719  0.00  0.00    +0.000 A 
ATOM     23  C   UNL     1      -0.881  12.338  22.748  0.00  0.00    +0.000 A 
ATOM     24  C   UNL     1      -1.256  13.592  23.231  0.00  0.00    +0.000 A 
ATOM     25  C   UNL     1      -0.670  14.743  22.708  0.00  0.00    +0.000 A 
ATOM     26  C   UNL     1       0.314  14.644  21.723  0.00  0.00    +0.000 A 
ATOM     27  C   UNL     1       0.687  13.391  21.230  0.00  0.00    +0.000 A 
ENDBRANCH  19  22
ENDBRANCH  16  18
ENDBRANCH  13  15
ENDBRANCH  12  13
ENDBRANCH   1  12
BRANCH  11  28
ATOM     28  C   UNL     1       6.190   5.924  18.156  0.00  0.00    +0.000 C 
BRANCH  28  29
ATOM     29  C   UNL     1       7.102   4.856  17.493  0.00  0.00    +0.000 C 
BRANCH  29  30
ATOM     30  C   UNL     1       6.817   4.646  16.028  0.00  0.00    +0.000 A 
ATOM     31  C   UNL     1       5.763   3.852  15.568  0.00  0.00    +0.000 A 
ATOM     32  C   UNL     1       5.591   3.699  14.193  0.00  0.00    +0.000 A 
ATOM     33  C   UNL     1       6.455   4.362  13.322  0.00  0.00    +0.000 A 
ATOM     34  C   UNL     1       7.425   5.170  13.861  0.00  0.00    +0.000 A 
ATOM     35  N   UNL     1       7.635   5.325  15.184  0.00  0.00    +0.000 NA
ENDBRANCH  29  30
ENDBRANCH  28  29
ENDBRANCH  11  28
TORSDOF 8
ENDMDL
MODEL 5
REMARK VINA RESULT:      -8.1      2.197      3.051
REMARK  Name = 
REMARK  8 active torsions:
REMARK  status: ('A' for Active; 'I' for Inactive)
REMARK    1  A    between atoms: C_2  and  C_3
REMARK    2  A    between atoms: C_3  and  S_4
REMARK    3  A    between atoms: S_4  and  C_5
REMARK    4  A    between atoms: N_15  and  C_16
REMARK    5  A    between atoms: C_16  and  C_17
REMARK    6  A    between atoms: C_17  and  C_18
REMARK    7  A    between atoms: N_24  and  N_25
REMARK    8  A    between atoms: C_26  and  C_28
REMARK                            x       y       z     vdW  Elec       q    Type
REMARK                         _______ _______ _______ _____ _____    ______ ____
ROOT
ATOM      1  C   UNL     1       3.422   6.200  18.361  0.00  0.00    +0.000 A 
ATOM      2  N   UNL     1       2.287   5.706  18.715  0.00  0.00    +0.000 NA
ATOM      3  C   UNL     1       2.271   4.525  19.454  0.00  0.00    +0.000 A 
ATOM      4  C   UNL     1       1.069   4.129  20.035  0.00  0.00    +0.000 A 
ATOM      5  C   UNL     1       1.047   3.097  20.974  0.00  0.00    +0.000 A 
ATOM      6  C   UNL     1       2.225   2.431  21.308  0.00  0.00    +0.000 A 
ATOM      7  C   UNL     1       3.420   2.783  20.690  0.00  0.00    +0.000 A 
ATOM      8  C   UNL     1       3.430   3.838  19.772  0.00  0.00    +0.000 A 
ATOM      9  C   UNL     1       4.685   4.320  19.197  0.00  0.00    +0.000 A 
ATOM     10  O   UNL     1       5.703   3.669  19.404  0.00  0.00    +0.000 OA
ATOM     11  N   UNL     1       4.646   5.535  18.497  0.00  0.00    +0.000 N 
ENDROOT
BRANCH   1  12
ATOM     12  S   UNL     1       3.350   7.845  17.738  0.00  0.00    +0.000 S 
BRANCH  12  13
ATOM     13  C   UNL     1       1.517   8.188  17.857  0.00  0.00    +0.000 C 
BRANCH  13  15
ATOM     14  O   UNL     1       1.077   9.469  19.881  0.00  0.00    +0.000 OA
ATOM     15  C   UNL     1       1.211   9.469  18.656  0.00  0.00    +0.000 C 
ATOM     16  N   UNL     1       0.991  10.593  17.876  0.00  0.00    +0.000 N 
ATOM     17  H   UNL     1       1.270  10.594  16.891  0.00  0.00    +0.000 HD
BRANCH  16  18
ATOM     18  N   UNL     1       0.781  11.856  18.444  0.00  0.00    +0.000 N 
ATOM     19  C   UNL     1       1.812  12.785  18.344  0.00  0.00    +0.000 C 
ATOM     20  O   UNL     1       2.897  12.539  17.835  0.00  0.00    +0.000 OA
ATOM     21  H   UNL     1      -0.187  12.156  18.570  0.00  0.00    +0.000 HD
BRANCH  19  22
ATOM     22  C   UNL     1       1.494  14.140  18.870  0.00  0.00    +0.000 A 
ATOM     23  C   UNL     1       0.169  14.583  18.979  0.00  0.00    +0.000 A 
ATOM     24  C   UNL     1      -0.105  15.886  19.395  0.00  0.00    +0.000 A 
ATOM     25  C   UNL     1       0.941  16.744  19.730  0.00  0.00    +0.000 A 
ATOM     26  C   UNL     1       2.261  16.294  19.679  0.00  0.00    +0.000 A 
ATOM     27  C   UNL     1       2.541  14.993  19.254  0.00  0.00    +0.000 A 
ENDBRANCH  19  22
ENDBRANCH  16  18
ENDBRANCH  13  15
ENDBRANCH  12  13
ENDBRANCH   1  12
BRANCH  11  28
ATOM     28  C   UNL     1       5.985   6.037  18.091  0.00  0.00    +0.000 C 
BRANCH  28  29
ATOM     29  C   UNL     1       6.933   4.959  17.498  0.00  0.00    +0.000 C 
BRANCH  29  30
ATOM     30  C   UNL     1       6.695   4.687  16.035  0.00  0.00    +0.000 A 
ATOM     31  C   UNL     1       5.609   3.937  15.573  0.00  0.00    +0.000 A 
ATOM     32  C   UNL     1       5.484   3.718  14.201  0.00  0.00    +0.000 A 
ATOM     33  C   UNL     1       6.424   4.274  13.335  0.00  0.00    +0.000 A 
ATOM     34  C   UNL     1       7.423   5.047  13.872  0.00  0.00    +0.000 A 
ATOM     35  N   UNL     1       7.589   5.263  15.193  0.00  0.00    +0.000 NA
ENDBRANCH  29  30
ENDBRANCH  28  29
ENDBRANCH  11  28
TORSDOF 8
ENDMDL
MODEL 6
REMARK VINA RESULT:      -8.0      3.221      9.518
REMARK  Name = 
REMARK  8 active torsions:
REMARK  status: ('A' for Active; 'I' for Inactive)
REMARK    1  A    between atoms: C_2  and  C_3
REMARK    2  A    between atoms: C_3  and  S_4
REMARK    3  A    between atoms: S_4  and  C_5
REMARK    4  A    between atoms: N_15  and  C_16
REMARK    5  A    between atoms: C_16  and  C_17
REMARK    6  A    between atoms: C_17  and  C_18
REMARK    7  A    between atoms: N_24  and  N_25
REMARK    8  A    between atoms: C_26  and  C_28
REMARK                            x       y       z     vdW  Elec       q    Type
REMARK                         _______ _______ _______ _____ _____    ______ ____
ROOT
ATOM      1  C   UNL     1      -0.581  11.016  19.411  0.00  0.00    +0.000 A 
ATOM      2  N   UNL     1      -0.806  10.296  18.367  0.00  0.00    +0.000 NA
ATOM      3  C   UNL     1      -2.017  10.450  17.697  0.00  0.00    +0.000 A 
ATOM      4  C   UNL     1      -2.156   9.854  16.445  0.00  0.00    +0.000 A 
ATOM      5  C   UNL     1      -3.244  10.171  15.631  0.00  0.00    +0.000 A 
ATOM      6  C   UNL     1      -4.219  11.060  16.082  0.00  0.00    +0.000 A 
ATOM      7  C   UNL     1      -4.116  11.616  17.352  0.00  0.00    +0.000 A 
ATOM      8  C   UNL     1      -3.006  11.310  18.146  0.00  0.00    +0.000 A 
ATOM      9  C   UNL     1      -2.797  11.971  19.433  0.00  0.00    +0.000 A 
ATOM     10  O   UNL     1      -3.704  12.666  19.878  0.00  0.00    +0.000 OA
ATOM     11  N   UNL     1      -1.544  11.810  20.042  0.00  0.00    +0.000 N 
ENDROOT
BRANCH   1  12
ATOM     12  S   UNL     1       1.087  10.994  19.977  0.00  0.00    +0.000 S 
BRANCH  12  13
ATOM     13  C   UNL     1       0.907  10.032  21.569  0.00  0.00    +0.000 C 
BRANCH  13  15
ATOM     14  O   UNL     1      -0.363   7.956  21.515  0.00  0.00    +0.000 OA
ATOM     15  C   UNL     1       0.713   8.523  21.323  0.00  0.00    +0.000 C 
ATOM     16  N   UNL     1       1.871   7.844  20.977  0.00  0.00    +0.000 N 
ATOM     17  H   UNL     1       2.696   8.366  20.670  0.00  0.00    +0.000 HD
BRANCH  16  18
ATOM     18  N   UNL     1       1.856   6.485  20.640  0.00  0.00    +0.000 N 
ATOM     19  C   UNL     1       2.253   6.138  19.353  0.00  0.00    +0.000 C 
ATOM     20  O   UNL     1       2.564   6.956  18.498  0.00  0.00    +0.000 OA
ATOM     21  H   UNL     1       1.912   5.814  21.408  0.00  0.00    +0.000 HD
BRANCH  19  22
ATOM     22  C   UNL     1       2.320   4.676  19.086  0.00  0.00    +0.000 A 
ATOM     23  C   UNL     1       3.409   4.112  18.408  0.00  0.00    +0.000 A 
ATOM     24  C   UNL     1       3.414   2.752  18.094  0.00  0.00    +0.000 A 
ATOM     25  C   UNL     1       2.346   1.945  18.479  0.00  0.00    +0.000 A 
ATOM     26  C   UNL     1       1.283   2.486  19.204  0.00  0.00    +0.000 A 
ATOM     27  C   UNL     1       1.269   3.849  19.513  0.00  0.00    +0.000 A 
ENDBRANCH  19  22
ENDBRANCH  16  18
ENDBRANCH  13  15
ENDBRANCH  12  13
ENDBRANCH   1  12
BRANCH  11  28
ATOM     28  C   UNL     1      -1.356  12.645  21.257  0.00  0.00    +0.000 C 
BRANCH  28  29
ATOM     29  C   UNL     1      -1.009  14.133  20.978  0.00  0.00    +0.000 C 
BRANCH  29  30
ATOM     30  C   UNL     1       0.443  14.360  20.646  0.00  0.00    +0.000 A 
ATOM     31  C   UNL     1       0.878  14.732  19.370  0.00  0.00    +0.000 A 
ATOM     32  C   UNL     1       2.246  14.897  19.151  0.00  0.00    +0.000 A 
ATOM     33  C   UNL     1       3.130  14.715  20.213  0.00  0.00    +0.000 A 
ATOM     34  C   UNL     1       2.611  14.410  21.446  0.00  0.00    +0.000 A 
ATOM     35  N   UNL     1       1.298  14.221  21.691  0.00  0.00    +0.000 NA
ENDBRANCH  29  30
ENDBRANCH  28  29
ENDBRANCH  11  28
TORSDOF 8
ENDMDL
MODEL 7
REMARK VINA RESULT:      -8.0      5.246      8.045
REMARK  Name = 
REMARK  8 active torsions:
REMARK  status: ('A' for Active; 'I' for Inactive)
REMARK    1  A    between atoms: C_2  and  C_3
REMARK    2  A    between atoms: C_3  and  S_4
REMARK    3  A    between atoms: S_4  and  C_5
REMARK    4  A    between atoms: N_15  and  C_16
REMARK    5  A    between atoms: C_16  and  C_17
REMARK    6  A    between atoms: C_17  and  C_18
REMARK    7  A    between atoms: N_24  and  N_25
REMARK    8  A    between atoms: C_26  and  C_28
REMARK                            x       y       z     vdW  Elec       q    Type
REMARK                         _______ _______ _______ _____ _____    ______ ____
ROOT
ATOM      1  C   UNL     1       6.574   5.939  16.628  0.00  0.00    +0.000 A 
ATOM      2  N   UNL     1       7.297   6.153  15.583  0.00  0.00    +0.000 NA
ATOM      3  C   UNL     1       7.218   5.257  14.520  0.00  0.00    +0.000 A 
ATOM      4  C   UNL     1       7.809   5.617  13.311  0.00  0.00    +0.000 A 
ATOM      5  C   UNL     1       7.558   4.876  12.156  0.00  0.00    +0.000 A 
ATOM      6  C   UNL     1       6.741   3.747  12.213  0.00  0.00    +0.000 A 
ATOM      7  C   UNL     1       6.194   3.349  13.427  0.00  0.00    +0.000 A 
ATOM      8  C   UNL     1       6.432   4.118  14.571  0.00  0.00    +0.000 A 
ATOM      9  C   UNL     1       5.772   3.804  15.837  0.00  0.00    +0.000 A 
ATOM     10  O   UNL     1       5.145   2.754  15.917  0.00  0.00    +0.000 OA
ATOM     11  N   UNL     1       5.854   4.762  16.859  0.00  0.00    +0.000 N 
ENDROOT
BRANCH   1  12
ATOM     12  S   UNL     1       6.489   7.289  17.755  0.00  0.00    +0.000 S 
BRANCH  12  13
ATOM     13  C   UNL     1       8.250   7.910  17.698  0.00  0.00    +0.000 C 
BRANCH  13  15
ATOM     14  O   UNL     1       7.891  10.312  17.527  0.00  0.00    +0.000 OA
ATOM     15  C   UNL     1       8.371   9.374  18.164  0.00  0.00    +0.000 C 
ATOM     16  N   UNL     1       9.155   9.554  19.293  0.00  0.00    +0.000 N 
ATOM     17  H   UNL     1       9.395   8.751  19.880  0.00  0.00    +0.000 HD
BRANCH  16  18
ATOM     18  N   UNL     1       9.303  10.809  19.896  0.00  0.00    +0.000 N 
ATOM     19  C   UNL     1      10.462  11.525  19.614  0.00  0.00    +0.000 C 
ATOM     20  O   UNL     1      11.368  11.095  18.914  0.00  0.00    +0.000 OA
ATOM     21  H   UNL     1       8.450  11.284  20.197  0.00  0.00    +0.000 HD
BRANCH  19  22
ATOM     22  C   UNL     1      10.515  12.893  20.195  0.00  0.00    +0.000 A 
ATOM     23  C   UNL     1      11.260  13.911  19.585  0.00  0.00    +0.000 A 
ATOM     24  C   UNL     1      11.365  15.165  20.189  0.00  0.00    +0.000 A 
ATOM     25  C   UNL     1      10.705  15.416  21.390  0.00  0.00    +0.000 A 
ATOM     26  C   UNL     1       9.915  14.426  21.977  0.00  0.00    +0.000 A 
ATOM     27  C   UNL     1       9.814  13.166  21.381  0.00  0.00    +0.000 A 
ENDBRANCH  19  22
ENDBRANCH  16  18
ENDBRANCH  13  15
ENDBRANCH  12  13
ENDBRANCH   1  12
BRANCH  11  28
ATOM     28  C   UNL     1       5.021   4.444  18.048  0.00  0.00    +0.000 C 
BRANCH  28  29
ATOM     29  C   UNL     1       3.533   4.874  17.935  0.00  0.00    +0.000 C 
BRANCH  29  30
ATOM     30  C   UNL     1       2.638   4.216  18.953  0.00  0.00    +0.000 A 
ATOM     31  C   UNL     1       1.527   3.445  18.598  0.00  0.00    +0.000 A 
ATOM     32  C   UNL     1       0.743   2.894  19.612  0.00  0.00    +0.000 A 
ATOM     33  C   UNL     1       1.105   3.106  20.941  0.00  0.00    +0.000 A 
ATOM     34  C   UNL     1       2.246   3.825  21.197  0.00  0.00    +0.000 A 
ATOM     35  N   UNL     1       3.016   4.391  20.245  0.00  0.00    +0.000 NA
ENDBRANCH  29  30
ENDBRANCH  28  29
ENDBRANCH  11  28
TORSDOF 8
ENDMDL
MODEL 8
REMARK VINA RESULT:      -7.9      5.129      7.818
REMARK  Name = 
REMARK  8 active torsions:
REMARK  status: ('A' for Active; 'I' for Inactive)
REMARK    1  A    between atoms: C_2  and  C_3
REMARK    2  A    between atoms: C_3  and  S_4
REMARK    3  A    between atoms: S_4  and  C_5
REMARK    4  A    between atoms: N_15  and  C_16
REMARK    5  A    between atoms: C_16  and  C_17
REMARK    6  A    between atoms: C_17  and  C_18
REMARK    7  A    between atoms: N_24  and  N_25
REMARK    8  A    between atoms: C_26  and  C_28
REMARK                            x       y       z     vdW  Elec       q    Type
REMARK                         _______ _______ _______ _____ _____    ______ ____
ROOT
ATOM      1  C   UNL     1       6.978   5.577  17.152  0.00  0.00    +0.000 A 
ATOM      2  N   UNL     1       7.654   5.329  16.084  0.00  0.00    +0.000 NA
ATOM      3  C   UNL     1       7.007   4.730  15.006  0.00  0.00    +0.000 A 
ATOM      4  C   UNL     1       7.672   4.685  13.783  0.00  0.00    +0.000 A 
ATOM      5  C   UNL     1       6.988   4.318  12.623  0.00  0.00    +0.000 A 
ATOM      6  C   UNL     1       5.642   3.960  12.688  0.00  0.00    +0.000 A 
ATOM      7  C   UNL     1       4.987   3.948  13.914  0.00  0.00    +0.000 A 
ATOM      8  C   UNL     1       5.678   4.344  15.064  0.00  0.00    +0.000 A 
ATOM      9  C   UNL     1       4.991   4.468  16.348  0.00  0.00    +0.000 A 
ATOM     10  O   UNL     1       3.841   4.049  16.430  0.00  0.00    +0.000 OA
ATOM     11  N   UNL     1       5.678   5.114  17.386  0.00  0.00    +0.000 N 
ENDROOT
BRANCH   1  12
ATOM     12  S   UNL     1       7.787   6.628  18.310  0.00  0.00    +0.000 S 
BRANCH  12  13
ATOM     13  C   UNL     1       7.541   8.297  17.506  0.00  0.00    +0.000 C 
BRANCH  13  15
ATOM     14  O   UNL     1       9.059   9.200  19.181  0.00  0.00    +0.000 OA
ATOM     15  C   UNL     1       8.404   9.394  18.156  0.00  0.00    +0.000 C 
ATOM     16  N   UNL     1       8.296  10.640  17.557  0.00  0.00    +0.000 N 
ATOM     17  H   UNL     1       7.882  10.723  16.625  0.00  0.00    +0.000 HD
BRANCH  16  18
ATOM     18  N   UNL     1       9.075  11.728  17.972  0.00  0.00    +0.000 N 
ATOM     19  C   UNL     1       8.547  13.002  17.791  0.00  0.00    +0.000 C 
ATOM     20  O   UNL     1       7.471  13.217  17.250  0.00  0.00    +0.000 OA
ATOM     21  H   UNL     1       9.785  11.548  18.683  0.00  0.00    +0.000 HD
BRANCH  19  22
ATOM     22  C   UNL     1       9.369  14.110  18.346  0.00  0.00    +0.000 A 
ATOM     23  C   UNL     1       8.932  15.440  18.280  0.00  0.00    +0.000 A 
ATOM     24  C   UNL     1       9.754  16.473  18.731  0.00  0.00    +0.000 A 
ATOM     25  C   UNL     1      11.004  16.182  19.275  0.00  0.00    +0.000 A 
ATOM     26  C   UNL     1      11.424  14.857  19.397  0.00  0.00    +0.000 A 
ATOM     27  C   UNL     1      10.608  13.819  18.939  0.00  0.00    +0.000 A 
ENDBRANCH  19  22
ENDBRANCH  16  18
ENDBRANCH  13  15
ENDBRANCH  12  13
ENDBRANCH   1  12
BRANCH  11  28
ATOM     28  C   UNL     1       4.853   5.346  18.600  0.00  0.00    +0.000 C 
BRANCH  28  29
ATOM     29  C   UNL     1       4.758   4.133  19.565  0.00  0.00    +0.000 C 
BRANCH  29  30
ATOM     30  C   UNL     1       3.347   3.660  19.800  0.00  0.00    +0.000 A 
ATOM     31  C   UNL     1       2.876   2.426  19.342  0.00  0.00    +0.000 A 
ATOM     32  C   UNL     1       1.546   2.084  19.588  0.00  0.00    +0.000 A 
ATOM     33  C   UNL     1       0.739   2.967  20.303  0.00  0.00    +0.000 A 
ATOM     34  C   UNL     1       1.301   4.129  20.768  0.00  0.00    +0.000 A 
ATOM     35  N   UNL     1       2.575   4.504  20.532  0.00  0.00    +0.000 NA
ENDBRANCH  29  30
ENDBRANCH  28  29
ENDBRANCH  11  28
TORSDOF 8
ENDMDL
MODEL 9
REMARK VINA RESULT:      -7.9      1.918      2.762
REMARK  Name = 
REMARK  8 active torsions:
REMARK  status: ('A' for Active; 'I' for Inactive)
REMARK    1  A    between atoms: C_2  and  C_3
REMARK    2  A    between atoms: C_3  and  S_4
REMARK    3  A    between atoms: S_4  and  C_5
REMARK    4  A    between atoms: N_15  and  C_16
REMARK    5  A    between atoms: C_16  and  C_17
REMARK    6  A    between atoms: C_17  and  C_18
REMARK    7  A    between atoms: N_24  and  N_25
REMARK    8  A    between atoms: C_26  and  C_28
REMARK                            x       y       z     vdW  Elec       q    Type
REMARK                         _______ _______ _______ _____ _____    ______ ____
ROOT
ATOM      1  C   UNL     1       3.456   6.054  18.213  0.00  0.00    +0.000 A 
ATOM      2  N   UNL     1       2.305   5.573  18.534  0.00  0.00    +0.000 NA
ATOM      3  C   UNL     1       2.255   4.422  19.317  0.00  0.00    +0.000 A 
ATOM      4  C   UNL     1       1.027   4.048  19.857  0.00  0.00    +0.000 A 
ATOM      5  C   UNL     1       0.961   3.054  20.834  0.00  0.00    +0.000 A 
ATOM      6  C   UNL     1       2.122   2.403  21.249  0.00  0.00    +0.000 A 
ATOM      7  C   UNL     1       3.344   2.732  20.674  0.00  0.00    +0.000 A 
ATOM      8  C   UNL     1       3.398   3.750  19.715  0.00  0.00    +0.000 A 
ATOM      9  C   UNL     1       4.678   4.211  19.181  0.00  0.00    +0.000 A 
ATOM     10  O   UNL     1       5.685   3.570  19.460  0.00  0.00    +0.000 OA
ATOM     11  N   UNL     1       4.672   5.397  18.432  0.00  0.00    +0.000 N 
ENDROOT
BRANCH   1  12
ATOM     12  S   UNL     1       3.413   7.674  17.523  0.00  0.00    +0.000 S 
BRANCH  12  13
ATOM     13  C   UNL     1       1.750   8.273  18.129  0.00  0.00    +0.000 C 
BRANCH  13  15
ATOM     14  O   UNL     1       2.389  10.556  17.577  0.00  0.00    +0.000 OA
ATOM     15  C   UNL     1       1.692   9.806  18.262  0.00  0.00    +0.000 C 
ATOM     16  N   UNL     1       0.876  10.263  19.285  0.00  0.00    +0.000 N 
ATOM     17  H   UNL     1       0.196   9.632  19.716  0.00  0.00    +0.000 HD
BRANCH  16  18
ATOM     18  N   UNL     1       0.647  11.630  19.490  0.00  0.00    +0.000 N 
ATOM     19  C   UNL     1      -0.526  12.169  18.972  0.00  0.00    +0.000 C 
ATOM     20  O   UNL     1      -1.331  11.527  18.311  0.00  0.00    +0.000 OA
ATOM     21  H   UNL     1       1.125  12.069  20.279  0.00  0.00    +0.000 HD
BRANCH  19  22
ATOM     22  C   UNL     1      -0.769  13.597  19.312  0.00  0.00    +0.000 A 
ATOM     23  C   UNL     1      -0.129  14.628  18.611  0.00  0.00    +0.000 A 
ATOM     24  C   UNL     1      -0.306  15.957  18.999  0.00  0.00    +0.000 A 
ATOM     25  C   UNL     1      -1.141  16.264  20.071  0.00  0.00    +0.000 A 
ATOM     26  C   UNL     1      -1.827  15.248  20.739  0.00  0.00    +0.000 A 
ATOM     27  C   UNL     1      -1.647  13.915  20.361  0.00  0.00    +0.000 A 
ENDBRANCH  19  22
ENDBRANCH  16  18
ENDBRANCH  13  15
ENDBRANCH  12  13
ENDBRANCH   1  12
BRANCH  11  28
ATOM     28  C   UNL     1       6.028   5.885  18.069  0.00  0.00    +0.000 C 
BRANCH  28  29
ATOM     29  C   UNL     1       6.967   4.808  17.459  0.00  0.00    +0.000 C 
BRANCH  29  30
ATOM     30  C   UNL     1       6.756   4.591  15.983  0.00  0.00    +0.000 A 
ATOM     31  C   UNL     1       5.711   3.814  15.475  0.00  0.00    +0.000 A 
ATOM     32  C   UNL     1       5.609   3.651  14.093  0.00  0.00    +0.000 A 
ATOM     33  C   UNL     1       6.531   4.289  13.265  0.00  0.00    +0.000 A 
ATOM     34  C   UNL     1       7.487   5.082  13.847  0.00  0.00    +0.000 A 
ATOM     35  N   UNL     1       7.631   5.245  15.178  0.00  0.00    +0.000 NA
ENDBRANCH  29  30
ENDBRANCH  28  29
ENDBRANCH  11  28
TORSDOF 8
ENDMDL
