MODEL 1
REMARK VINA RESULT:      -8.0      0.000      0.000
REMARK  Name = 
REMARK  7 active torsions:
REMARK  status: ('A' for Active; 'I' for Inactive)
REMARK    1  A    between atoms: C_1  and  O_2
REMARK    2  A    between atoms: O_2  and  C_3
REMARK    3  A    between atoms: N_10  and  C_11
REMARK    4  A    between atoms: C_11  and  C_12
REMARK    5  A    between atoms: C_18  and  C_19
REMARK    6  A    between atoms: C_19  and  C_20
REMARK    7  A    between atoms: C_19  and  C_21
REMARK                            x       y       z     vdW  Elec       q    Type
REMARK                         _______ _______ _______ _____ _____    ______ ____
ROOT
ATOM      1  C   UNL     1       4.193   5.403  17.822  0.00  0.00    +0.000 C 
ATOM      2  O   UNL     1       3.584   4.489  17.263  0.00  0.00    +0.000 OA
ATOM      3  N   UNL     1       5.407   5.907  17.430  0.00  0.00    +0.000 N 
ATOM      4  C   UNL     1       6.064   5.498  16.302  0.00  0.00    +0.000 A 
ATOM      5  N   UNL     1       7.315   5.883  16.032  0.00  0.00    +0.000 NA
ATOM      6  N   UNL     1       7.552   5.247  14.871  0.00  0.00    +0.000 N 
ATOM      7  C   UNL     1       6.452   4.561  14.446  0.00  0.00    +0.000 A 
ATOM      8  N   UNL     1       5.503   4.709  15.342  0.00  0.00    +0.000 NA
ATOM      9  H   UNL     1       5.936   6.552  18.000  0.00  0.00    +0.000 HD
ATOM     10  H   UNL     1       8.464   5.326  14.435  0.00  0.00    +0.000 HD
ENDROOT
BRANCH   7  11
ATOM     11  C   UNL     1       6.388   3.790  13.168  0.00  0.00    +0.000 C 
ATOM     12  C   UNL     1       4.946   3.683  12.674  0.00  0.00    +0.000 C 
ATOM     13  C   UNL     1       7.265   4.447  12.100  0.00  0.00    +0.000 C 
ENDBRANCH   7  11
BRANCH   1  14
ATOM     14  C   UNL     1       3.521   6.069  19.002  0.00  0.00    +0.000 C 
BRANCH  14  22
ATOM     15  C   UNL     1       0.326   9.703  21.052  0.00  0.00    +0.000 A 
ATOM     16  C   UNL     1       0.734   8.506  21.636  0.00  0.00    +0.000 A 
ATOM     17  C   UNL     1       1.529   7.589  20.935  0.00  0.00    +0.000 A 
ATOM     18  C   UNL     1       1.906   7.905  19.622  0.00  0.00    +0.000 A 
ATOM     19  C   UNL     1       1.489   9.086  19.003  0.00  0.00    +0.000 A 
ATOM     20  C   UNL     1       2.023   9.087  17.687  0.00  0.00    +0.000 A 
ATOM     21  C   UNL     1       2.764   7.938  17.534  0.00  0.00    +0.000 A 
ATOM     22  N   UNL     1       2.709   7.241  18.715  0.00  0.00    +0.000 N 
ATOM     23  C   UNL     1       0.695   9.993  19.733  0.00  0.00    +0.000 A 
BRANCH  15  25
ATOM     24  C   UNL     1      -0.160  12.019  21.294  0.00  0.00    +0.000 C 
ATOM     25  O   UNL     1      -0.433  10.671  21.655  0.00  0.00    +0.000 OA
ENDBRANCH  15  25
ENDBRANCH  14  22
ENDBRANCH   1  14
TORSDOF 4
ENDMDL
MODEL 2
REMARK VINA RESULT:      -7.8      2.361      8.031
REMARK  Name = 
REMARK  7 active torsions:
REMARK  status: ('A' for Active; 'I' for Inactive)
REMARK    1  A    between atoms: C_1  and  O_2
REMARK    2  A    between atoms: O_2  and  C_3
REMARK    3  A    between atoms: N_10  and  C_11
REMARK    4  A    between atoms: C_11  and  C_12
REMARK    5  A    between atoms: C_18  and  C_19
REMARK    6  A    between atoms: C_19  and  C_20
REMARK    7  A    between atoms: C_19  and  C_21
REMARK                            x       y       z     vdW  Elec       q    Type
REMARK                         _______ _______ _______ _____ _____    ______ ____
ROOT
ATOM      1  C   UNL     1       3.031   5.824  19.459  0.00  0.00    +0.000 C 
ATOM      2  O   UNL     1       2.234   5.890  20.397  0.00  0.00    +0.000 OA
ATOM      3  N   UNL     1       3.156   6.749  18.454  0.00  0.00    +0.000 N 
ATOM      4  C   UNL     1       2.448   7.918  18.413  0.00  0.00    +0.000 A 
ATOM      5  N   UNL     1       2.466   8.721  17.344  0.00  0.00    +0.000 NA
ATOM      6  N   UNL     1       1.642   9.710  17.732  0.00  0.00    +0.000 N 
ATOM      7  C   UNL     1       1.205   9.522  19.011  0.00  0.00    +0.000 A 
ATOM      8  N   UNL     1       1.705   8.391  19.454  0.00  0.00    +0.000 NA
ATOM      9  H   UNL     1       3.717   6.582  17.631  0.00  0.00    +0.000 HD
ATOM     10  H   UNL     1       1.429  10.465  17.089  0.00  0.00    +0.000 HD
ENDROOT
BRANCH   7  11
ATOM     11  C   UNL     1       0.311  10.472  19.739  0.00  0.00    +0.000 C 
ATOM     12  C   UNL     1       0.904  11.881  19.734  0.00  0.00    +0.000 C 
ATOM     13  C   UNL     1      -1.085  10.483  19.113  0.00  0.00    +0.000 C 
ENDBRANCH   7  11
BRANCH   1  14
ATOM     14  C   UNL     1       3.996   4.660  19.447  0.00  0.00    +0.000 C 
BRANCH  14  22
ATOM     15  C   UNL     1       6.427   4.587  14.788  0.00  0.00    +0.000 A 
ATOM     16  C   UNL     1       5.184   4.044  15.104  0.00  0.00    +0.000 A 
ATOM     17  C   UNL     1       4.694   4.067  16.417  0.00  0.00    +0.000 A 
ATOM     18  C   UNL     1       5.489   4.652  17.413  0.00  0.00    +0.000 A 
ATOM     19  C   UNL     1       6.750   5.181  17.128  0.00  0.00    +0.000 A 
ATOM     20  C   UNL     1       7.290   5.672  18.347  0.00  0.00    +0.000 A 
ATOM     21  C   UNL     1       6.356   5.460  19.334  0.00  0.00    +0.000 A 
ATOM     22  N   UNL     1       5.261   4.867  18.758  0.00  0.00    +0.000 N 
ATOM     23  C   UNL     1       7.217   5.150  15.798  0.00  0.00    +0.000 A 
BRANCH  15  25
ATOM     24  C   UNL     1       6.505   3.695  12.583  0.00  0.00    +0.000 C 
ATOM     25  O   UNL     1       6.988   4.631  13.539  0.00  0.00    +0.000 OA
ENDBRANCH  15  25
ENDBRANCH  14  22
ENDBRANCH   1  14
TORSDOF 4
ENDMDL
MODEL 3
REMARK VINA RESULT:      -7.7      2.532      8.153
REMARK  Name = 
REMARK  7 active torsions:
REMARK  status: ('A' for Active; 'I' for Inactive)
REMARK    1  A    between atoms: C_1  and  O_2
REMARK    2  A    between atoms: O_2  and  C_3
REMARK    3  A    between atoms: N_10  and  C_11
REMARK    4  A    between atoms: C_11  and  C_12
REMARK    5  A    between atoms: C_18  and  C_19
REMARK    6  A    between atoms: C_19  and  C_20
REMARK    7  A    between atoms: C_19  and  C_21
REMARK                            x       y       z     vdW  Elec       q    Type
REMARK                         _______ _______ _______ _____ _____    ______ ____
ROOT
ATOM      1  C   UNL     1       2.324   6.727  19.790  0.00  0.00    +0.000 C 
ATOM      2  O   UNL     1       1.524   6.818  20.723  0.00  0.00    +0.000 OA
ATOM      3  N   UNL     1       2.464   7.633  18.770  0.00  0.00    +0.000 N 
ATOM      4  C   UNL     1       1.769   8.809  18.707  0.00  0.00    +0.000 A 
ATOM      5  N   UNL     1       1.802   9.593  17.624  0.00  0.00    +0.000 NA
ATOM      6  N   UNL     1       0.986  10.598  17.991  0.00  0.00    +0.000 N 
ATOM      7  C   UNL     1       0.542  10.436  19.271  0.00  0.00    +0.000 A 
ATOM      8  N   UNL     1       1.027   9.308  19.736  0.00  0.00    +0.000 NA
ATOM      9  H   UNL     1       3.027   7.445  17.952  0.00  0.00    +0.000 HD
ATOM     10  H   UNL     1       0.785  11.344  17.335  0.00  0.00    +0.000 HD
ENDROOT
BRANCH   7  11
ATOM     11  C   UNL     1      -0.344  11.409  19.979  0.00  0.00    +0.000 C 
ATOM     12  C   UNL     1      -1.700  11.509  19.281  0.00  0.00    +0.000 C 
ATOM     13  C   UNL     1      -0.530  11.000  21.442  0.00  0.00    +0.000 C 
ENDBRANCH   7  11
BRANCH   1  14
ATOM     14  C   UNL     1       3.277   5.552  19.802  0.00  0.00    +0.000 C 
BRANCH  14  22
ATOM     15  C   UNL     1       6.705   5.238  15.832  0.00  0.00    +0.000 A 
ATOM     16  C   UNL     1       6.654   6.205  16.833  0.00  0.00    +0.000 A 
ATOM     17  C   UNL     1       5.627   6.209  17.787  0.00  0.00    +0.000 A 
ATOM     18  C   UNL     1       4.645   5.212  17.710  0.00  0.00    +0.000 A 
ATOM     19  C   UNL     1       4.658   4.246  16.701  0.00  0.00    +0.000 A 
ATOM     20  C   UNL     1       3.527   3.409  16.899  0.00  0.00    +0.000 A 
ATOM     21  C   UNL     1       2.866   3.856  18.020  0.00  0.00    +0.000 A 
ATOM     22  N   UNL     1       3.561   4.929  18.519  0.00  0.00    +0.000 N 
ATOM     23  C   UNL     1       5.705   4.261  15.758  0.00  0.00    +0.000 A 
BRANCH  15  25
ATOM     24  C   UNL     1       7.229   4.882  13.538  0.00  0.00    +0.000 C 
ATOM     25  O   UNL     1       7.671   5.134  14.866  0.00  0.00    +0.000 OA
ENDBRANCH  15  25
ENDBRANCH  14  22
ENDBRANCH   1  14
TORSDOF 4
ENDMDL
MODEL 4
REMARK VINA RESULT:      -7.5      2.708      8.473
REMARK  Name = 
REMARK  7 active torsions:
REMARK  status: ('A' for Active; 'I' for Inactive)
REMARK    1  A    between atoms: C_1  and  O_2
REMARK    2  A    between atoms: O_2  and  C_3
REMARK    3  A    between atoms: N_10  and  C_11
REMARK    4  A    between atoms: C_11  and  C_12
REMARK    5  A    between atoms: C_18  and  C_19
REMARK    6  A    between atoms: C_19  and  C_20
REMARK    7  A    between atoms: C_19  and  C_21
REMARK                            x       y       z     vdW  Elec       q    Type
REMARK                         _______ _______ _______ _____ _____    ______ ____
ROOT
ATOM      1  C   UNL     1       2.287   7.079  19.822  0.00  0.00    +0.000 C 
ATOM      2  O   UNL     1       2.096   7.534  18.693  0.00  0.00    +0.000 OA
ATOM      3  N   UNL     1       1.929   7.689  20.998  0.00  0.00    +0.000 N 
ATOM      4  C   UNL     1       1.231   8.864  21.054  0.00  0.00    +0.000 A 
ATOM      5  N   UNL     1       1.039   9.518  22.204  0.00  0.00    +0.000 NA
ATOM      6  N   UNL     1       0.341  10.592  21.793  0.00  0.00    +0.000 N 
ATOM      7  C   UNL     1       0.080  10.534  20.455  0.00  0.00    +0.000 A 
ATOM      8  N   UNL     1       0.640   9.447  19.974  0.00  0.00    +0.000 NA
ATOM      9  H   UNL     1       2.236   7.351  21.899  0.00  0.00    +0.000 HD
ATOM     10  H   UNL     1       0.079  11.305  22.465  0.00  0.00    +0.000 HD
ENDROOT
BRANCH   7  11
ATOM     11  C   UNL     1      -0.714  11.558  19.712  0.00  0.00    +0.000 C 
ATOM     12  C   UNL     1      -1.349  10.946  18.464  0.00  0.00    +0.000 C 
ATOM     13  C   UNL     1      -1.792  12.160  20.614  0.00  0.00    +0.000 C 
ENDBRANCH   7  11
BRANCH   1  14
ATOM     14  C   UNL     1       2.914   5.706  19.923  0.00  0.00    +0.000 C 
BRANCH  14  22
ATOM     15  C   UNL     1       6.477   4.942  16.136  0.00  0.00    +0.000 A 
ATOM     16  C   UNL     1       6.476   5.936  17.111  0.00  0.00    +0.000 A 
ATOM     17  C   UNL     1       5.411   6.070  18.013  0.00  0.00    +0.000 A 
ATOM     18  C   UNL     1       4.338   5.173  17.910  0.00  0.00    +0.000 A 
ATOM     19  C   UNL     1       4.301   4.183  16.925  0.00  0.00    +0.000 A 
ATOM     20  C   UNL     1       3.083   3.469  17.086  0.00  0.00    +0.000 A 
ATOM     21  C   UNL     1       2.419   4.011  18.162  0.00  0.00    +0.000 A 
ATOM     22  N   UNL     1       3.194   5.022  18.670  0.00  0.00    +0.000 N 
ATOM     23  C   UNL     1       5.387   4.067  16.035  0.00  0.00    +0.000 A 
BRANCH  15  25
ATOM     24  C   UNL     1       7.114   4.798  13.848  0.00  0.00    +0.000 C 
ATOM     25  O   UNL     1       7.472   4.715  15.222  0.00  0.00    +0.000 OA
ENDBRANCH  15  25
ENDBRANCH  14  22
ENDBRANCH   1  14
TORSDOF 4
ENDMDL
MODEL 5
REMARK VINA RESULT:      -7.4      3.008      4.279
REMARK  Name = 
REMARK  7 active torsions:
REMARK  status: ('A' for Active; 'I' for Inactive)
REMARK    1  A    between atoms: C_1  and  O_2
REMARK    2  A    between atoms: O_2  and  C_3
REMARK    3  A    between atoms: N_10  and  C_11
REMARK    4  A    between atoms: C_11  and  C_12
REMARK    5  A    between atoms: C_18  and  C_19
REMARK    6  A    between atoms: C_19  and  C_20
REMARK    7  A    between atoms: C_19  and  C_21
REMARK                            x       y       z     vdW  Elec       q    Type
REMARK                         _______ _______ _______ _____ _____    ______ ____
ROOT
ATOM      1  C   UNL     1       6.265   4.766  16.241  0.00  0.00    +0.000 C 
ATOM      2  O   UNL     1       5.718   3.670  16.100  0.00  0.00    +0.000 OA
ATOM      3  N   UNL     1       6.974   5.432  15.274  0.00  0.00    +0.000 N 
ATOM      4  C   UNL     1       7.096   4.984  13.987  0.00  0.00    +0.000 A 
ATOM      5  N   UNL     1       7.925   5.563  13.112  0.00  0.00    +0.000 NA
ATOM      6  N   UNL     1       7.734   4.807  12.016  0.00  0.00    +0.000 N 
ATOM      7  C   UNL     1       6.779   3.856  12.227  0.00  0.00    +0.000 A 
ATOM      8  N   UNL     1       6.368   3.955  13.470  0.00  0.00    +0.000 NA
ATOM      9  H   UNL     1       7.527   6.253  15.476  0.00  0.00    +0.000 HD
ATOM     10  H   UNL     1       8.276   4.994  11.179  0.00  0.00    +0.000 HD
ENDROOT
BRANCH   7  11
ATOM     11  C   UNL     1       6.314   2.891  11.185  0.00  0.00    +0.000 C 
ATOM     12  C   UNL     1       7.108   1.588  11.265  0.00  0.00    +0.000 C 
ATOM     13  C   UNL     1       4.818   2.610  11.343  0.00  0.00    +0.000 C 
ENDBRANCH   7  11
BRANCH   1  14
ATOM     14  C   UNL     1       6.089   5.466  17.570  0.00  0.00    +0.000 C 
BRANCH  14  22
ATOM     15  C   UNL     1       1.952   3.636  20.244  0.00  0.00    +0.000 A 
ATOM     16  C   UNL     1       3.073   2.924  19.823  0.00  0.00    +0.000 A 
ATOM     17  C   UNL     1       4.068   3.528  19.042  0.00  0.00    +0.000 A 
ATOM     18  C   UNL     1       3.908   4.875  18.690  0.00  0.00    +0.000 A 
ATOM     19  C   UNL     1       2.782   5.606  19.076  0.00  0.00    +0.000 A 
ATOM     20  C   UNL     1       2.923   6.916  18.545  0.00  0.00    +0.000 A 
ATOM     21  C   UNL     1       4.123   6.970  17.875  0.00  0.00    +0.000 A 
ATOM     22  N   UNL     1       4.724   5.742  17.988  0.00  0.00    +0.000 N 
ATOM     23  C   UNL     1       1.799   4.976  19.866  0.00  0.00    +0.000 A 
BRANCH  15  25
ATOM     24  C   UNL     1       1.310   2.410  22.179  0.00  0.00    +0.000 C 
ATOM     25  O   UNL     1       0.936   3.147  21.021  0.00  0.00    +0.000 OA
ENDBRANCH  15  25
ENDBRANCH  14  22
ENDBRANCH   1  14
TORSDOF 4
ENDMDL
MODEL 6
REMARK VINA RESULT:      -7.4      1.914      2.950
REMARK  Name = 
REMARK  7 active torsions:
REMARK  status: ('A' for Active; 'I' for Inactive)
REMARK    1  A    between atoms: C_1  and  O_2
REMARK    2  A    between atoms: O_2  and  C_3
REMARK    3  A    between atoms: N_10  and  C_11
REMARK    4  A    between atoms: C_11  and  C_12
REMARK    5  A    between atoms: C_18  and  C_19
REMARK    6  A    between atoms: C_19  and  C_20
REMARK    7  A    between atoms: C_19  and  C_21
REMARK                            x       y       z     vdW  Elec       q    Type
REMARK                         _______ _______ _______ _____ _____    ______ ____
ROOT
ATOM      1  C   UNL     1       4.762   3.557  17.914  0.00  0.00    +0.000 C 
ATOM      2  O   UNL     1       3.975   3.072  17.099  0.00  0.00    +0.000 OA
ATOM      3  N   UNL     1       5.977   4.118  17.612  0.00  0.00    +0.000 N 
ATOM      4  C   UNL     1       6.435   4.277  16.333  0.00  0.00    +0.000 A 
ATOM      5  N   UNL     1       7.685   4.673  16.074  0.00  0.00    +0.000 NA
ATOM      6  N   UNL     1       7.697   4.676  14.729  0.00  0.00    +0.000 N 
ATOM      7  C   UNL     1       6.472   4.353  14.220  0.00  0.00    +0.000 A 
ATOM      8  N   UNL     1       5.665   4.096  15.223  0.00  0.00    +0.000 NA
ATOM      9  H   UNL     1       6.650   4.367  18.322  0.00  0.00    +0.000 HD
ATOM     10  H   UNL     1       8.553   4.906  14.236  0.00  0.00    +0.000 HD
ENDROOT
BRANCH   7  11
ATOM     11  C   UNL     1       6.156   4.314  12.760  0.00  0.00    +0.000 C 
ATOM     12  C   UNL     1       7.398   4.638  11.931  0.00  0.00    +0.000 C 
ATOM     13  C   UNL     1       5.600   2.944  12.368  0.00  0.00    +0.000 C 
ENDBRANCH   7  11
BRANCH   1  14
ATOM     14  C   UNL     1       4.328   3.595  19.363  0.00  0.00    +0.000 C 
BRANCH  14  22
ATOM     15  C   UNL     1       2.496   8.336  18.029  0.00  0.00    +0.000 A 
ATOM     16  C   UNL     1       3.595   7.670  17.491  0.00  0.00    +0.000 A 
ATOM     17  C   UNL     1       4.019   6.436  18.004  0.00  0.00    +0.000 A 
ATOM     18  C   UNL     1       3.309   5.885  19.080  0.00  0.00    +0.000 A 
ATOM     19  C   UNL     1       2.220   6.545  19.655  0.00  0.00    +0.000 A 
ATOM     20  C   UNL     1       1.746   5.733  20.721  0.00  0.00    +0.000 A 
ATOM     21  C   UNL     1       2.526   4.601  20.763  0.00  0.00    +0.000 A 
ATOM     22  N   UNL     1       3.451   4.687  19.753  0.00  0.00    +0.000 N 
ATOM     23  C   UNL     1       1.810   7.781  19.116  0.00  0.00    +0.000 A 
BRANCH  15  25
ATOM     24  C   UNL     1       0.809  10.002  18.227  0.00  0.00    +0.000 C 
ATOM     25  O   UNL     1       1.991   9.532  17.591  0.00  0.00    +0.000 OA
ENDBRANCH  15  25
ENDBRANCH  14  22
ENDBRANCH   1  14
TORSDOF 4
ENDMDL
MODEL 7
REMARK VINA RESULT:      -7.4      1.972      3.331
REMARK  Name = 
REMARK  7 active torsions:
REMARK  status: ('A' for Active; 'I' for Inactive)
REMARK    1  A    between atoms: C_1  and  O_2
REMARK    2  A    between atoms: O_2  and  C_3
REMARK    3  A    between atoms: N_10  and  C_11
REMARK    4  A    between atoms: C_11  and  C_12
REMARK    5  A    between atoms: C_18  and  C_19
REMARK    6  A    between atoms: C_19  and  C_20
REMARK    7  A    between atoms: C_19  and  C_21
REMARK                            x       y       z     vdW  Elec       q    Type
REMARK                         _______ _______ _______ _____ _____    ______ ____
ROOT
ATOM      1  C   UNL     1       6.205   4.178  16.749  0.00  0.00    +0.000 C 
ATOM      2  O   UNL     1       5.474   3.221  16.488  0.00  0.00    +0.000 OA
ATOM      3  N   UNL     1       6.966   4.871  15.842  0.00  0.00    +0.000 N 
ATOM      4  C   UNL     1       6.944   4.623  14.497  0.00  0.00    +0.000 A 
ATOM      5  N   UNL     1       7.813   5.196  13.658  0.00  0.00    +0.000 NA
ATOM      6  N   UNL     1       7.442   4.667  12.478  0.00  0.00    +0.000 N 
ATOM      7  C   UNL     1       6.351   3.858  12.616  0.00  0.00    +0.000 A 
ATOM      8  N   UNL     1       6.027   3.819  13.888  0.00  0.00    +0.000 NA
ATOM      9  H   UNL     1       7.659   5.549  16.122  0.00  0.00    +0.000 HD
ATOM     10  H   UNL     1       7.963   4.898  11.640  0.00  0.00    +0.000 HD
ENDROOT
BRANCH   7  11
ATOM     11  C   UNL     1       5.677   3.161  11.480  0.00  0.00    +0.000 C 
ATOM     12  C   UNL     1       5.983   1.664  11.509  0.00  0.00    +0.000 C 
ATOM     13  C   UNL     1       4.165   3.393  11.528  0.00  0.00    +0.000 C 
ENDBRANCH   7  11
BRANCH   1  14
ATOM     14  C   UNL     1       6.218   4.674  18.178  0.00  0.00    +0.000 C 
BRANCH  14  22
ATOM     15  C   UNL     1       2.204   8.056  17.937  0.00  0.00    +0.000 A 
ATOM     16  C   UNL     1       3.459   8.187  17.348  0.00  0.00    +0.000 A 
ATOM     17  C   UNL     1       4.467   7.238  17.566  0.00  0.00    +0.000 A 
ATOM     18  C   UNL     1       4.181   6.146  18.398  0.00  0.00    +0.000 A 
ATOM     19  C   UNL     1       2.940   6.004  19.022  0.00  0.00    +0.000 A 
ATOM     20  C   UNL     1       2.988   4.815  19.799  0.00  0.00    +0.000 A 
ATOM     21  C   UNL     1       4.229   4.249  19.621  0.00  0.00    +0.000 A 
ATOM     22  N   UNL     1       4.935   5.044  18.754  0.00  0.00    +0.000 N 
ATOM     23  C   UNL     1       1.942   6.970  18.781  0.00  0.00    +0.000 A 
BRANCH  15  25
ATOM     24  C   UNL     1       0.965   9.906  18.779  0.00  0.00    +0.000 C 
ATOM     25  O   UNL     1       1.148   8.915  17.775  0.00  0.00    +0.000 OA
ENDBRANCH  15  25
ENDBRANCH  14  22
ENDBRANCH   1  14
TORSDOF 4
ENDMDL
MODEL 8
REMARK VINA RESULT:      -7.3      4.774      6.974
REMARK  Name = 
REMARK  7 active torsions:
REMARK  status: ('A' for Active; 'I' for Inactive)
REMARK    1  A    between atoms: C_1  and  O_2
REMARK    2  A    between atoms: O_2  and  C_3
REMARK    3  A    between atoms: N_10  and  C_11
REMARK    4  A    between atoms: C_11  and  C_12
REMARK    5  A    between atoms: C_18  and  C_19
REMARK    6  A    between atoms: C_19  and  C_20
REMARK    7  A    between atoms: C_19  and  C_21
REMARK                            x       y       z     vdW  Elec       q    Type
REMARK                         _______ _______ _______ _____ _____    ______ ____
ROOT
ATOM      1  C   UNL     1       7.701   7.388  17.969  0.00  0.00    +0.000 C 
ATOM      2  O   UNL     1       8.283   7.045  19.000  0.00  0.00    +0.000 OA
ATOM      3  N   UNL     1       7.662   8.663  17.464  0.00  0.00    +0.000 N 
ATOM      4  C   UNL     1       8.342   9.713  18.017  0.00  0.00    +0.000 A 
ATOM      5  N   UNL     1       8.157  10.972  17.606  0.00  0.00    +0.000 NA
ATOM      6  N   UNL     1       8.993  11.648  18.414  0.00  0.00    +0.000 N 
ATOM      7  C   UNL     1       9.690  10.804  19.228  0.00  0.00    +0.000 A 
ATOM      8  N   UNL     1       9.287   9.577  18.990  0.00  0.00    +0.000 NA
ATOM      9  H   UNL     1       7.054   8.925  16.701  0.00  0.00    +0.000 HD
ATOM     10  H   UNL     1       9.037  12.659  18.354  0.00  0.00    +0.000 HD
ENDROOT
BRANCH   7  11
ATOM     11  C   UNL     1      10.727  11.251  20.206  0.00  0.00    +0.000 C 
ATOM     12  C   UNL     1      11.953  11.802  19.478  0.00  0.00    +0.000 C 
ATOM     13  C   UNL     1      10.153  12.308  21.152  0.00  0.00    +0.000 C 
ENDBRANCH   7  11
BRANCH   1  14
ATOM     14  C   UNL     1       7.027   6.306  17.156  0.00  0.00    +0.000 C 
BRANCH  14  22
ATOM     15  C   UNL     1       3.214   3.636  19.596  0.00  0.00    +0.000 A 
ATOM     16  C   UNL     1       4.559   3.289  19.491  0.00  0.00    +0.000 A 
ATOM     17  C   UNL     1       5.452   4.060  18.735  0.00  0.00    +0.000 A 
ATOM     18  C   UNL     1       4.958   5.198  18.081  0.00  0.00    +0.000 A 
ATOM     19  C   UNL     1       3.609   5.555  18.149  0.00  0.00    +0.000 A 
ATOM     20  C   UNL     1       3.441   6.731  17.370  0.00  0.00    +0.000 A 
ATOM     21  C   UNL     1       4.673   7.080  16.867  0.00  0.00    +0.000 A 
ATOM     22  N   UNL     1       5.589   6.164  17.322  0.00  0.00    +0.000 N 
ATOM     23  C   UNL     1       2.733   4.765  18.921  0.00  0.00    +0.000 A 
BRANCH  15  25
ATOM     24  C   UNL     1       0.919   3.079  19.882  0.00  0.00    +0.000 C 
ATOM     25  O   UNL     1       2.266   2.963  20.321  0.00  0.00    +0.000 OA
ENDBRANCH  15  25
ENDBRANCH  14  22
ENDBRANCH   1  14
TORSDOF 4
ENDMDL
MODEL 9
REMARK VINA RESULT:      -7.3      2.376      8.365
REMARK  Name = 
REMARK  7 active torsions:
REMARK  status: ('A' for Active; 'I' for Inactive)
REMARK    1  A    between atoms: C_1  and  O_2
REMARK    2  A    between atoms: O_2  and  C_3
REMARK    3  A    between atoms: N_10  and  C_11
REMARK    4  A    between atoms: C_11  and  C_12
REMARK    5  A    between atoms: C_18  and  C_19
REMARK    6  A    between atoms: C_19  and  C_20
REMARK    7  A    between atoms: C_19  and  C_21
REMARK                            x       y       z     vdW  Elec       q    Type
REMARK                         _______ _______ _______ _____ _____    ______ ____
ROOT
ATOM      1  C   UNL     1       3.258   6.541  19.249  0.00  0.00    +0.000 C 
ATOM      2  O   UNL     1       3.422   7.173  18.203  0.00  0.00    +0.000 OA
ATOM      3  N   UNL     1       2.449   6.920  20.290  0.00  0.00    +0.000 N 
ATOM      4  C   UNL     1       1.652   8.031  20.259  0.00  0.00    +0.000 A 
ATOM      5  N   UNL     1       1.003   8.467  21.343  0.00  0.00    +0.000 NA
ATOM      6  N   UNL     1       0.379   9.558  20.866  0.00  0.00    +0.000 N 
ATOM      7  C   UNL     1       0.607   9.719  19.530  0.00  0.00    +0.000 A 
ATOM      8  N   UNL     1       1.413   8.761  19.133  0.00  0.00    +0.000 NA
ATOM      9  H   UNL     1       2.459   6.448  21.183  0.00  0.00    +0.000 HD
ATOM     10  H   UNL     1      -0.176  10.132  21.492  0.00  0.00    +0.000 HD
ENDROOT
BRANCH   7  11
ATOM     11  C   UNL     1       0.015  10.815  18.705  0.00  0.00    +0.000 C 
ATOM     12  C   UNL     1      -1.493  10.906  18.933  0.00  0.00    +0.000 C 
ATOM     13  C   UNL     1       0.682  12.152  19.031  0.00  0.00    +0.000 C 
ENDBRANCH   7  11
BRANCH   1  14
ATOM     14  C   UNL     1       3.955   5.204  19.371  0.00  0.00    +0.000 C 
BRANCH  14  22
ATOM     15  C   UNL     1       6.512   4.392  14.852  0.00  0.00    +0.000 A 
ATOM     16  C   UNL     1       5.164   4.159  15.118  0.00  0.00    +0.000 A 
ATOM     17  C   UNL     1       4.633   4.346  16.402  0.00  0.00    +0.000 A 
ATOM     18  C   UNL     1       5.496   4.775  17.421  0.00  0.00    +0.000 A 
ATOM     19  C   UNL     1       6.856   4.990  17.188  0.00  0.00    +0.000 A 
ATOM     20  C   UNL     1       7.439   5.394  18.419  0.00  0.00    +0.000 A 
ATOM     21  C   UNL     1       6.438   5.440  19.361  0.00  0.00    +0.000 A 
ATOM     22  N   UNL     1       5.263   5.090  18.745  0.00  0.00    +0.000 N 
ATOM     23  C   UNL     1       7.363   4.800  15.886  0.00  0.00    +0.000 A 
BRANCH  15  25
ATOM     24  C   UNL     1       6.353   3.679  12.588  0.00  0.00    +0.000 C 
ATOM     25  O   UNL     1       7.124   4.257  13.634  0.00  0.00    +0.000 OA
ENDBRANCH  15  25
ENDBRANCH  14  22
ENDBRANCH   1  14
TORSDOF 4
ENDMDL
