MODEL 1
REMARK VINA RESULT:      -8.0      0.000      0.000
REMARK  Name = 
REMARK  9 active torsions:
REMARK  status: ('A' for Active; 'I' for Inactive)
REMARK    1  A    between atoms: C_1  and  C_2
REMARK    2  A    between atoms: C_2  and  C_3
REMARK    3  A    between atoms: C_2  and  C_4
REMARK    4  A    between atoms: C_2  and  C_5
REMARK    5  A    between atoms: C_8  and  C_9
REMARK    6  A    between atoms: C_9  and  N_10
REMARK    7  A    between atoms: N_10  and  C_11
REMARK    8  A    between atoms: C_11  and  C_12
REMARK    9  A    between atoms: C_15  and  C_16
REMARK                            x       y       z     vdW  Elec       q    Type
REMARK                         _______ _______ _______ _____ _____    ______ ____
ROOT
ATOM      1  C   UNL     1       8.093   7.810  17.271  0.00  0.00    +0.000 C 
ENDROOT
BRANCH   1   2
ATOM      2  C   UNL     1       7.304   6.764  17.978  0.00  0.00    +0.000 A 
ATOM      3  C   UNL     1       7.684   5.935  19.008  0.00  0.00    +0.000 A 
ATOM      4  O   UNL     1       6.629   5.135  19.323  0.00  0.00    +0.000 OA
ATOM      5  C   UNL     1       5.638   5.517  18.451  0.00  0.00    +0.000 A 
ATOM      6  N   UNL     1       5.994   6.498  17.643  0.00  0.00    +0.000 NA
BRANCH   5   7
ATOM      7  C   UNL     1       4.384   4.773  18.545  0.00  0.00    +0.000 A 
ATOM      8  C   UNL     1       4.415   3.394  18.835  0.00  0.00    +0.000 A 
ATOM      9  C   UNL     1       3.238   2.643  18.921  0.00  0.00    +0.000 A 
ATOM     10  C   UNL     1       2.010   3.261  18.718  0.00  0.00    +0.000 A 
ATOM     11 CL   UNL     1       0.562   2.339  18.809  0.00  0.00    +0.000 Cl
ATOM     12  C   UNL     1       1.948   4.622  18.434  0.00  0.00    +0.000 A 
ATOM     13  C   UNL     1       3.126   5.376  18.347  0.00  0.00    +0.000 A 
ATOM     14 CL   UNL     1       2.932   7.048  17.941  0.00  0.00    +0.000 Cl
ENDBRANCH   5   7
ENDBRANCH   1   2
BRANCH   1  15
ATOM     15  N   UNL     1       7.861   9.087  17.941  0.00  0.00    +0.000 NA
ATOM     16  H   UNL     1       7.897   9.827  17.238  0.00  0.00    +0.000 HD
BRANCH  15  17
ATOM     17  C   UNL     1       8.881   9.352  18.953  0.00  0.00    +0.000 C 
BRANCH  17  21
ATOM     18  C   UNL     1      10.337  13.447  18.588  0.00  0.00    +0.000 A 
ATOM     19  C   UNL     1       9.350  12.937  17.732  0.00  0.00    +0.000 A 
ATOM     20  C   UNL     1       8.885  11.624  17.856  0.00  0.00    +0.000 A 
ATOM     21  C   UNL     1       9.395  10.767  18.837  0.00  0.00    +0.000 A 
ATOM     22  C   UNL     1      10.376  11.261  19.701  0.00  0.00    +0.000 A 
ATOM     23  C   UNL     1      10.838  12.579  19.577  0.00  0.00    +0.000 A 
BRANCH  18  25
ATOM     24  C   UNL     1      11.271  15.278  17.025  0.00  0.00    +0.000 C 
ATOM     25  C   UNL     1      10.872  14.884  18.467  0.00  0.00    +0.000 C 
ATOM     26  C   UNL     1      12.128  15.045  19.349  0.00  0.00    +0.000 C 
ATOM     27  C   UNL     1       9.796  15.891  18.930  0.00  0.00    +0.000 C 
ENDBRANCH  18  25
ENDBRANCH  17  21
ENDBRANCH  15  17
ENDBRANCH   1  15
TORSDOF 6
ENDMDL
MODEL 2
REMARK VINA RESULT:      -7.8      1.125      1.507
REMARK  Name = 
REMARK  9 active torsions:
REMARK  status: ('A' for Active; 'I' for Inactive)
REMARK    1  A    between atoms: C_1  and  C_2
REMARK    2  A    between atoms: C_2  and  C_3
REMARK    3  A    between atoms: C_2  and  C_4
REMARK    4  A    between atoms: C_2  and  C_5
REMARK    5  A    between atoms: C_8  and  C_9
REMARK    6  A    between atoms: C_9  and  N_10
REMARK    7  A    between atoms: N_10  and  C_11
REMARK    8  A    between atoms: C_11  and  C_12
REMARK    9  A    between atoms: C_15  and  C_16
REMARK                            x       y       z     vdW  Elec       q    Type
REMARK                         _______ _______ _______ _____ _____    ______ ____
ROOT
ATOM      1  C   UNL     1       8.167   8.043  17.323  0.00  0.00    +0.000 C 
ENDROOT
BRANCH   1   2
ATOM      2  C   UNL     1       7.397   6.947  17.973  0.00  0.00    +0.000 A 
ATOM      3  C   UNL     1       7.795   6.067  18.952  0.00  0.00    +0.000 A 
ATOM      4  O   UNL     1       6.754   5.235  19.227  0.00  0.00    +0.000 OA
ATOM      5  C   UNL     1       5.752   5.652  18.384  0.00  0.00    +0.000 A 
ATOM      6  N   UNL     1       6.089   6.683  17.631  0.00  0.00    +0.000 NA
BRANCH   5   7
ATOM      7  C   UNL     1       4.509   4.886  18.442  0.00  0.00    +0.000 A 
ATOM      8  C   UNL     1       3.736   4.905  19.621  0.00  0.00    +0.000 A 
ATOM      9  C   UNL     1       2.546   4.177  19.721  0.00  0.00    +0.000 A 
ATOM     10  C   UNL     1       2.111   3.416  18.643  0.00  0.00    +0.000 A 
ATOM     11 CL   UNL     1       0.656   2.508  18.767  0.00  0.00    +0.000 Cl
ATOM     12  C   UNL     1       2.851   3.381  17.465  0.00  0.00    +0.000 A 
ATOM     13  C   UNL     1       4.043   4.111  17.362  0.00  0.00    +0.000 A 
ATOM     14 CL   UNL     1       4.905   3.954  15.868  0.00  0.00    +0.000 Cl
ENDBRANCH   5   7
ENDBRANCH   1   2
BRANCH   1  15
ATOM     15  N   UNL     1       7.962   9.266  18.095  0.00  0.00    +0.000 NA
ATOM     16  H   UNL     1       7.941  10.054  17.446  0.00  0.00    +0.000 HD
BRANCH  15  17
ATOM     17  C   UNL     1       9.045   9.478  19.053  0.00  0.00    +0.000 C 
BRANCH  17  21
ATOM     18  C   UNL     1      10.604  13.538  18.717  0.00  0.00    +0.000 A 
ATOM     19  C   UNL     1      10.664  12.634  17.646  0.00  0.00    +0.000 A 
ATOM     20  C   UNL     1      10.159  11.335  17.758  0.00  0.00    +0.000 A 
ATOM     21  C   UNL     1       9.582  10.886  18.951  0.00  0.00    +0.000 A 
ATOM     22  C   UNL     1       9.511  11.775  20.027  0.00  0.00    +0.000 A 
ATOM     23  C   UNL     1      10.014  13.078  19.910  0.00  0.00    +0.000 A 
BRANCH  18  25
ATOM     24  C   UNL     1      12.208  15.301  19.708  0.00  0.00    +0.000 C 
ATOM     25  C   UNL     1      11.160  14.969  18.621  0.00  0.00    +0.000 C 
ATOM     26  C   UNL     1      10.005  15.983  18.772  0.00  0.00    +0.000 C 
ATOM     27  C   UNL     1      11.843  15.181  17.253  0.00  0.00    +0.000 C 
ENDBRANCH  18  25
ENDBRANCH  17  21
ENDBRANCH  15  17
ENDBRANCH   1  15
TORSDOF 6
ENDMDL
MODEL 3
REMARK VINA RESULT:      -7.8      1.208      1.627
REMARK  Name = 
REMARK  9 active torsions:
REMARK  status: ('A' for Active; 'I' for Inactive)
REMARK    1  A    between atoms: C_1  and  C_2
REMARK    2  A    between atoms: C_2  and  C_3
REMARK    3  A    between atoms: C_2  and  C_4
REMARK    4  A    between atoms: C_2  and  C_5
REMARK    5  A    between atoms: C_8  and  C_9
REMARK    6  A    between atoms: C_9  and  N_10
REMARK    7  A    between atoms: N_10  and  C_11
REMARK    8  A    between atoms: C_11  and  C_12
REMARK    9  A    between atoms: C_15  and  C_16
REMARK                            x       y       z     vdW  Elec       q    Type
REMARK                         _______ _______ _______ _____ _____    ______ ____
ROOT
ATOM      1  C   UNL     1       8.106   7.968  17.256  0.00  0.00    +0.000 C 
ENDROOT
BRANCH   1   2
ATOM      2  C   UNL     1       7.336   6.883  17.924  0.00  0.00    +0.000 A 
ATOM      3  C   UNL     1       7.742   6.000  18.897  0.00  0.00    +0.000 A 
ATOM      4  O   UNL     1       6.696   5.182  19.195  0.00  0.00    +0.000 OA
ATOM      5  C   UNL     1       5.683   5.609  18.370  0.00  0.00    +0.000 A 
ATOM      6  N   UNL     1       6.017   6.634  17.608  0.00  0.00    +0.000 NA
BRANCH   5   7
ATOM      7  C   UNL     1       4.432   4.858  18.454  0.00  0.00    +0.000 A 
ATOM      8  C   UNL     1       3.657   4.931  19.630  0.00  0.00    +0.000 A 
ATOM      9  C   UNL     1       2.459   4.219  19.756  0.00  0.00    +0.000 A 
ATOM     10  C   UNL     1       2.018   3.422  18.706  0.00  0.00    +0.000 A 
ATOM     11 CL   UNL     1       0.554   2.535  18.861  0.00  0.00    +0.000 Cl
ATOM     12  C   UNL     1       2.760   3.335  17.532  0.00  0.00    +0.000 A 
ATOM     13  C   UNL     1       3.960   4.048  17.404  0.00  0.00    +0.000 A 
ATOM     14 CL   UNL     1       4.823   3.826  15.919  0.00  0.00    +0.000 Cl
ENDBRANCH   5   7
ENDBRANCH   1   2
BRANCH   1  15
ATOM     15  N   UNL     1       7.944   9.191  18.037  0.00  0.00    +0.000 NA
ATOM     16  H   UNL     1       8.046   9.988  17.407  0.00  0.00    +0.000 HD
BRANCH  15  17
ATOM     17  C   UNL     1       8.955   9.291  19.087  0.00  0.00    +0.000 C 
BRANCH  17  21
ATOM     18  C   UNL     1      10.355  13.396  19.550  0.00  0.00    +0.000 A 
ATOM     19  C   UNL     1      10.249  12.525  20.645  0.00  0.00    +0.000 A 
ATOM     20  C   UNL     1       9.803  11.209  20.489  0.00  0.00    +0.000 A 
ATOM     21  C   UNL     1       9.437  10.715  19.233  0.00  0.00    +0.000 A 
ATOM     22  C   UNL     1       9.541  11.568  18.131  0.00  0.00    +0.000 A 
ATOM     23  C   UNL     1       9.992  12.886  18.288  0.00  0.00    +0.000 A 
BRANCH  18  25
ATOM     24  C   UNL     1      10.074  15.848  18.791  0.00  0.00    +0.000 C 
ATOM     25  C   UNL     1      10.835  14.850  19.696  0.00  0.00    +0.000 C 
ATOM     26  C   UNL     1      12.330  14.941  19.322  0.00  0.00    +0.000 C 
ATOM     27  C   UNL     1      10.648  15.326  21.152  0.00  0.00    +0.000 C 
ENDBRANCH  18  25
ENDBRANCH  17  21
ENDBRANCH  15  17
ENDBRANCH   1  15
TORSDOF 6
ENDMDL
MODEL 4
REMARK VINA RESULT:      -7.6      1.741      2.123
REMARK  Name = 
REMARK  9 active torsions:
REMARK  status: ('A' for Active; 'I' for Inactive)
REMARK    1  A    between atoms: C_1  and  C_2
REMARK    2  A    between atoms: C_2  and  C_3
REMARK    3  A    between atoms: C_2  and  C_4
REMARK    4  A    between atoms: C_2  and  C_5
REMARK    5  A    between atoms: C_8  and  C_9
REMARK    6  A    between atoms: C_9  and  N_10
REMARK    7  A    between atoms: N_10  and  C_11
REMARK    8  A    between atoms: C_11  and  C_12
REMARK    9  A    between atoms: C_15  and  C_16
REMARK                            x       y       z     vdW  Elec       q    Type
REMARK                         _______ _______ _______ _____ _____    ______ ____
ROOT
ATOM      1  C   UNL     1       7.602   7.317  17.021  0.00  0.00    +0.000 C 
ENDROOT
BRANCH   1   2
ATOM      2  C   UNL     1       6.240   6.753  17.233  0.00  0.00    +0.000 A 
ATOM      3  C   UNL     1       5.106   6.910  16.472  0.00  0.00    +0.000 A 
ATOM      4  O   UNL     1       4.097   6.213  17.062  0.00  0.00    +0.000 OA
ATOM      5  C   UNL     1       4.673   5.656  18.178  0.00  0.00    +0.000 A 
ATOM      6  N   UNL     1       5.956   5.939  18.308  0.00  0.00    +0.000 NA
BRANCH   5   7
ATOM      7  C   UNL     1       3.782   4.875  19.034  0.00  0.00    +0.000 A 
ATOM      8  C   UNL     1       3.154   5.498  20.133  0.00  0.00    +0.000 A 
ATOM      9  C   UNL     1       2.304   4.783  20.984  0.00  0.00    +0.000 A 
ATOM     10  C   UNL     1       2.070   3.434  20.749  0.00  0.00    +0.000 A 
ATOM     11 CL   UNL     1       1.037   2.549  21.800  0.00  0.00    +0.000 Cl
ATOM     12  C   UNL     1       2.673   2.794  19.670  0.00  0.00    +0.000 A 
ATOM     13  C   UNL     1       3.524   3.508  18.816  0.00  0.00    +0.000 A 
ATOM     14 CL   UNL     1       4.257   2.600  17.537  0.00  0.00    +0.000 Cl
ENDBRANCH   5   7
ENDBRANCH   1   2
BRANCH   1  15
ATOM     15  N   UNL     1       7.655   8.632  17.656  0.00  0.00    +0.000 NA
ATOM     16  H   UNL     1       7.925   9.317  16.949  0.00  0.00    +0.000 HD
BRANCH  15  17
ATOM     17  C   UNL     1       8.637   8.662  18.738  0.00  0.00    +0.000 C 
BRANCH  17  21
ATOM     18  C   UNL     1      10.045  12.739  19.384  0.00  0.00    +0.000 A 
ATOM     19  C   UNL     1       9.611  12.300  18.124  0.00  0.00    +0.000 A 
ATOM     20  C   UNL     1       9.157  10.993  17.924  0.00  0.00    +0.000 A 
ATOM     21  C   UNL     1       9.128  10.071  18.976  0.00  0.00    +0.000 A 
ATOM     22  C   UNL     1       9.553  10.493  20.238  0.00  0.00    +0.000 A 
ATOM     23  C   UNL     1      10.004  11.805  20.437  0.00  0.00    +0.000 A 
BRANCH  18  25
ATOM     24  C   UNL     1      12.083  14.324  19.430  0.00  0.00    +0.000 C 
ATOM     25  C   UNL     1      10.556  14.170  19.628  0.00  0.00    +0.000 C 
ATOM     26  C   UNL     1      10.237  14.592  21.077  0.00  0.00    +0.000 C 
ATOM     27  C   UNL     1       9.872  15.151  18.652  0.00  0.00    +0.000 C 
ENDBRANCH  18  25
ENDBRANCH  17  21
ENDBRANCH  15  17
ENDBRANCH   1  15
TORSDOF 6
ENDMDL
MODEL 5
REMARK VINA RESULT:      -7.5      1.682      2.413
REMARK  Name = 
REMARK  9 active torsions:
REMARK  status: ('A' for Active; 'I' for Inactive)
REMARK    1  A    between atoms: C_1  and  C_2
REMARK    2  A    between atoms: C_2  and  C_3
REMARK    3  A    between atoms: C_2  and  C_4
REMARK    4  A    between atoms: C_2  and  C_5
REMARK    5  A    between atoms: C_8  and  C_9
REMARK    6  A    between atoms: C_9  and  N_10
REMARK    7  A    between atoms: N_10  and  C_11
REMARK    8  A    between atoms: C_11  and  C_12
REMARK    9  A    between atoms: C_15  and  C_16
REMARK                            x       y       z     vdW  Elec       q    Type
REMARK                         _______ _______ _______ _____ _____    ______ ____
ROOT
ATOM      1  C   UNL     1       7.573   6.997  17.057  0.00  0.00    +0.000 C 
ENDROOT
BRANCH   1   2
ATOM      2  C   UNL     1       6.192   6.495  17.302  0.00  0.00    +0.000 A 
ATOM      3  C   UNL     1       5.043   6.723  16.582  0.00  0.00    +0.000 A 
ATOM      4  O   UNL     1       4.020   6.063  17.190  0.00  0.00    +0.000 OA
ATOM      5  C   UNL     1       4.603   5.456  18.276  0.00  0.00    +0.000 A 
ATOM      6  N   UNL     1       5.902   5.674  18.371  0.00  0.00    +0.000 NA
BRANCH   5   7
ATOM      7  C   UNL     1       3.703   4.702  19.146  0.00  0.00    +0.000 A 
ATOM      8  C   UNL     1       3.125   5.337  20.265  0.00  0.00    +0.000 A 
ATOM      9  C   UNL     1       2.268   4.647  21.129  0.00  0.00    +0.000 A 
ATOM     10  C   UNL     1       1.976   3.310  20.887  0.00  0.00    +0.000 A 
ATOM     11 CL   UNL     1       0.934   2.456  21.954  0.00  0.00    +0.000 Cl
ATOM     12  C   UNL     1       2.528   2.659  19.788  0.00  0.00    +0.000 A 
ATOM     13  C   UNL     1       3.386   3.348  18.921  0.00  0.00    +0.000 A 
ATOM     14 CL   UNL     1       4.053   2.425  17.617  0.00  0.00    +0.000 Cl
ENDBRANCH   5   7
ENDBRANCH   1   2
BRANCH   1  15
ATOM     15  N   UNL     1       7.610   8.416  17.402  0.00  0.00    +0.000 NA
ATOM     16  H   UNL     1       7.995   8.928  16.607  0.00  0.00    +0.000 HD
BRANCH  15  17
ATOM     17  C   UNL     1       8.456   8.659  18.569  0.00  0.00    +0.000 C 
BRANCH  17  21
ATOM     18  C   UNL     1       9.810  12.801  18.713  0.00  0.00    +0.000 A 
ATOM     19  C   UNL     1      10.312  11.831  19.593  0.00  0.00    +0.000 A 
ATOM     20  C   UNL     1       9.876  10.503  19.539  0.00  0.00    +0.000 A 
ATOM     21  C   UNL     1       8.914  10.097  18.608  0.00  0.00    +0.000 A 
ATOM     22  C   UNL     1       8.407  11.050  17.721  0.00  0.00    +0.000 A 
ATOM     23  C   UNL     1       8.849  12.379  17.774  0.00  0.00    +0.000 A 
BRANCH  18  25
ATOM     24  C   UNL     1      11.107  14.621  20.007  0.00  0.00    +0.000 C 
ATOM     25  C   UNL     1      10.267  14.270  18.757  0.00  0.00    +0.000 C 
ATOM     26  C   UNL     1       9.031  15.195  18.760  0.00  0.00    +0.000 C 
ATOM     27  C   UNL     1      11.136  14.592  17.522  0.00  0.00    +0.000 C 
ENDBRANCH  18  25
ENDBRANCH  17  21
ENDBRANCH  15  17
ENDBRANCH   1  15
TORSDOF 6
ENDMDL
MODEL 6
REMARK VINA RESULT:      -7.4      6.862     10.226
REMARK  Name = 
REMARK  9 active torsions:
REMARK  status: ('A' for Active; 'I' for Inactive)
REMARK    1  A    between atoms: C_1  and  C_2
REMARK    2  A    between atoms: C_2  and  C_3
REMARK    3  A    between atoms: C_2  and  C_4
REMARK    4  A    between atoms: C_2  and  C_5
REMARK    5  A    between atoms: C_8  and  C_9
REMARK    6  A    between atoms: C_9  and  N_10
REMARK    7  A    between atoms: N_10  and  C_11
REMARK    8  A    between atoms: C_11  and  C_12
REMARK    9  A    between atoms: C_15  and  C_16
REMARK                            x       y       z     vdW  Elec       q    Type
REMARK                         _______ _______ _______ _____ _____    ______ ____
ROOT
ATOM      1  C   UNL     1       0.443   9.835  19.641  0.00  0.00    +0.000 C 
ENDROOT
BRANCH   1   2
ATOM      2  C   UNL     1       1.328   8.640  19.562  0.00  0.00    +0.000 A 
ATOM      3  C   UNL     1       1.753   7.805  20.568  0.00  0.00    +0.000 A 
ATOM      4  O   UNL     1       2.558   6.854  20.022  0.00  0.00    +0.000 OA
ATOM      5  C   UNL     1       2.589   7.161  18.683  0.00  0.00    +0.000 A 
ATOM      6  N   UNL     1       1.855   8.210  18.363  0.00  0.00    +0.000 NA
BRANCH   5   7
ATOM      7  C   UNL     1       3.434   6.306  17.851  0.00  0.00    +0.000 A 
ATOM      8  C   UNL     1       4.558   6.859  17.204  0.00  0.00    +0.000 A 
ATOM      9  C   UNL     1       5.385   6.078  16.390  0.00  0.00    +0.000 A 
ATOM     10  C   UNL     1       5.099   4.730  16.210  0.00  0.00    +0.000 A 
ATOM     11 CL   UNL     1       6.105   3.770  15.198  0.00  0.00    +0.000 Cl
ATOM     12  C   UNL     1       3.999   4.155  16.838  0.00  0.00    +0.000 A 
ATOM     13  C   UNL     1       3.169   4.936  17.655  0.00  0.00    +0.000 A 
ATOM     14 CL   UNL     1       1.803   4.128  18.347  0.00  0.00    +0.000 Cl
ENDBRANCH   5   7
ENDBRANCH   1   2
BRANCH   1  15
ATOM     15  N   UNL     1       0.540  10.559  18.376  0.00  0.00    +0.000 NA
ATOM     16  H   UNL     1       1.523  10.587  18.100  0.00  0.00    +0.000 HD
BRANCH  15  17
ATOM     17  C   UNL     1       0.051  11.930  18.508  0.00  0.00    +0.000 C 
BRANCH  17  21
ATOM     18  C   UNL     1      -4.285  12.014  18.969  0.00  0.00    +0.000 A 
ATOM     19  C   UNL     1      -3.430  12.553  19.941  0.00  0.00    +0.000 A 
ATOM     20  C   UNL     1      -2.040  12.526  19.786  0.00  0.00    +0.000 A 
ATOM     21  C   UNL     1      -1.452  11.951  18.655  0.00  0.00    +0.000 A 
ATOM     22  C   UNL     1      -2.289  11.413  17.674  0.00  0.00    +0.000 A 
ATOM     23  C   UNL     1      -3.682  11.445  17.830  0.00  0.00    +0.000 A 
BRANCH  18  25
ATOM     24  C   UNL     1      -6.498  13.238  18.447  0.00  0.00    +0.000 C 
ATOM     25  C   UNL     1      -5.816  12.023  19.120  0.00  0.00    +0.000 C 
ATOM     26  C   UNL     1      -6.187  12.060  20.618  0.00  0.00    +0.000 C 
ATOM     27  C   UNL     1      -6.419  10.754  18.480  0.00  0.00    +0.000 C 
ENDBRANCH  18  25
ENDBRANCH  17  21
ENDBRANCH  15  17
ENDBRANCH   1  15
TORSDOF 6
ENDMDL
MODEL 7
REMARK VINA RESULT:      -7.4      4.070     10.452
REMARK  Name = 
REMARK  9 active torsions:
REMARK  status: ('A' for Active; 'I' for Inactive)
REMARK    1  A    between atoms: C_1  and  C_2
REMARK    2  A    between atoms: C_2  and  C_3
REMARK    3  A    between atoms: C_2  and  C_4
REMARK    4  A    between atoms: C_2  and  C_5
REMARK    5  A    between atoms: C_8  and  C_9
REMARK    6  A    between atoms: C_9  and  N_10
REMARK    7  A    between atoms: N_10  and  C_11
REMARK    8  A    between atoms: C_11  and  C_12
REMARK    9  A    between atoms: C_15  and  C_16
REMARK                            x       y       z     vdW  Elec       q    Type
REMARK                         _______ _______ _______ _____ _____    ______ ____
ROOT
ATOM      1  C   UNL     1       7.569   8.500  17.618  0.00  0.00    +0.000 C 
ENDROOT
BRANCH   1   2
ATOM      2  C   UNL     1       8.332   9.681  18.109  0.00  0.00    +0.000 A 
ATOM      3  C   UNL     1       9.222   9.769  19.153  0.00  0.00    +0.000 A 
ATOM      4  O   UNL     1       9.662  11.055  19.232  0.00  0.00    +0.000 OA
ATOM      5  C   UNL     1       9.003  11.704  18.215  0.00  0.00    +0.000 A 
ATOM      6  N   UNL     1       8.213  10.917  17.509  0.00  0.00    +0.000 NA
BRANCH   5   7
ATOM      7  C   UNL     1       9.264  13.137  18.098  0.00  0.00    +0.000 A 
ATOM      8  C   UNL     1       8.221  14.054  18.344  0.00  0.00    +0.000 A 
ATOM      9  C   UNL     1       8.426  15.434  18.232  0.00  0.00    +0.000 A 
ATOM     10  C   UNL     1       9.677  15.917  17.870  0.00  0.00    +0.000 A 
ATOM     11 CL   UNL     1       9.929  17.611  17.717  0.00  0.00    +0.000 Cl
ATOM     12  C   UNL     1      10.726  15.036  17.625  0.00  0.00    +0.000 A 
ATOM     13  C   UNL     1      10.524  13.654  17.738  0.00  0.00    +0.000 A 
ATOM     14 CL   UNL     1      11.885  12.651  17.362  0.00  0.00    +0.000 Cl
ENDBRANCH   5   7
ENDBRANCH   1   2
BRANCH   1  15
ATOM     15  N   UNL     1       8.047   7.319  18.332  0.00  0.00    +0.000 NA
ATOM     16  H   UNL     1       9.062   7.392  18.426  0.00  0.00    +0.000 HD
BRANCH  15  17
ATOM     17  C   UNL     1       7.732   6.092  17.605  0.00  0.00    +0.000 C 
BRANCH  17  21
ATOM     18  C   UNL     1       3.735   4.659  18.600  0.00  0.00    +0.000 A 
ATOM     19  C   UNL     1       4.099   4.970  17.282  0.00  0.00    +0.000 A 
ATOM     20  C   UNL     1       5.383   5.426  16.968  0.00  0.00    +0.000 A 
ATOM     21  C   UNL     1       6.351   5.596  17.964  0.00  0.00    +0.000 A 
ATOM     22  C   UNL     1       6.006   5.287  19.282  0.00  0.00    +0.000 A 
ATOM     23  C   UNL     1       4.719   4.826  19.593  0.00  0.00    +0.000 A 
BRANCH  18  25
ATOM     24  C   UNL     1       1.339   4.150  17.781  0.00  0.00    +0.000 C 
ATOM     25  C   UNL     1       2.326   4.164  18.972  0.00  0.00    +0.000 C 
ATOM     26  C   UNL     1       1.724   5.085  20.055  0.00  0.00    +0.000 C 
ATOM     27  C   UNL     1       2.398   2.722  19.518  0.00  0.00    +0.000 C 
ENDBRANCH  18  25
ENDBRANCH  17  21
ENDBRANCH  15  17
ENDBRANCH   1  15
TORSDOF 6
ENDMDL
MODEL 8
REMARK VINA RESULT:      -7.3      6.865     10.630
REMARK  Name = 
REMARK  9 active torsions:
REMARK  status: ('A' for Active; 'I' for Inactive)
REMARK    1  A    between atoms: C_1  and  C_2
REMARK    2  A    between atoms: C_2  and  C_3
REMARK    3  A    between atoms: C_2  and  C_4
REMARK    4  A    between atoms: C_2  and  C_5
REMARK    5  A    between atoms: C_8  and  C_9
REMARK    6  A    between atoms: C_9  and  N_10
REMARK    7  A    between atoms: N_10  and  C_11
REMARK    8  A    between atoms: C_11  and  C_12
REMARK    9  A    between atoms: C_15  and  C_16
REMARK                            x       y       z     vdW  Elec       q    Type
REMARK                         _______ _______ _______ _____ _____    ______ ____
ROOT
ATOM      1  C   UNL     1       1.828   9.630  18.779  0.00  0.00    +0.000 C 
ENDROOT
BRANCH   1   2
ATOM      2  C   UNL     1       0.713  10.607  18.640  0.00  0.00    +0.000 A 
ATOM      3  C   UNL     1       0.742  11.978  18.734  0.00  0.00    +0.000 A 
ATOM      4  O   UNL     1      -0.522  12.446  18.545  0.00  0.00    +0.000 OA
ATOM      5  C   UNL     1      -1.277  11.315  18.344  0.00  0.00    +0.000 A 
ATOM      6  N   UNL     1      -0.576  10.198  18.376  0.00  0.00    +0.000 NA
BRANCH   5   7
ATOM      7  C   UNL     1      -2.711  11.531  18.154  0.00  0.00    +0.000 A 
ATOM      8  C   UNL     1      -3.480  12.054  19.214  0.00  0.00    +0.000 A 
ATOM      9  C   UNL     1      -4.856  12.264  19.078  0.00  0.00    +0.000 A 
ATOM     10  C   UNL     1      -5.485  11.952  17.878  0.00  0.00    +0.000 A 
ATOM     11 CL   UNL     1      -7.179  12.195  17.711  0.00  0.00    +0.000 Cl
ATOM     12  C   UNL     1      -4.751  11.437  16.814  0.00  0.00    +0.000 A 
ATOM     13  C   UNL     1      -3.372  11.227  16.948  0.00  0.00    +0.000 A 
ATOM     14 CL   UNL     1      -2.569  10.538  15.577  0.00  0.00    +0.000 Cl
ENDBRANCH   5   7
ENDBRANCH   1   2
BRANCH   1  15
ATOM     15  N   UNL     1       1.841   8.779  17.592  0.00  0.00    +0.000 NA
ATOM     16  H   UNL     1       1.106   8.077  17.694  0.00  0.00    +0.000 HD
BRANCH  15  17
ATOM     17  C   UNL     1       3.124   8.096  17.439  0.00  0.00    +0.000 C 
BRANCH  17  21
ATOM     18  C   UNL     1       3.058   4.170  19.336  0.00  0.00    +0.000 A 
ATOM     19  C   UNL     1       4.228   4.941  19.279  0.00  0.00    +0.000 A 
ATOM     20  C   UNL     1       4.242   6.202  18.673  0.00  0.00    +0.000 A 
ATOM     21  C   UNL     1       3.087   6.735  18.091  0.00  0.00    +0.000 A 
ATOM     22  C   UNL     1       1.912   5.981  18.143  0.00  0.00    +0.000 A 
ATOM     23  C   UNL     1       1.900   4.720  18.755  0.00  0.00    +0.000 A 
BRANCH  18  25
ATOM     24  C   UNL     1       4.414   2.128  20.149  0.00  0.00    +0.000 C 
ATOM     25  C   UNL     1       3.019   2.778  19.990  0.00  0.00    +0.000 C 
ATOM     26  C   UNL     1       2.165   1.825  19.126  0.00  0.00    +0.000 C 
ATOM     27  C   UNL     1       2.400   2.873  21.401  0.00  0.00    +0.000 C 
ENDBRANCH  18  25
ENDBRANCH  17  21
ENDBRANCH  15  17
ENDBRANCH   1  15
TORSDOF 6
ENDMDL
MODEL 9
REMARK VINA RESULT:      -7.3      2.032      2.531
REMARK  Name = 
REMARK  9 active torsions:
REMARK  status: ('A' for Active; 'I' for Inactive)
REMARK    1  A    between atoms: C_1  and  C_2
REMARK    2  A    between atoms: C_2  and  C_3
REMARK    3  A    between atoms: C_2  and  C_4
REMARK    4  A    between atoms: C_2  and  C_5
REMARK    5  A    between atoms: C_8  and  C_9
REMARK    6  A    between atoms: C_9  and  N_10
REMARK    7  A    between atoms: N_10  and  C_11
REMARK    8  A    between atoms: C_11  and  C_12
REMARK    9  A    between atoms: C_15  and  C_16
REMARK                            x       y       z     vdW  Elec       q    Type
REMARK                         _______ _______ _______ _____ _____    ______ ____
ROOT
ATOM      1  C   UNL     1       8.014   8.329  17.541  0.00  0.00    +0.000 C 
ENDROOT
BRANCH   1   2
ATOM      2  C   UNL     1       7.333   7.117  18.074  0.00  0.00    +0.000 A 
ATOM      3  C   UNL     1       7.831   6.125  18.885  0.00  0.00    +0.000 A 
ATOM      4  O   UNL     1       6.843   5.216  19.103  0.00  0.00    +0.000 OA
ATOM      5  C   UNL     1       5.769   5.703  18.398  0.00  0.00    +0.000 A 
ATOM      6  N   UNL     1       6.013   6.845  17.783  0.00  0.00    +0.000 NA
BRANCH   5   7
ATOM      7  C   UNL     1       4.561   4.880  18.425  0.00  0.00    +0.000 A 
ATOM      8  C   UNL     1       3.767   4.852  19.590  0.00  0.00    +0.000 A 
ATOM      9  C   UNL     1       2.610   4.069  19.662  0.00  0.00    +0.000 A 
ATOM     10  C   UNL     1       2.229   3.301  18.568  0.00  0.00    +0.000 A 
ATOM     11 CL   UNL     1       0.815   2.327  18.656  0.00  0.00    +0.000 Cl
ATOM     12  C   UNL     1       2.991   3.313  17.403  0.00  0.00    +0.000 A 
ATOM     13  C   UNL     1       4.150   4.097  17.329  0.00  0.00    +0.000 A 
ATOM     14 CL   UNL     1       5.045   3.996  15.851  0.00  0.00    +0.000 Cl
ENDBRANCH   5   7
ENDBRANCH   1   2
BRANCH   1  15
ATOM     15  N   UNL     1       8.635   9.033  18.660  0.00  0.00    +0.000 NA
ATOM     16  H   UNL     1       7.896   9.333  19.298  0.00  0.00    +0.000 HD
BRANCH  15  17
ATOM     17  C   UNL     1       9.370  10.212  18.206  0.00  0.00    +0.000 C 
BRANCH  17  21
ATOM     18  C   UNL     1       9.060  13.419  21.146  0.00  0.00    +0.000 A 
ATOM     19  C   UNL     1       9.293  12.090  21.528  0.00  0.00    +0.000 A 
ATOM     20  C   UNL     1       9.395  11.066  20.580  0.00  0.00    +0.000 A 
ATOM     21  C   UNL     1       9.259  11.332  19.213  0.00  0.00    +0.000 A 
ATOM     22  C   UNL     1       9.030  12.652  18.816  0.00  0.00    +0.000 A 
ATOM     23  C   UNL     1       8.932  13.677  19.767  0.00  0.00    +0.000 A 
BRANCH  18  25
ATOM     24  C   UNL     1      10.217  15.416  22.303  0.00  0.00    +0.000 C 
ATOM     25  C   UNL     1       8.936  14.561  22.169  0.00  0.00    +0.000 C 
ATOM     26  C   UNL     1       8.629  13.974  23.564  0.00  0.00    +0.000 C 
ATOM     27  C   UNL     1       7.794  15.516  21.760  0.00  0.00    +0.000 C 
ENDBRANCH  18  25
ENDBRANCH  17  21
ENDBRANCH  15  17
ENDBRANCH   1  15
TORSDOF 6
ENDMDL
