MODEL 1
REMARK VINA RESULT:      -7.3      0.000      0.000
REMARK  Name = 
REMARK  10 active torsions:
REMARK  status: ('A' for Active; 'I' for Inactive)
REMARK    1  A    between atoms: C_1  and  O_2
REMARK    2  A    between atoms: O_2  and  C_3
REMARK    3  A    between atoms: C_6  and  O_7
REMARK    4  A    between atoms: O_7  and  C_8
REMARK    5  A    between atoms: C_9  and  C_10
REMARK    6  A    between atoms: C_10  and  C_12
REMARK    7  A    between atoms: C_13  and  C_14
REMARK    8  A    between atoms: C_17  and  O_18
REMARK    9  A    between atoms: O_18  and  C_19
REMARK   10  A    between atoms: C_20  and  N_21
REMARK                            x       y       z     vdW  Elec       q    Type
REMARK                         _______ _______ _______ _____ _____    ______ ____
ROOT
ATOM      1  C   UNL     1       2.966   4.913  18.800  0.00  0.00    +0.000 C 
ATOM      2  C   UNL     1       3.311   6.207  18.704  0.00  0.00    +0.000 C 
ENDROOT
BRANCH   2   3
ATOM      3  C   UNL     1       2.476   7.293  19.201  0.00  0.00    +0.000 A 
ATOM      4  C   UNL     1       1.963   7.290  20.496  0.00  0.00    +0.000 A 
ATOM      5  C   UNL     1       1.117   8.325  20.900  0.00  0.00    +0.000 A 
ATOM      6  C   UNL     1       0.772   9.366  20.022  0.00  0.00    +0.000 A 
ATOM      7  C   UNL     1       1.243   9.345  18.698  0.00  0.00    +0.000 A 
ATOM      8  C   UNL     1       2.140   8.330  18.326  0.00  0.00    +0.000 A 
BRANCH   7   9
ATOM      9  N   UNL     1       0.975  10.359  17.760  0.00  0.00    +0.000 N 
ATOM     10  H   UNL     1       1.762  10.514  17.141  0.00  0.00    +0.000 HD
ATOM     11  H   UNL     1       0.676  11.231  18.190  0.00  0.00    +0.000 HD
ENDBRANCH   7   9
BRANCH   6  12
ATOM     12  O   UNL     1      -0.111  10.269  20.557  0.00  0.00    +0.000 OA
ATOM     13  C   UNL     1       0.448  11.463  21.091  0.00  0.00    +0.000 C 
ENDBRANCH   6  12
ENDBRANCH   2   3
BRANCH   1  14
ATOM     14  C   UNL     1       3.987   3.908  18.397  0.00  0.00    +0.000 C 
ATOM     15  O   UNL     1       3.909   2.767  18.860  0.00  0.00    +0.000 OA
BRANCH  14  20
ATOM     16  C   UNL     1       5.599   4.286  15.027  0.00  0.00    +0.000 A 
ATOM     17  C   UNL     1       6.915   4.602  15.334  0.00  0.00    +0.000 A 
ATOM     18  C   UNL     1       7.322   4.731  16.666  0.00  0.00    +0.000 A 
ATOM     19  C   UNL     1       6.422   4.521  17.724  0.00  0.00    +0.000 A 
ATOM     20  C   UNL     1       5.084   4.213  17.425  0.00  0.00    +0.000 A 
ATOM     21  C   UNL     1       4.693   4.106  16.068  0.00  0.00    +0.000 A 
BRANCH  16  23
ATOM     22  C   UNL     1       6.311   3.525  12.894  0.00  0.00    +0.000 C 
ATOM     23  O   UNL     1       5.324   4.168  13.694  0.00  0.00    +0.000 OA
ENDBRANCH  16  23
BRANCH  19  24
ATOM     24  O   UNL     1       6.809   4.621  19.034  0.00  0.00    +0.000 OA
ATOM     25  C   UNL     1       7.588   5.757  19.400  0.00  0.00    +0.000 C 
ENDBRANCH  19  24
ENDBRANCH  14  20
ENDBRANCH   1  14
TORSDOF 7
ENDMDL
MODEL 2
REMARK VINA RESULT:      -7.2      1.256      1.611
REMARK  Name = 
REMARK  10 active torsions:
REMARK  status: ('A' for Active; 'I' for Inactive)
REMARK    1  A    between atoms: C_1  and  O_2
REMARK    2  A    between atoms: O_2  and  C_3
REMARK    3  A    between atoms: C_6  and  O_7
REMARK    4  A    between atoms: O_7  and  C_8
REMARK    5  A    between atoms: C_9  and  C_10
REMARK    6  A    between atoms: C_10  and  C_12
REMARK    7  A    between atoms: C_13  and  C_14
REMARK    8  A    between atoms: C_17  and  O_18
REMARK    9  A    between atoms: O_18  and  C_19
REMARK   10  A    between atoms: C_20  and  N_21
REMARK                            x       y       z     vdW  Elec       q    Type
REMARK                         _______ _______ _______ _____ _____    ______ ____
ROOT
ATOM      1  C   UNL     1       2.813   4.951  17.984  0.00  0.00    +0.000 C 
ATOM      2  C   UNL     1       3.178   6.235  17.836  0.00  0.00    +0.000 C 
ENDROOT
BRANCH   2   3
ATOM      3  C   UNL     1       2.435   7.346  18.415  0.00  0.00    +0.000 A 
ATOM      4  C   UNL     1       2.025   8.434  17.648  0.00  0.00    +0.000 A 
ATOM      5  C   UNL     1       1.370   9.501  18.267  0.00  0.00    +0.000 A 
ATOM      6  C   UNL     1       1.121   9.497  19.649  0.00  0.00    +0.000 A 
ATOM      7  C   UNL     1       1.580   8.427  20.437  0.00  0.00    +0.000 A 
ATOM      8  C   UNL     1       2.183   7.335  19.790  0.00  0.00    +0.000 A 
BRANCH   7   9
ATOM      9  N   UNL     1       1.348   8.324  21.821  0.00  0.00    +0.000 N 
ATOM     10  H   UNL     1       0.542   7.746  22.023  0.00  0.00    +0.000 HD
ATOM     11  H   UNL     1       1.270   9.227  22.280  0.00  0.00    +0.000 HD
ENDBRANCH   7   9
BRANCH   6  12
ATOM     12  O   UNL     1       0.521  10.643  20.105  0.00  0.00    +0.000 OA
ATOM     13  C   UNL     1       0.423  11.719  19.180  0.00  0.00    +0.000 C 
ENDBRANCH   6  12
ENDBRANCH   2   3
BRANCH   1  14
ATOM     14  C   UNL     1       3.754   3.916  17.475  0.00  0.00    +0.000 C 
ATOM     15  O   UNL     1       3.410   2.732  17.517  0.00  0.00    +0.000 OA
BRANCH  14  20
ATOM     16  C   UNL     1       6.282   4.433  14.747  0.00  0.00    +0.000 A 
ATOM     17  C   UNL     1       7.449   4.720  15.441  0.00  0.00    +0.000 A 
ATOM     18  C   UNL     1       7.447   4.783  16.838  0.00  0.00    +0.000 A 
ATOM     19  C   UNL     1       6.278   4.533  17.575  0.00  0.00    +0.000 A 
ATOM     20  C   UNL     1       5.087   4.254  16.883  0.00  0.00    +0.000 A 
ATOM     21  C   UNL     1       5.111   4.215  15.468  0.00  0.00    +0.000 A 
BRANCH  16  23
ATOM     22  C   UNL     1       5.639   3.389  12.715  0.00  0.00    +0.000 C 
ATOM     23  O   UNL     1       6.409   4.379  13.389  0.00  0.00    +0.000 OA
ENDBRANCH  16  23
BRANCH  19  24
ATOM     24  O   UNL     1       6.263   4.568  18.945  0.00  0.00    +0.000 OA
ATOM     25  C   UNL     1       7.112   5.519  19.582  0.00  0.00    +0.000 C 
ENDBRANCH  19  24
ENDBRANCH  14  20
ENDBRANCH   1  14
TORSDOF 7
ENDMDL
MODEL 3
REMARK VINA RESULT:      -7.0      4.884      6.724
REMARK  Name = 
REMARK  10 active torsions:
REMARK  status: ('A' for Active; 'I' for Inactive)
REMARK    1  A    between atoms: C_1  and  O_2
REMARK    2  A    between atoms: O_2  and  C_3
REMARK    3  A    between atoms: C_6  and  O_7
REMARK    4  A    between atoms: O_7  and  C_8
REMARK    5  A    between atoms: C_9  and  C_10
REMARK    6  A    between atoms: C_10  and  C_12
REMARK    7  A    between atoms: C_13  and  C_14
REMARK    8  A    between atoms: C_17  and  O_18
REMARK    9  A    between atoms: O_18  and  C_19
REMARK   10  A    between atoms: C_20  and  N_21
REMARK                            x       y       z     vdW  Elec       q    Type
REMARK                         _______ _______ _______ _____ _____    ______ ____
ROOT
ATOM      1  C   UNL     1       7.970   8.152  17.793  0.00  0.00    +0.000 C 
ATOM      2  C   UNL     1       8.740   8.820  18.667  0.00  0.00    +0.000 C 
ENDROOT
BRANCH   2   3
ATOM      3  C   UNL     1       9.081  10.229  18.514  0.00  0.00    +0.000 A 
ATOM      4  C   UNL     1      10.194  10.786  19.139  0.00  0.00    +0.000 A 
ATOM      5  C   UNL     1      10.439  12.155  19.009  0.00  0.00    +0.000 A 
ATOM      6  C   UNL     1       9.581  12.978  18.262  0.00  0.00    +0.000 A 
ATOM      7  C   UNL     1       8.426  12.432  17.675  0.00  0.00    +0.000 A 
ATOM      8  C   UNL     1       8.227  11.043  17.766  0.00  0.00    +0.000 A 
BRANCH   7   9
ATOM      9  N   UNL     1       7.528  13.173  16.886  0.00  0.00    +0.000 N 
ATOM     10  H   UNL     1       6.617  13.243  17.322  0.00  0.00    +0.000 HD
ATOM     11  H   UNL     1       7.448  12.820  15.936  0.00  0.00    +0.000 HD
ENDBRANCH   7   9
BRANCH   6  12
ATOM     12  O   UNL     1       9.932  14.304  18.283  0.00  0.00    +0.000 OA
ATOM     13  C   UNL     1      10.990  14.694  17.416  0.00  0.00    +0.000 C 
ENDBRANCH   6  12
ENDBRANCH   2   3
BRANCH   1  14
ATOM     14  C   UNL     1       7.574   6.766  18.161  0.00  0.00    +0.000 C 
ATOM     15  O   UNL     1       8.207   6.184  19.046  0.00  0.00    +0.000 OA
BRANCH  14  20
ATOM     16  C   UNL     1       4.174   5.180  17.999  0.00  0.00    +0.000 A 
ATOM     17  C   UNL     1       4.117   4.673  16.708  0.00  0.00    +0.000 A 
ATOM     18  C   UNL     1       5.186   4.857  15.826  0.00  0.00    +0.000 A 
ATOM     19  C   UNL     1       6.352   5.532  16.226  0.00  0.00    +0.000 A 
ATOM     20  C   UNL     1       6.415   6.061  17.527  0.00  0.00    +0.000 A 
ATOM     21  C   UNL     1       5.311   5.877  18.395  0.00  0.00    +0.000 A 
BRANCH  16  23
ATOM     22  C   UNL     1       1.880   4.577  18.091  0.00  0.00    +0.000 C 
ATOM     23  O   UNL     1       3.080   4.923  18.775  0.00  0.00    +0.000 OA
ENDBRANCH  16  23
BRANCH  19  24
ATOM     24  O   UNL     1       7.417   5.700  15.383  0.00  0.00    +0.000 OA
ATOM     25  C   UNL     1       7.392   4.987  14.149  0.00  0.00    +0.000 C 
ENDBRANCH  19  24
ENDBRANCH  14  20
ENDBRANCH   1  14
TORSDOF 7
ENDMDL
MODEL 4
REMARK VINA RESULT:      -7.0      1.196      1.546
REMARK  Name = 
REMARK  10 active torsions:
REMARK  status: ('A' for Active; 'I' for Inactive)
REMARK    1  A    between atoms: C_1  and  O_2
REMARK    2  A    between atoms: O_2  and  C_3
REMARK    3  A    between atoms: C_6  and  O_7
REMARK    4  A    between atoms: O_7  and  C_8
REMARK    5  A    between atoms: C_9  and  C_10
REMARK    6  A    between atoms: C_10  and  C_12
REMARK    7  A    between atoms: C_13  and  C_14
REMARK    8  A    between atoms: C_17  and  O_18
REMARK    9  A    between atoms: O_18  and  C_19
REMARK   10  A    between atoms: C_20  and  N_21
REMARK                            x       y       z     vdW  Elec       q    Type
REMARK                         _______ _______ _______ _____ _____    ______ ____
ROOT
ATOM      1  C   UNL     1       2.108   5.544  17.979  0.00  0.00    +0.000 C 
ATOM      2  C   UNL     1       2.747   6.651  18.390  0.00  0.00    +0.000 C 
ENDROOT
BRANCH   2   3
ATOM      3  C   UNL     1       2.086   7.731  19.112  0.00  0.00    +0.000 A 
ATOM      4  C   UNL     1       1.756   7.617  20.460  0.00  0.00    +0.000 A 
ATOM      5  C   UNL     1       1.067   8.657  21.087  0.00  0.00    +0.000 A 
ATOM      6  C   UNL     1       0.698   9.814  20.380  0.00  0.00    +0.000 A 
ATOM      7  C   UNL     1       0.980   9.911  19.006  0.00  0.00    +0.000 A 
ATOM      8  C   UNL     1       1.726   8.882  18.406  0.00  0.00    +0.000 A 
BRANCH   7   9
ATOM      9  N   UNL     1       0.677  11.042  18.227  0.00  0.00    +0.000 N 
ATOM     10  H   UNL     1      -0.174  11.493  18.538  0.00  0.00    +0.000 HD
ATOM     11  H   UNL     1       0.636  10.841  17.231  0.00  0.00    +0.000 HD
ENDBRANCH   7   9
BRANCH   6  12
ATOM     12  O   UNL     1      -0.022  10.711  21.127  0.00  0.00    +0.000 OA
ATOM     13  C   UNL     1      -0.458  10.267  22.405  0.00  0.00    +0.000 C 
ENDBRANCH   6  12
ENDBRANCH   2   3
BRANCH   1  14
ATOM     14  C   UNL     1       2.942   4.457  17.398  0.00  0.00    +0.000 C 
ATOM     15  O   UNL     1       2.380   3.449  16.961  0.00  0.00    +0.000 OA
BRANCH  14  20
ATOM     16  C   UNL     1       6.249   4.949  15.690  0.00  0.00    +0.000 A 
ATOM     17  C   UNL     1       7.172   4.696  16.695  0.00  0.00    +0.000 A 
ATOM     18  C   UNL     1       6.742   4.378  17.988  0.00  0.00    +0.000 A 
ATOM     19  C   UNL     1       5.375   4.282  18.297  0.00  0.00    +0.000 A 
ATOM     20  C   UNL     1       4.432   4.549  17.290  0.00  0.00    +0.000 A 
ATOM     21  C   UNL     1       4.893   4.886  15.994  0.00  0.00    +0.000 A 
BRANCH  16  23
ATOM     22  C   UNL     1       6.713   4.196  13.487  0.00  0.00    +0.000 C 
ATOM     23  O   UNL     1       6.784   5.229  14.465  0.00  0.00    +0.000 OA
ENDBRANCH  16  23
BRANCH  19  24
ATOM     24  O   UNL     1       4.938   3.950  19.552  0.00  0.00    +0.000 OA
ATOM     25  C   UNL     1       4.547   2.596  19.770  0.00  0.00    +0.000 C 
ENDBRANCH  19  24
ENDBRANCH  14  20
ENDBRANCH   1  14
TORSDOF 7
ENDMDL
MODEL 5
REMARK VINA RESULT:      -7.0      5.093      6.768
REMARK  Name = 
REMARK  10 active torsions:
REMARK  status: ('A' for Active; 'I' for Inactive)
REMARK    1  A    between atoms: C_1  and  O_2
REMARK    2  A    between atoms: O_2  and  C_3
REMARK    3  A    between atoms: C_6  and  O_7
REMARK    4  A    between atoms: O_7  and  C_8
REMARK    5  A    between atoms: C_9  and  C_10
REMARK    6  A    between atoms: C_10  and  C_12
REMARK    7  A    between atoms: C_13  and  C_14
REMARK    8  A    between atoms: C_17  and  O_18
REMARK    9  A    between atoms: O_18  and  C_19
REMARK   10  A    between atoms: C_20  and  N_21
REMARK                            x       y       z     vdW  Elec       q    Type
REMARK                         _______ _______ _______ _____ _____    ______ ____
ROOT
ATOM      1  C   UNL     1       7.795   8.126  17.872  0.00  0.00    +0.000 C 
ATOM      2  C   UNL     1       8.683   8.769  18.646  0.00  0.00    +0.000 C 
ENDROOT
BRANCH   2   3
ATOM      3  C   UNL     1       8.916  10.205  18.568  0.00  0.00    +0.000 A 
ATOM      4  C   UNL     1       8.249  11.007  17.646  0.00  0.00    +0.000 A 
ATOM      5  C   UNL     1       8.556  12.367  17.572  0.00  0.00    +0.000 A 
ATOM      6  C   UNL     1       9.528  12.939  18.410  0.00  0.00    +0.000 A 
ATOM      7  C   UNL     1      10.243  12.124  19.305  0.00  0.00    +0.000 A 
ATOM      8  C   UNL     1       9.879  10.770  19.408  0.00  0.00    +0.000 A 
BRANCH   7   9
ATOM      9  N   UNL     1      11.209  12.614  20.202  0.00  0.00    +0.000 N 
ATOM     10  H   UNL     1      10.848  12.672  21.146  0.00  0.00    +0.000 HD
ATOM     11  H   UNL     1      11.607  13.503  19.913  0.00  0.00    +0.000 HD
ENDBRANCH   7   9
BRANCH   6  12
ATOM     12  O   UNL     1       9.749  14.271  18.170  0.00  0.00    +0.000 OA
ATOM     13  C   UNL     1       8.949  15.189  18.905  0.00  0.00    +0.000 C 
ENDBRANCH   6  12
ENDBRANCH   2   3
BRANCH   1  14
ATOM     14  C   UNL     1       7.547   6.690  18.172  0.00  0.00    +0.000 C 
ATOM     15  O   UNL     1       8.276   6.122  18.990  0.00  0.00    +0.000 OA
BRANCH  14  20
ATOM     16  C   UNL     1       4.238   4.921  18.033  0.00  0.00    +0.000 A 
ATOM     17  C   UNL     1       4.210   4.392  16.750  0.00  0.00    +0.000 A 
ATOM     18  C   UNL     1       5.269   4.618  15.866  0.00  0.00    +0.000 A 
ATOM     19  C   UNL     1       6.396   5.361  16.256  0.00  0.00    +0.000 A 
ATOM     20  C   UNL     1       6.430   5.913  17.549  0.00  0.00    +0.000 A 
ATOM     21  C   UNL     1       5.336   5.684  18.419  0.00  0.00    +0.000 A 
BRANCH  16  23
ATOM     22  C   UNL     1       1.887   4.623  18.172  0.00  0.00    +0.000 C 
ATOM     23  O   UNL     1       3.159   4.617  18.813  0.00  0.00    +0.000 OA
ENDBRANCH  16  23
BRANCH  19  24
ATOM     24  O   UNL     1       7.452   5.573  15.410  0.00  0.00    +0.000 OA
ATOM     25  C   UNL     1       7.344   5.052  14.088  0.00  0.00    +0.000 C 
ENDBRANCH  19  24
ENDBRANCH  14  20
ENDBRANCH   1  14
TORSDOF 7
ENDMDL
MODEL 6
REMARK VINA RESULT:      -6.9      4.684      6.717
REMARK  Name = 
REMARK  10 active torsions:
REMARK  status: ('A' for Active; 'I' for Inactive)
REMARK    1  A    between atoms: C_1  and  O_2
REMARK    2  A    between atoms: O_2  and  C_3
REMARK    3  A    between atoms: C_6  and  O_7
REMARK    4  A    between atoms: O_7  and  C_8
REMARK    5  A    between atoms: C_9  and  C_10
REMARK    6  A    between atoms: C_10  and  C_12
REMARK    7  A    between atoms: C_13  and  C_14
REMARK    8  A    between atoms: C_17  and  O_18
REMARK    9  A    between atoms: O_18  and  C_19
REMARK   10  A    between atoms: C_20  and  N_21
REMARK                            x       y       z     vdW  Elec       q    Type
REMARK                         _______ _______ _______ _____ _____    ______ ____
ROOT
ATOM      1  C   UNL     1       7.836   7.617  18.040  0.00  0.00    +0.000 C 
ATOM      2  C   UNL     1       7.668   8.896  17.668  0.00  0.00    +0.000 C 
ENDROOT
BRANCH   2   3
ATOM      3  C   UNL     1       8.484   9.988  18.182  0.00  0.00    +0.000 A 
ATOM      4  C   UNL     1       9.307   9.829  19.293  0.00  0.00    +0.000 A 
ATOM      5  C   UNL     1      10.020  10.926  19.781  0.00  0.00    +0.000 A 
ATOM      6  C   UNL     1       9.918  12.188  19.171  0.00  0.00    +0.000 A 
ATOM      7  C   UNL     1       9.047  12.367  18.083  0.00  0.00    +0.000 A 
ATOM      8  C   UNL     1       8.384  11.240  17.568  0.00  0.00    +0.000 A 
BRANCH   7   9
ATOM      9  N   UNL     1       8.905  13.584  17.392  0.00  0.00    +0.000 N 
ATOM     10  H   UNL     1       7.987  13.988  17.531  0.00  0.00    +0.000 HD
ATOM     11  H   UNL     1       9.119  13.507  16.401  0.00  0.00    +0.000 HD
ENDBRANCH   7   9
BRANCH   6  12
ATOM     12  O   UNL     1      10.637  13.168  19.807  0.00  0.00    +0.000 OA
ATOM     13  C   UNL     1      10.179  13.555  21.096  0.00  0.00    +0.000 C 
ENDBRANCH   6  12
ENDBRANCH   2   3
BRANCH   1  14
ATOM     14  C   UNL     1       7.040   6.590  17.315  0.00  0.00    +0.000 C 
ATOM     15  O   UNL     1       7.409   6.240  16.190  0.00  0.00    +0.000 OA
BRANCH  14  20
ATOM     16  C   UNL     1       5.096   3.948  19.142  0.00  0.00    +0.000 A 
ATOM     17  C   UNL     1       3.783   4.386  19.039  0.00  0.00    +0.000 A 
ATOM     18  C   UNL     1       3.484   5.585  18.385  0.00  0.00    +0.000 A 
ATOM     19  C   UNL     1       4.495   6.364  17.796  0.00  0.00    +0.000 A 
ATOM     20  C   UNL     1       5.830   5.937  17.906  0.00  0.00    +0.000 A 
ATOM     21  C   UNL     1       6.107   4.728  18.589  0.00  0.00    +0.000 A 
BRANCH  16  23
ATOM     22  C   UNL     1       4.088   2.135  20.296  0.00  0.00    +0.000 C 
ATOM     23  O   UNL     1       5.264   2.754  19.784  0.00  0.00    +0.000 OA
ENDBRANCH  16  23
BRANCH  19  24
ATOM     24  O   UNL     1       4.218   7.529  17.133  0.00  0.00    +0.000 OA
ATOM     25  C   UNL     1       3.076   8.267  17.560  0.00  0.00    +0.000 C 
ENDBRANCH  19  24
ENDBRANCH  14  20
ENDBRANCH   1  14
TORSDOF 7
ENDMDL
MODEL 7
REMARK VINA RESULT:      -6.9      1.519      2.039
REMARK  Name = 
REMARK  10 active torsions:
REMARK  status: ('A' for Active; 'I' for Inactive)
REMARK    1  A    between atoms: C_1  and  O_2
REMARK    2  A    between atoms: O_2  and  C_3
REMARK    3  A    between atoms: C_6  and  O_7
REMARK    4  A    between atoms: O_7  and  C_8
REMARK    5  A    between atoms: C_9  and  C_10
REMARK    6  A    between atoms: C_10  and  C_12
REMARK    7  A    between atoms: C_13  and  C_14
REMARK    8  A    between atoms: C_17  and  O_18
REMARK    9  A    between atoms: O_18  and  C_19
REMARK   10  A    between atoms: C_20  and  N_21
REMARK                            x       y       z     vdW  Elec       q    Type
REMARK                         _______ _______ _______ _____ _____    ______ ____
ROOT
ATOM      1  C   UNL     1       2.251   5.479  17.844  0.00  0.00    +0.000 C 
ATOM      2  C   UNL     1       2.838   6.650  18.136  0.00  0.00    +0.000 C 
ENDROOT
BRANCH   2   3
ATOM      3  C   UNL     1       2.116   7.786  18.695  0.00  0.00    +0.000 A 
ATOM      4  C   UNL     1       1.737   8.872  17.910  0.00  0.00    +0.000 A 
ATOM      5  C   UNL     1       1.102   9.962  18.510  0.00  0.00    +0.000 A 
ATOM      6  C   UNL     1       0.843   9.983  19.890  0.00  0.00    +0.000 A 
ATOM      7  C   UNL     1       1.272   8.914  20.696  0.00  0.00    +0.000 A 
ATOM      8  C   UNL     1       1.855   7.799  20.068  0.00  0.00    +0.000 A 
BRANCH   7   9
ATOM      9  N   UNL     1       1.029   8.834  22.079  0.00  0.00    +0.000 N 
ATOM     10  H   UNL     1       0.942   9.753  22.497  0.00  0.00    +0.000 HD
ATOM     11  H   UNL     1       1.720   8.277  22.574  0.00  0.00    +0.000 HD
ENDBRANCH   7   9
BRANCH   6  12
ATOM     12  O   UNL     1       0.267  11.148  20.326  0.00  0.00    +0.000 OA
ATOM     13  C   UNL     1      -1.102  11.342  19.995  0.00  0.00    +0.000 C 
ENDBRANCH   6  12
ENDBRANCH   2   3
BRANCH   1  14
ATOM     14  C   UNL     1       3.140   4.359  17.432  0.00  0.00    +0.000 C 
ATOM     15  O   UNL     1       2.629   3.275  17.138  0.00  0.00    +0.000 OA
BRANCH  14  20
ATOM     16  C   UNL     1       6.434   4.899  15.714  0.00  0.00    +0.000 A 
ATOM     17  C   UNL     1       7.361   4.726  16.733  0.00  0.00    +0.000 A 
ATOM     18  C   UNL     1       6.937   4.450  18.036  0.00  0.00    +0.000 A 
ATOM     19  C   UNL     1       5.573   4.316  18.345  0.00  0.00    +0.000 A 
ATOM     20  C   UNL     1       4.626   4.503  17.324  0.00  0.00    +0.000 A 
ATOM     21  C   UNL     1       5.080   4.799  16.016  0.00  0.00    +0.000 A 
BRANCH  16  23
ATOM     22  C   UNL     1       6.635   4.218  13.448  0.00  0.00    +0.000 C 
ATOM     23  O   UNL     1       6.965   5.144  14.479  0.00  0.00    +0.000 OA
ENDBRANCH  16  23
BRANCH  19  24
ATOM     24  O   UNL     1       5.143   4.024  19.612  0.00  0.00    +0.000 OA
ATOM     25  C   UNL     1       4.663   2.703  19.850  0.00  0.00    +0.000 C 
ENDBRANCH  19  24
ENDBRANCH  14  20
ENDBRANCH   1  14
TORSDOF 7
ENDMDL
MODEL 8
REMARK VINA RESULT:      -6.9      5.059      6.409
REMARK  Name = 
REMARK  10 active torsions:
REMARK  status: ('A' for Active; 'I' for Inactive)
REMARK    1  A    between atoms: C_1  and  O_2
REMARK    2  A    between atoms: O_2  and  C_3
REMARK    3  A    between atoms: C_6  and  O_7
REMARK    4  A    between atoms: O_7  and  C_8
REMARK    5  A    between atoms: C_9  and  C_10
REMARK    6  A    between atoms: C_10  and  C_12
REMARK    7  A    between atoms: C_13  and  C_14
REMARK    8  A    between atoms: C_17  and  O_18
REMARK    9  A    between atoms: O_18  and  C_19
REMARK   10  A    between atoms: C_20  and  N_21
REMARK                            x       y       z     vdW  Elec       q    Type
REMARK                         _______ _______ _______ _____ _____    ______ ____
ROOT
ATOM      1  C   UNL     1       7.883   8.140  17.737  0.00  0.00    +0.000 C 
ATOM      2  C   UNL     1       8.656   8.761  18.642  0.00  0.00    +0.000 C 
ENDROOT
BRANCH   2   3
ATOM      3  C   UNL     1       8.935  10.190  18.605  0.00  0.00    +0.000 A 
ATOM      4  C   UNL     1       8.302  11.038  17.700  0.00  0.00    +0.000 A 
ATOM      5  C   UNL     1       8.653  12.389  17.666  0.00  0.00    +0.000 A 
ATOM      6  C   UNL     1       9.636  12.906  18.525  0.00  0.00    +0.000 A 
ATOM      7  C   UNL     1      10.317  12.045  19.403  0.00  0.00    +0.000 A 
ATOM      8  C   UNL     1       9.910  10.702  19.467  0.00  0.00    +0.000 A 
BRANCH   7   9
ATOM      9  N   UNL     1      11.292  12.479  20.320  0.00  0.00    +0.000 N 
ATOM     10  H   UNL     1      11.785  11.700  20.738  0.00  0.00    +0.000 HD
ATOM     11  H   UNL     1      10.919  13.097  21.035  0.00  0.00    +0.000 HD
ENDBRANCH   7   9
BRANCH   6  12
ATOM     12  O   UNL     1       9.901  14.237  18.324  0.00  0.00    +0.000 OA
ATOM     13  C   UNL     1       8.781  15.076  18.073  0.00  0.00    +0.000 C 
ENDBRANCH   6  12
ENDBRANCH   2   3
BRANCH   1  14
ATOM     14  C   UNL     1       7.555   6.711  17.991  0.00  0.00    +0.000 C 
ATOM     15  O   UNL     1       8.026   6.164  18.992  0.00  0.00    +0.000 OA
BRANCH  14  20
ATOM     16  C   UNL     1       6.520   4.858  14.894  0.00  0.00    +0.000 A 
ATOM     17  C   UNL     1       5.197   4.524  15.146  0.00  0.00    +0.000 A 
ATOM     18  C   UNL     1       4.596   4.871  16.360  0.00  0.00    +0.000 A 
ATOM     19  C   UNL     1       5.302   5.587  17.342  0.00  0.00    +0.000 A 
ATOM     20  C   UNL     1       6.647   5.919  17.103  0.00  0.00    +0.000 A 
ATOM     21  C   UNL     1       7.237   5.539  15.873  0.00  0.00    +0.000 A 
BRANCH  16  23
ATOM     22  C   UNL     1       6.182   3.583  12.921  0.00  0.00    +0.000 C 
ATOM     23  O   UNL     1       6.992   4.484  13.668  0.00  0.00    +0.000 OA
ENDBRANCH  16  23
BRANCH  19  24
ATOM     24  O   UNL     1       4.722   5.955  18.527  0.00  0.00    +0.000 OA
ATOM     25  C   UNL     1       4.522   4.934  19.501  0.00  0.00    +0.000 C 
ENDBRANCH  19  24
ENDBRANCH  14  20
ENDBRANCH   1  14
TORSDOF 7
ENDMDL
MODEL 9
REMARK VINA RESULT:      -6.9      2.155      3.397
REMARK  Name = 
REMARK  10 active torsions:
REMARK  status: ('A' for Active; 'I' for Inactive)
REMARK    1  A    between atoms: C_1  and  O_2
REMARK    2  A    between atoms: O_2  and  C_3
REMARK    3  A    between atoms: C_6  and  O_7
REMARK    4  A    between atoms: O_7  and  C_8
REMARK    5  A    between atoms: C_9  and  C_10
REMARK    6  A    between atoms: C_10  and  C_12
REMARK    7  A    between atoms: C_13  and  C_14
REMARK    8  A    between atoms: C_17  and  O_18
REMARK    9  A    between atoms: O_18  and  C_19
REMARK   10  A    between atoms: C_20  and  N_21
REMARK                            x       y       z     vdW  Elec       q    Type
REMARK                         _______ _______ _______ _____ _____    ______ ____
ROOT
ATOM      1  C   UNL     1       2.671   7.010  19.243  0.00  0.00    +0.000 C 
ATOM      2  C   UNL     1       2.048   7.317  20.392  0.00  0.00    +0.000 C 
ENDROOT
BRANCH   2   3
ATOM      3  C   UNL     1       1.186   8.482  20.545  0.00  0.00    +0.000 A 
ATOM      4  C   UNL     1       1.049   9.430  19.534  0.00  0.00    +0.000 A 
ATOM      5  C   UNL     1       0.258  10.560  19.757  0.00  0.00    +0.000 A 
ATOM      6  C   UNL     1      -0.397  10.757  20.984  0.00  0.00    +0.000 A 
ATOM      7  C   UNL     1      -0.218   9.831  22.026  0.00  0.00    +0.000 A 
ATOM      8  C   UNL     1       0.532   8.671  21.765  0.00  0.00    +0.000 A 
BRANCH   7   9
ATOM      9  N   UNL     1      -0.858   9.931  23.275  0.00  0.00    +0.000 N 
ATOM     10  H   UNL     1      -0.287   9.549  24.019  0.00  0.00    +0.000 HD
ATOM     11  H   UNL     1      -1.785   9.516  23.282  0.00  0.00    +0.000 HD
ENDBRANCH   7   9
BRANCH   6  12
ATOM     12  O   UNL     1      -1.084  11.942  21.058  0.00  0.00    +0.000 OA
ATOM     13  C   UNL     1      -2.095  12.151  20.081  0.00  0.00    +0.000 C 
ENDBRANCH   6  12
ENDBRANCH   2   3
BRANCH   1  14
ATOM     14  C   UNL     1       3.387   5.707  19.187  0.00  0.00    +0.000 C 
ATOM     15  O   UNL     1       3.228   4.904  20.110  0.00  0.00    +0.000 OA
BRANCH  14  20
ATOM     16  C   UNL     1       6.348   5.913  16.887  0.00  0.00    +0.000 A 
ATOM     17  C   UNL     1       6.089   4.933  15.940  0.00  0.00    +0.000 A 
ATOM     18  C   UNL     1       4.939   4.142  16.034  0.00  0.00    +0.000 A 
ATOM     19  C   UNL     1       4.007   4.334  17.069  0.00  0.00    +0.000 A 
ATOM     20  C   UNL     1       4.266   5.315  18.041  0.00  0.00    +0.000 A 
ATOM     21  C   UNL     1       5.447   6.090  17.933  0.00  0.00    +0.000 A 
BRANCH  16  23
ATOM     22  C   UNL     1       7.674   7.783  17.504  0.00  0.00    +0.000 C 
ATOM     23  O   UNL     1       7.490   6.635  16.682  0.00  0.00    +0.000 OA
ENDBRANCH  16  23
BRANCH  19  24
ATOM     24  O   UNL     1       2.865   3.584  17.163  0.00  0.00    +0.000 OA
ATOM     25  C   UNL     1       2.983   2.284  17.734  0.00  0.00    +0.000 C 
ENDBRANCH  19  24
ENDBRANCH  14  20
ENDBRANCH   1  14
TORSDOF 7
ENDMDL
