MODEL 1
REMARK VINA RESULT:      -6.9      0.000      0.000
REMARK  Name = 
REMARK  11 active torsions:
REMARK  status: ('A' for Active; 'I' for Inactive)
REMARK    1  A    between atoms: C_1  and  C_2
REMARK    2  A    between atoms: C_2  and  N_3
REMARK    3  A    between atoms: N_3  and  C_4
REMARK    4  A    between atoms: N_3  and  S_16
REMARK    5  A    between atoms: C_4  and  C_5
REMARK    6  A    between atoms: C_5  and  C_6
REMARK    7  A    between atoms: C_6  and  N_7
REMARK    8  A    between atoms: N_10  and  C_11
REMARK    9  A    between atoms: C_12  and  C_13
REMARK   10  A    between atoms: N_14  and  O_15
REMARK   11  A    between atoms: S_16  and  C_19
REMARK                            x       y       z     vdW  Elec       q    Type
REMARK                         _______ _______ _______ _____ _____    ______ ____
ROOT
ATOM      1  C   UNL     1       4.016   6.815  17.494  0.00  0.00    +0.000 C 
ENDROOT
BRANCH   1   2
ATOM      2  C   UNL     1       5.541   6.867  17.458  0.00  0.00    +0.000 C 
BRANCH   2   3
ATOM      3  N   UNL     1       6.159   5.537  17.711  0.00  0.00    +0.000 NA
BRANCH   3   4
ATOM      4  S   UNL     1       7.144   4.966  16.407  0.00  0.00    +0.000 S 
ATOM      5  O   UNL     1       7.649   6.172  15.774  0.00  0.00    +0.000 OA
ATOM      6  O   UNL     1       8.109   4.069  17.022  0.00  0.00    +0.000 OA
BRANCH   4   7
ATOM      7  C   UNL     1       5.996   4.040  15.220  0.00  0.00    +0.000 C 
ATOM      8  F   UNL     1       5.094   4.854  14.619  0.00  0.00    +0.000 F 
ATOM      9  F   UNL     1       6.712   3.447  14.219  0.00  0.00    +0.000 F 
ATOM     10  F   UNL     1       5.312   3.045  15.851  0.00  0.00    +0.000 F 
ENDBRANCH   4   7
ENDBRANCH   3   4
BRANCH   3  12
ATOM     11  C   UNL     1       7.944   6.109  19.411  0.00  0.00    +0.000 C 
ATOM     12  C   UNL     1       6.698   5.303  19.089  0.00  0.00    +0.000 C 
ENDBRANCH   3  12
ENDBRANCH   2   3
ENDBRANCH   1   2
BRANCH   1  13
ATOM     13  C   UNL     1       3.508   5.382  17.555  0.00  0.00    +0.000 C 
BRANCH  13  14
ATOM     14  N   UNL     1       2.972   5.078  18.896  0.00  0.00    +0.000 N 
ATOM     15  C   UNL     1       2.219   5.964  19.645  0.00  0.00    +0.000 A 
ATOM     16  C   UNL     1       1.857   5.316  20.782  0.00  0.00    +0.000 A 
ATOM     17  N   UNL     1       2.405   4.047  20.714  0.00  0.00    +0.000 N 
ATOM     18  C   UNL     1       2.256   3.027  21.749  0.00  0.00    +0.000 C 
ATOM     19  C   UNL     1       3.058   3.874  19.530  0.00  0.00    +0.000 A 
BRANCH  19  20
ATOM     20  C   UNL     1       3.684   2.689  19.084  0.00  0.00    +0.000 C 
ATOM     21  N   UNL     1       3.095   1.650  18.574  0.00  0.00    +0.000 NA
BRANCH  21  22
ATOM     22  O   UNL     1       4.064   0.685  18.274  0.00  0.00    +0.000 OA
ATOM     23  H   UNL     1       4.097   0.696  17.294  0.00  0.00    +0.000 HD
ENDBRANCH  21  22
ENDBRANCH  19  20
ENDBRANCH  13  14
ENDBRANCH   1  13
TORSDOF 9
ENDMDL
MODEL 2
REMARK VINA RESULT:      -6.5      1.336      1.588
REMARK  Name = 
REMARK  11 active torsions:
REMARK  status: ('A' for Active; 'I' for Inactive)
REMARK    1  A    between atoms: C_1  and  C_2
REMARK    2  A    between atoms: C_2  and  N_3
REMARK    3  A    between atoms: N_3  and  C_4
REMARK    4  A    between atoms: N_3  and  S_16
REMARK    5  A    between atoms: C_4  and  C_5
REMARK    6  A    between atoms: C_5  and  C_6
REMARK    7  A    between atoms: C_6  and  N_7
REMARK    8  A    between atoms: N_10  and  C_11
REMARK    9  A    between atoms: C_12  and  C_13
REMARK   10  A    between atoms: N_14  and  O_15
REMARK   11  A    between atoms: S_16  and  C_19
REMARK                            x       y       z     vdW  Elec       q    Type
REMARK                         _______ _______ _______ _____ _____    ______ ____
ROOT
ATOM      1  C   UNL     1       3.851   6.340  17.570  0.00  0.00    +0.000 C 
ENDROOT
BRANCH   1   2
ATOM      2  C   UNL     1       4.972   6.548  16.555  0.00  0.00    +0.000 C 
BRANCH   2   3
ATOM      3  N   UNL     1       6.260   5.952  17.003  0.00  0.00    +0.000 NA
BRANCH   3   4
ATOM      4  S   UNL     1       6.609   4.419  16.278  0.00  0.00    +0.000 S 
ATOM      5  O   UNL     1       7.987   4.145  16.645  0.00  0.00    +0.000 OA
ATOM      6  O   UNL     1       5.583   3.519  16.778  0.00  0.00    +0.000 OA
BRANCH   4   7
ATOM      7  C   UNL     1       6.469   4.657  14.405  0.00  0.00    +0.000 C 
ATOM      8  F   UNL     1       7.366   5.553  13.921  0.00  0.00    +0.000 F 
ATOM      9  F   UNL     1       6.703   3.481  13.750  0.00  0.00    +0.000 F 
ATOM     10  F   UNL     1       5.224   5.066  14.038  0.00  0.00    +0.000 F 
ENDBRANCH   4   7
ENDBRANCH   3   4
BRANCH   3  12
ATOM     11  C   UNL     1       7.986   6.980  18.543  0.00  0.00    +0.000 C 
ATOM     12  C   UNL     1       7.420   6.892  17.137  0.00  0.00    +0.000 C 
ENDBRANCH   3  12
ENDBRANCH   2   3
ENDBRANCH   1   2
BRANCH   1  13
ATOM     13  C   UNL     1       4.379   5.753  18.871  0.00  0.00    +0.000 C 
BRANCH  13  14
ATOM     14  N   UNL     1       3.269   5.243  19.698  0.00  0.00    +0.000 N 
ATOM     15  C   UNL     1       2.205   6.017  20.124  0.00  0.00    +0.000 A 
ATOM     16  C   UNL     1       1.362   5.196  20.803  0.00  0.00    +0.000 A 
ATOM     17  N   UNL     1       1.931   3.935  20.788  0.00  0.00    +0.000 N 
ATOM     18  C   UNL     1       1.340   2.756  21.418  0.00  0.00    +0.000 C 
ATOM     19  C   UNL     1       3.089   3.943  20.068  0.00  0.00    +0.000 A 
BRANCH  19  20
ATOM     20  C   UNL     1       3.907   2.827  19.784  0.00  0.00    +0.000 C 
ATOM     21  N   UNL     1       4.658   2.187  20.630  0.00  0.00    +0.000 NA
BRANCH  21  22
ATOM     22  O   UNL     1       5.318   1.153  19.952  0.00  0.00    +0.000 OA
ATOM     23  H   UNL     1       4.827   1.090  19.106  0.00  0.00    +0.000 HD
ENDBRANCH  21  22
ENDBRANCH  19  20
ENDBRANCH  13  14
ENDBRANCH   1  13
TORSDOF 9
ENDMDL
MODEL 3
REMARK VINA RESULT:      -6.4      1.713      2.173
REMARK  Name = 
REMARK  11 active torsions:
REMARK  status: ('A' for Active; 'I' for Inactive)
REMARK    1  A    between atoms: C_1  and  C_2
REMARK    2  A    between atoms: C_2  and  N_3
REMARK    3  A    between atoms: N_3  and  C_4
REMARK    4  A    between atoms: N_3  and  S_16
REMARK    5  A    between atoms: C_4  and  C_5
REMARK    6  A    between atoms: C_5  and  C_6
REMARK    7  A    between atoms: C_6  and  N_7
REMARK    8  A    between atoms: N_10  and  C_11
REMARK    9  A    between atoms: C_12  and  C_13
REMARK   10  A    between atoms: N_14  and  O_15
REMARK   11  A    between atoms: S_16  and  C_19
REMARK                            x       y       z     vdW  Elec       q    Type
REMARK                         _______ _______ _______ _____ _____    ______ ____
ROOT
ATOM      1  C   UNL     1       3.837   3.954  16.719  0.00  0.00    +0.000 C 
ENDROOT
BRANCH   1   2
ATOM      2  C   UNL     1       5.030   4.271  17.617  0.00  0.00    +0.000 C 
BRANCH   2   3
ATOM      3  N   UNL     1       5.658   5.579  17.284  0.00  0.00    +0.000 NA
BRANCH   3   4
ATOM      4  S   UNL     1       7.150   5.436  16.420  0.00  0.00    +0.000 S 
ATOM      5  O   UNL     1       7.680   6.787  16.376  0.00  0.00    +0.000 OA
ATOM      6  O   UNL     1       7.915   4.432  17.141  0.00  0.00    +0.000 OA
BRANCH   4   7
ATOM      7  C   UNL     1       6.715   4.851  14.672  0.00  0.00    +0.000 C 
ATOM      8  F   UNL     1       5.540   5.361  14.225  0.00  0.00    +0.000 F 
ATOM      9  F   UNL     1       7.672   5.242  13.779  0.00  0.00    +0.000 F 
ATOM     10  F   UNL     1       6.642   3.494  14.596  0.00  0.00    +0.000 F 
ENDBRANCH   4   7
ENDBRANCH   3   4
BRANCH   3  12
ATOM     11  C   UNL     1       3.759   7.141  17.883  0.00  0.00    +0.000 C 
ATOM     12  C   UNL     1       4.735   6.664  16.821  0.00  0.00    +0.000 C 
ENDBRANCH   3  12
ENDBRANCH   2   3
ENDBRANCH   1   2
BRANCH   1  13
ATOM     13  C   UNL     1       3.081   2.728  17.208  0.00  0.00    +0.000 C 
BRANCH  13  14
ATOM     14  N   UNL     1       2.380   3.022  18.474  0.00  0.00    +0.000 N 
ATOM     15  C   UNL     1       1.229   3.783  18.560  0.00  0.00    +0.000 A 
ATOM     16  C   UNL     1       0.848   3.781  19.864  0.00  0.00    +0.000 A 
ATOM     17  N   UNL     1       1.780   3.026  20.555  0.00  0.00    +0.000 N 
ATOM     18  C   UNL     1       1.738   2.779  21.994  0.00  0.00    +0.000 C 
ATOM     19  C   UNL     1       2.707   2.513  19.696  0.00  0.00    +0.000 A 
BRANCH  19  20
ATOM     20  C   UNL     1       3.770   1.646  20.032  0.00  0.00    +0.000 C 
ATOM     21  N   UNL     1       4.939   1.995  20.478  0.00  0.00    +0.000 NA
BRANCH  21  22
ATOM     22  O   UNL     1       5.708   0.842  20.676  0.00  0.00    +0.000 OA
ATOM     23  H   UNL     1       6.106   0.681  19.794  0.00  0.00    +0.000 HD
ENDBRANCH  21  22
ENDBRANCH  19  20
ENDBRANCH  13  14
ENDBRANCH   1  13
TORSDOF 9
ENDMDL
MODEL 4
REMARK VINA RESULT:      -6.3      4.886      6.652
REMARK  Name = 
REMARK  11 active torsions:
REMARK  status: ('A' for Active; 'I' for Inactive)
REMARK    1  A    between atoms: C_1  and  C_2
REMARK    2  A    between atoms: C_2  and  N_3
REMARK    3  A    between atoms: N_3  and  C_4
REMARK    4  A    between atoms: N_3  and  S_16
REMARK    5  A    between atoms: C_4  and  C_5
REMARK    6  A    between atoms: C_5  and  C_6
REMARK    7  A    between atoms: C_6  and  N_7
REMARK    8  A    between atoms: N_10  and  C_11
REMARK    9  A    between atoms: C_12  and  C_13
REMARK   10  A    between atoms: N_14  and  O_15
REMARK   11  A    between atoms: S_16  and  C_19
REMARK                            x       y       z     vdW  Elec       q    Type
REMARK                         _______ _______ _______ _____ _____    ______ ____
ROOT
ATOM      1  C   UNL     1       3.077   6.421  19.379  0.00  0.00    +0.000 C 
ENDROOT
BRANCH   1   2
ATOM      2  C   UNL     1       2.620   5.286  18.467  0.00  0.00    +0.000 C 
BRANCH   2   3
ATOM      3  N   UNL     1       3.145   3.963  18.903  0.00  0.00    +0.000 NA
BRANCH   3   4
ATOM      4  S   UNL     1       1.938   2.920  19.574  0.00  0.00    +0.000 S 
ATOM      5  O   UNL     1       0.675   3.529  19.194  0.00  0.00    +0.000 OA
ATOM      6  O   UNL     1       2.239   1.599  19.046  0.00  0.00    +0.000 OA
BRANCH   4   7
ATOM      7  C   UNL     1       2.149   2.979  21.455  0.00  0.00    +0.000 C 
ATOM      8  F   UNL     1       3.216   2.261  21.886  0.00  0.00    +0.000 F 
ATOM      9  F   UNL     1       2.347   4.262  21.879  0.00  0.00    +0.000 F 
ATOM     10  F   UNL     1       1.043   2.520  22.103  0.00  0.00    +0.000 F 
ENDBRANCH   4   7
ENDBRANCH   3   4
BRANCH   3  12
ATOM     11  C   UNL     1       4.415   4.080  16.717  0.00  0.00    +0.000 C 
ATOM     12  C   UNL     1       4.144   3.310  17.997  0.00  0.00    +0.000 C 
ENDBRANCH   3  12
ENDBRANCH   2   3
ENDBRANCH   1   2
BRANCH   1  13
ATOM     13  C   UNL     1       1.899   7.081  20.081  0.00  0.00    +0.000 C 
BRANCH  13  14
ATOM     14  N   UNL     1       1.667   8.435  19.543  0.00  0.00    +0.000 N 
ATOM     15  C   UNL     1       1.943   8.806  18.240  0.00  0.00    +0.000 A 
ATOM     16  C   UNL     1       1.545  10.097  18.100  0.00  0.00    +0.000 A 
ATOM     17  N   UNL     1       1.040  10.496  19.325  0.00  0.00    +0.000 N 
ATOM     18  C   UNL     1       0.508  11.829  19.603  0.00  0.00    +0.000 C 
ATOM     19  C   UNL     1       1.069   9.461  20.212  0.00  0.00    +0.000 A 
BRANCH  19  20
ATOM     20  C   UNL     1       0.578   9.480  21.537  0.00  0.00    +0.000 C 
ATOM     21  N   UNL     1       1.269   9.717  22.612  0.00  0.00    +0.000 NA
BRANCH  21  22
ATOM     22  O   UNL     1       0.418   9.629  23.721  0.00  0.00    +0.000 OA
ATOM     23  H   UNL     1       1.030   9.721  24.482  0.00  0.00    +0.000 HD
ENDBRANCH  21  22
ENDBRANCH  19  20
ENDBRANCH  13  14
ENDBRANCH   1  13
TORSDOF 9
ENDMDL
MODEL 5
REMARK VINA RESULT:      -6.3      2.558      3.159
REMARK  Name = 
REMARK  11 active torsions:
REMARK  status: ('A' for Active; 'I' for Inactive)
REMARK    1  A    between atoms: C_1  and  C_2
REMARK    2  A    between atoms: C_2  and  N_3
REMARK    3  A    between atoms: N_3  and  C_4
REMARK    4  A    between atoms: N_3  and  S_16
REMARK    5  A    between atoms: C_4  and  C_5
REMARK    6  A    between atoms: C_5  and  C_6
REMARK    7  A    between atoms: C_6  and  N_7
REMARK    8  A    between atoms: N_10  and  C_11
REMARK    9  A    between atoms: C_12  and  C_13
REMARK   10  A    between atoms: N_14  and  O_15
REMARK   11  A    between atoms: S_16  and  C_19
REMARK                            x       y       z     vdW  Elec       q    Type
REMARK                         _______ _______ _______ _____ _____    ______ ____
ROOT
ATOM      1  C   UNL     1       3.833   3.906  16.622  0.00  0.00    +0.000 C 
ENDROOT
BRANCH   1   2
ATOM      2  C   UNL     1       4.941   4.937  16.817  0.00  0.00    +0.000 C 
BRANCH   2   3
ATOM      3  N   UNL     1       5.276   5.145  18.252  0.00  0.00    +0.000 NA
BRANCH   3   4
ATOM      4  S   UNL     1       6.965   5.379  18.547  0.00  0.00    +0.000 S 
ATOM      5  O   UNL     1       7.076   5.472  19.992  0.00  0.00    +0.000 OA
ATOM      6  O   UNL     1       7.626   4.266  17.887  0.00  0.00    +0.000 OA
BRANCH   4   7
ATOM      7  C   UNL     1       7.433   7.033  17.752  0.00  0.00    +0.000 C 
ATOM      8  F   UNL     1       8.399   7.692  18.440  0.00  0.00    +0.000 F 
ATOM      9  F   UNL     1       7.918   6.842  16.489  0.00  0.00    +0.000 F 
ATOM     10  F   UNL     1       6.359   7.861  17.636  0.00  0.00    +0.000 F 
ENDBRANCH   4   7
ENDBRANCH   3   4
BRANCH   3  12
ATOM     11  C   UNL     1       3.399   6.840  18.174  0.00  0.00    +0.000 C 
ATOM     12  C   UNL     1       4.347   6.022  19.034  0.00  0.00    +0.000 C 
ENDBRANCH   3  12
ENDBRANCH   2   3
ENDBRANCH   1   2
BRANCH   1  13
ATOM     13  C   UNL     1       3.894   2.815  17.682  0.00  0.00    +0.000 C 
BRANCH  13  14
ATOM     14  N   UNL     1       2.844   3.021  18.699  0.00  0.00    +0.000 N 
ATOM     15  C   UNL     1       1.644   3.661  18.450  0.00  0.00    +0.000 A 
ATOM     16  C   UNL     1       0.918   3.605  19.597  0.00  0.00    +0.000 A 
ATOM     17  N   UNL     1       1.693   2.940  20.531  0.00  0.00    +0.000 N 
ATOM     18  C   UNL     1       1.279   2.672  21.907  0.00  0.00    +0.000 C 
ATOM     19  C   UNL     1       2.868   2.534  19.972  0.00  0.00    +0.000 A 
BRANCH  19  20
ATOM     20  C   UNL     1       3.878   1.774  20.604  0.00  0.00    +0.000 C 
ATOM     21  N   UNL     1       5.069   2.186  20.922  0.00  0.00    +0.000 NA
BRANCH  21  22
ATOM     22  O   UNL     1       5.767   1.128  21.517  0.00  0.00    +0.000 OA
ATOM     23  H   UNL     1       5.088   0.698  22.079  0.00  0.00    +0.000 HD
ENDBRANCH  21  22
ENDBRANCH  19  20
ENDBRANCH  13  14
ENDBRANCH   1  13
TORSDOF 9
ENDMDL
MODEL 6
REMARK VINA RESULT:      -6.3      4.847      6.384
REMARK  Name = 
REMARK  11 active torsions:
REMARK  status: ('A' for Active; 'I' for Inactive)
REMARK    1  A    between atoms: C_1  and  C_2
REMARK    2  A    between atoms: C_2  and  N_3
REMARK    3  A    between atoms: N_3  and  C_4
REMARK    4  A    between atoms: N_3  and  S_16
REMARK    5  A    between atoms: C_4  and  C_5
REMARK    6  A    between atoms: C_5  and  C_6
REMARK    7  A    between atoms: C_6  and  N_7
REMARK    8  A    between atoms: N_10  and  C_11
REMARK    9  A    between atoms: C_12  and  C_13
REMARK   10  A    between atoms: N_14  and  O_15
REMARK   11  A    between atoms: S_16  and  C_19
REMARK                            x       y       z     vdW  Elec       q    Type
REMARK                         _______ _______ _______ _____ _____    ______ ____
ROOT
ATOM      1  C   UNL     1       3.000   6.733  18.709  0.00  0.00    +0.000 C 
ENDROOT
BRANCH   1   2
ATOM      2  C   UNL     1       2.710   5.247  18.515  0.00  0.00    +0.000 C 
BRANCH   2   3
ATOM      3  N   UNL     1       3.754   4.381  19.128  0.00  0.00    +0.000 NA
BRANCH   3   4
ATOM      4  S   UNL     1       3.139   2.900  19.777  0.00  0.00    +0.000 S 
ATOM      5  O   UNL     1       2.461   2.263  18.661  0.00  0.00    +0.000 OA
ATOM      6  O   UNL     1       4.294   2.222  20.343  0.00  0.00    +0.000 OA
BRANCH   4   7
ATOM      7  C   UNL     1       1.887   3.369  21.117  0.00  0.00    +0.000 C 
ATOM      8  F   UNL     1       0.665   3.673  20.612  0.00  0.00    +0.000 F 
ATOM      9  F   UNL     1       1.699   2.333  21.988  0.00  0.00    +0.000 F 
ATOM     10  F   UNL     1       2.312   4.429  21.859  0.00  0.00    +0.000 F 
ENDBRANCH   4   7
ENDBRANCH   3   4
BRANCH   3  12
ATOM     11  C   UNL     1       6.182   5.086  19.017  0.00  0.00    +0.000 C 
ATOM     12  C   UNL     1       5.056   4.283  18.392  0.00  0.00    +0.000 C 
ENDBRANCH   3  12
ENDBRANCH   2   3
ENDBRANCH   1   2
BRANCH   1  13
ATOM     13  C   UNL     1       2.170   7.319  19.842  0.00  0.00    +0.000 C 
BRANCH  13  14
ATOM     14  N   UNL     1       1.565   8.601  19.433  0.00  0.00    +0.000 N 
ATOM     15  C   UNL     1       1.575   9.079  18.135  0.00  0.00    +0.000 A 
ATOM     16  C   UNL     1       0.876  10.244  18.135  0.00  0.00    +0.000 A 
ATOM     17  N   UNL     1       0.458  10.462  19.436  0.00  0.00    +0.000 N 
ATOM     18  C   UNL     1      -0.324  11.618  19.868  0.00  0.00    +0.000 C 
ATOM     19  C   UNL     1       0.840   9.428  20.238  0.00  0.00    +0.000 A 
BRANCH  19  20
ATOM     20  C   UNL     1       0.537   9.276  21.610  0.00  0.00    +0.000 C 
ATOM     21  N   UNL     1       0.906  10.065  22.573  0.00  0.00    +0.000 NA
BRANCH  21  22
ATOM     22  O   UNL     1       0.414   9.559  23.783  0.00  0.00    +0.000 OA
ATOM     23  H   UNL     1      -0.269   8.916  23.497  0.00  0.00    +0.000 HD
ENDBRANCH  21  22
ENDBRANCH  19  20
ENDBRANCH  13  14
ENDBRANCH   1  13
TORSDOF 9
ENDMDL
MODEL 7
REMARK VINA RESULT:      -6.3      0.865      1.009
REMARK  Name = 
REMARK  11 active torsions:
REMARK  status: ('A' for Active; 'I' for Inactive)
REMARK    1  A    between atoms: C_1  and  C_2
REMARK    2  A    between atoms: C_2  and  N_3
REMARK    3  A    between atoms: N_3  and  C_4
REMARK    4  A    between atoms: N_3  and  S_16
REMARK    5  A    between atoms: C_4  and  C_5
REMARK    6  A    between atoms: C_5  and  C_6
REMARK    7  A    between atoms: C_6  and  N_7
REMARK    8  A    between atoms: N_10  and  C_11
REMARK    9  A    between atoms: C_12  and  C_13
REMARK   10  A    between atoms: N_14  and  O_15
REMARK   11  A    between atoms: S_16  and  C_19
REMARK                            x       y       z     vdW  Elec       q    Type
REMARK                         _______ _______ _______ _____ _____    ______ ____
ROOT
ATOM      1  C   UNL     1       3.974   6.688  17.894  0.00  0.00    +0.000 C 
ENDROOT
BRANCH   1   2
ATOM      2  C   UNL     1       5.493   6.788  17.785  0.00  0.00    +0.000 C 
BRANCH   2   3
ATOM      3  N   UNL     1       6.096   5.580  17.156  0.00  0.00    +0.000 NA
BRANCH   3   4
ATOM      4  S   UNL     1       6.231   5.684  15.434  0.00  0.00    +0.000 S 
ATOM      5  O   UNL     1       5.398   6.817  15.068  0.00  0.00    +0.000 OA
ATOM      6  O   UNL     1       7.657   5.778  15.168  0.00  0.00    +0.000 OA
BRANCH   4   7
ATOM      7  C   UNL     1       5.499   4.085  14.732  0.00  0.00    +0.000 C 
ATOM      8  F   UNL     1       4.980   4.247  13.489  0.00  0.00    +0.000 F 
ATOM      9  F   UNL     1       6.460   3.119  14.628  0.00  0.00    +0.000 F 
ATOM     10  F   UNL     1       4.523   3.580  15.535  0.00  0.00    +0.000 F 
ENDBRANCH   4   7
ENDBRANCH   3   4
BRANCH   3  12
ATOM     11  C   UNL     1       7.796   5.810  19.017  0.00  0.00    +0.000 C 
ATOM     12  C   UNL     1       7.265   4.970  17.868  0.00  0.00    +0.000 C 
ENDBRANCH   3  12
ENDBRANCH   2   3
ENDBRANCH   1   2
BRANCH   1  13
ATOM     13  C   UNL     1       3.506   5.241  17.852  0.00  0.00    +0.000 C 
BRANCH  13  14
ATOM     14  N   UNL     1       2.891   4.857  19.138  0.00  0.00    +0.000 N 
ATOM     15  C   UNL     1       2.024   5.666  19.850  0.00  0.00    +0.000 A 
ATOM     16  C   UNL     1       1.622   4.957  20.937  0.00  0.00    +0.000 A 
ATOM     17  N   UNL     1       2.259   3.730  20.875  0.00  0.00    +0.000 N 
ATOM     18  C   UNL     1       2.101   2.667  21.866  0.00  0.00    +0.000 C 
ATOM     19  C   UNL     1       3.011   3.641  19.741  0.00  0.00    +0.000 A 
BRANCH  19  20
ATOM     20  C   UNL     1       3.748   2.515  19.311  0.00  0.00    +0.000 C 
ATOM     21  N   UNL     1       3.316   1.553  18.553  0.00  0.00    +0.000 NA
BRANCH  21  22
ATOM     22  O   UNL     1       4.348   0.624  18.371  0.00  0.00    +0.000 OA
ATOM     23  H   UNL     1       3.906  -0.117  17.905  0.00  0.00    +0.000 HD
ENDBRANCH  21  22
ENDBRANCH  19  20
ENDBRANCH  13  14
ENDBRANCH   1  13
TORSDOF 9
ENDMDL
MODEL 8
REMARK VINA RESULT:      -6.2      1.722      2.148
REMARK  Name = 
REMARK  11 active torsions:
REMARK  status: ('A' for Active; 'I' for Inactive)
REMARK    1  A    between atoms: C_1  and  C_2
REMARK    2  A    between atoms: C_2  and  N_3
REMARK    3  A    between atoms: N_3  and  C_4
REMARK    4  A    between atoms: N_3  and  S_16
REMARK    5  A    between atoms: C_4  and  C_5
REMARK    6  A    between atoms: C_5  and  C_6
REMARK    7  A    between atoms: C_6  and  N_7
REMARK    8  A    between atoms: N_10  and  C_11
REMARK    9  A    between atoms: C_12  and  C_13
REMARK   10  A    between atoms: N_14  and  O_15
REMARK   11  A    between atoms: S_16  and  C_19
REMARK                            x       y       z     vdW  Elec       q    Type
REMARK                         _______ _______ _______ _____ _____    ______ ____
ROOT
ATOM      1  C   UNL     1       4.175   6.872  18.132  0.00  0.00    +0.000 C 
ENDROOT
BRANCH   1   2
ATOM      2  C   UNL     1       5.292   6.728  17.103  0.00  0.00    +0.000 C 
BRANCH   2   3
ATOM      3  N   UNL     1       6.439   5.931  17.619  0.00  0.00    +0.000 NA
BRANCH   3   4
ATOM      4  S   UNL     1       6.744   4.485  16.718  0.00  0.00    +0.000 S 
ATOM      5  O   UNL     1       8.105   4.116  17.066  0.00  0.00    +0.000 OA
ATOM      6  O   UNL     1       5.678   3.570  17.091  0.00  0.00    +0.000 OA
BRANCH   4   7
ATOM      7  C   UNL     1       6.646   4.953  14.886  0.00  0.00    +0.000 C 
ATOM      8  F   UNL     1       6.558   3.872  14.071  0.00  0.00    +0.000 F 
ATOM      9  F   UNL     1       5.539   5.715  14.640  0.00  0.00    +0.000 F 
ATOM     10  F   UNL     1       7.721   5.691  14.493  0.00  0.00    +0.000 F 
ENDBRANCH   4   7
ENDBRANCH   3   4
BRANCH   3  12
ATOM     11  C   UNL     1       7.680   8.134  17.543  0.00  0.00    +0.000 C 
ATOM     12  C   UNL     1       7.649   6.703  18.048  0.00  0.00    +0.000 C 
ENDBRANCH   3  12
ENDBRANCH   2   3
ENDBRANCH   1   2
BRANCH   1  13
ATOM     13  C   UNL     1       4.181   5.720  19.127  0.00  0.00    +0.000 C 
BRANCH  13  14
ATOM     14  N   UNL     1       3.064   4.795  18.856  0.00  0.00    +0.000 N 
ATOM     15  C   UNL     1       2.064   5.042  17.933  0.00  0.00    +0.000 A 
ATOM     16  C   UNL     1       1.258   3.948  17.918  0.00  0.00    +0.000 A 
ATOM     17  N   UNL     1       1.774   3.055  18.840  0.00  0.00    +0.000 N 
ATOM     18  C   UNL     1       1.194   1.747  19.136  0.00  0.00    +0.000 C 
ATOM     19  C   UNL     1       2.918   3.550  19.393  0.00  0.00    +0.000 A 
BRANCH  19  20
ATOM     20  C   UNL     1       3.752   2.891  20.324  0.00  0.00    +0.000 C 
ATOM     21  N   UNL     1       4.772   2.136  20.047  0.00  0.00    +0.000 NA
BRANCH  21  22
ATOM     22  O   UNL     1       5.321   1.664  21.246  0.00  0.00    +0.000 OA
ATOM     23  H   UNL     1       6.209   1.346  20.978  0.00  0.00    +0.000 HD
ENDBRANCH  21  22
ENDBRANCH  19  20
ENDBRANCH  13  14
ENDBRANCH   1  13
TORSDOF 9
ENDMDL
MODEL 9
REMARK VINA RESULT:      -6.2      2.514      3.621
REMARK  Name = 
REMARK  11 active torsions:
REMARK  status: ('A' for Active; 'I' for Inactive)
REMARK    1  A    between atoms: C_1  and  C_2
REMARK    2  A    between atoms: C_2  and  N_3
REMARK    3  A    between atoms: N_3  and  C_4
REMARK    4  A    between atoms: N_3  and  S_16
REMARK    5  A    between atoms: C_4  and  C_5
REMARK    6  A    between atoms: C_5  and  C_6
REMARK    7  A    between atoms: C_6  and  N_7
REMARK    8  A    between atoms: N_10  and  C_11
REMARK    9  A    between atoms: C_12  and  C_13
REMARK   10  A    between atoms: N_14  and  O_15
REMARK   11  A    between atoms: S_16  and  C_19
REMARK                            x       y       z     vdW  Elec       q    Type
REMARK                         _______ _______ _______ _____ _____    ______ ____
ROOT
ATOM      1  C   UNL     1       3.981   3.433  18.005  0.00  0.00    +0.000 C 
ENDROOT
BRANCH   1   2
ATOM      2  C   UNL     1       4.994   3.446  16.863  0.00  0.00    +0.000 C 
BRANCH   2   3
ATOM      3  N   UNL     1       5.653   4.772  16.706  0.00  0.00    +0.000 NA
BRANCH   3   4
ATOM      4  S   UNL     1       7.064   4.970  17.688  0.00  0.00    +0.000 S 
ATOM      5  O   UNL     1       6.662   4.508  19.005  0.00  0.00    +0.000 OA
ATOM      6  O   UNL     1       8.113   4.233  17.002  0.00  0.00    +0.000 OA
BRANCH   4   7
ATOM      7  C   UNL     1       7.439   6.826  17.737  0.00  0.00    +0.000 C 
ATOM      8  F   UNL     1       8.057   7.266  16.613  0.00  0.00    +0.000 F 
ATOM      9  F   UNL     1       6.286   7.549  17.854  0.00  0.00    +0.000 F 
ATOM     10  F   UNL     1       8.217   7.157  18.804  0.00  0.00    +0.000 F 
ENDBRANCH   4   7
ENDBRANCH   3   4
BRANCH   3  12
ATOM     11  C   UNL     1       5.866   4.236  14.241  0.00  0.00    +0.000 C 
ATOM     12  C   UNL     1       5.747   5.309  15.310  0.00  0.00    +0.000 C 
ENDBRANCH   3  12
ENDBRANCH   2   3
ENDBRANCH   1   2
BRANCH   1  13
ATOM     13  C   UNL     1       2.685   4.124  17.608  0.00  0.00    +0.000 C 
BRANCH  13  14
ATOM     14  N   UNL     1       2.546   5.412  18.315  0.00  0.00    +0.000 N 
ATOM     15  C   UNL     1       2.760   6.644  17.724  0.00  0.00    +0.000 A 
ATOM     16  C   UNL     1       2.479   7.588  18.660  0.00  0.00    +0.000 A 
ATOM     17  N   UNL     1       2.107   6.916  19.811  0.00  0.00    +0.000 N 
ATOM     18  C   UNL     1       1.728   7.568  21.062  0.00  0.00    +0.000 C 
ATOM     19  C   UNL     1       2.100   5.569  19.594  0.00  0.00    +0.000 A 
BRANCH  19  20
ATOM     20  C   UNL     1       1.713   4.574  20.519  0.00  0.00    +0.000 C 
ATOM     21  N   UNL     1       0.928   3.566  20.283  0.00  0.00    +0.000 NA
BRANCH  21  22
ATOM     22  O   UNL     1       0.785   2.822  21.461  0.00  0.00    +0.000 OA
ATOM     23  H   UNL     1       0.806   3.507  22.164  0.00  0.00    +0.000 HD
ENDBRANCH  21  22
ENDBRANCH  19  20
ENDBRANCH  13  14
ENDBRANCH   1  13
TORSDOF 9
ENDMDL
