MODEL 1
REMARK VINA RESULT:      -5.5      0.000      0.000
REMARK  Name = 
REMARK  5 active torsions:
REMARK  status: ('A' for Active; 'I' for Inactive)
REMARK    1  A    between atoms: C_1  and  N_2
REMARK    2  A    between atoms: N_2  and  C_3
REMARK    3  A    between atoms: C_3  and  C_4
REMARK    4  A    between atoms: C_4  and  O_5
REMARK    5  A    between atoms: O_5  and  C_6
REMARK                            x       y       z     vdW  Elec       q    Type
REMARK                         _______ _______ _______ _____ _____    ______ ____
ROOT
ATOM      1  C   UNL     1       6.449   5.330  19.299  0.00  0.00    +0.000 C 
ENDROOT
BRANCH   1   2
ATOM      2  C   UNL     1       7.160   5.743  17.997  0.00  0.00    +0.000 C 
ATOM      3  C   UNL     1       7.767   7.121  17.827  0.00  0.00    +0.000 C 
ATOM      4  C   UNL     1       6.390   6.803  17.223  0.00  0.00    +0.000 C 
BRANCH   2   6
ATOM      5  C   UNL     1       6.955   4.680  15.824  0.00  0.00    +0.000 C 
ATOM      6  N   UNL     1       7.675   4.705  17.096  0.00  0.00    +0.000 NA
ATOM      7  H   UNL     1       8.696   4.859  16.914  0.00  0.00    +0.000 HD
ENDBRANCH   2   6
ENDBRANCH   1   2
BRANCH   1   8
ATOM      8  O   UNL     1       5.716   4.175  19.116  0.00  0.00    +0.000 OA
BRANCH   8   9
ATOM      9  C   UNL     1       4.419   4.141  18.702  0.00  0.00    +0.000 A 
ATOM     10  C   UNL     1       3.977   3.317  17.648  0.00  0.00    +0.000 A 
ATOM     11  C   UNL     1       2.638   3.337  17.259  0.00  0.00    +0.000 A 
ATOM     12  C   UNL     1       1.745   4.181  17.921  0.00  0.00    +0.000 A 
ATOM     13  N   UNL     1       2.180   4.967  18.940  0.00  0.00    +0.000 NA
ATOM     14  C   UNL     1       3.481   4.966  19.341  0.00  0.00    +0.000 A 
ENDBRANCH   8   9
ENDBRANCH   1   8
TORSDOF 4
ENDMDL
MODEL 2
REMARK VINA RESULT:      -5.5      2.261      2.875
REMARK  Name = 
REMARK  5 active torsions:
REMARK  status: ('A' for Active; 'I' for Inactive)
REMARK    1  A    between atoms: C_1  and  N_2
REMARK    2  A    between atoms: N_2  and  C_3
REMARK    3  A    between atoms: C_3  and  C_4
REMARK    4  A    between atoms: C_4  and  O_5
REMARK    5  A    between atoms: O_5  and  C_6
REMARK                            x       y       z     vdW  Elec       q    Type
REMARK                         _______ _______ _______ _____ _____    ______ ____
ROOT
ATOM      1  C   UNL     1       4.055   3.521  17.148  0.00  0.00    +0.000 C 
ENDROOT
BRANCH   1   2
ATOM      2  C   UNL     1       5.038   4.568  17.703  0.00  0.00    +0.000 C 
ATOM      3  C   UNL     1       4.578   5.954  18.103  0.00  0.00    +0.000 C 
ATOM      4  C   UNL     1       5.256   5.728  16.743  0.00  0.00    +0.000 C 
BRANCH   2   6
ATOM      5  C   UNL     1       7.460   4.630  17.542  0.00  0.00    +0.000 C 
ATOM      6  N   UNL     1       6.309   4.124  18.289  0.00  0.00    +0.000 NA
ATOM      7  H   UNL     1       6.376   4.439  19.286  0.00  0.00    +0.000 HD
ENDBRANCH   2   6
ENDBRANCH   1   2
BRANCH   1   8
ATOM      8  O   UNL     1       3.820   2.525  18.076  0.00  0.00    +0.000 OA
BRANCH   8   9
ATOM      9  C   UNL     1       3.063   2.677  19.197  0.00  0.00    +0.000 A 
ATOM     10  C   UNL     1       1.709   3.067  19.155  0.00  0.00    +0.000 A 
ATOM     11  C   UNL     1       0.989   3.221  20.339  0.00  0.00    +0.000 A 
ATOM     12  C   UNL     1       1.622   2.988  21.561  0.00  0.00    +0.000 A 
ATOM     13  N   UNL     1       2.925   2.605  21.590  0.00  0.00    +0.000 NA
ATOM     14  C   UNL     1       3.651   2.446  20.449  0.00  0.00    +0.000 A 
ENDBRANCH   8   9
ENDBRANCH   1   8
TORSDOF 4
ENDMDL
MODEL 3
REMARK VINA RESULT:      -5.5      1.332      1.630
REMARK  Name = 
REMARK  5 active torsions:
REMARK  status: ('A' for Active; 'I' for Inactive)
REMARK    1  A    between atoms: C_1  and  N_2
REMARK    2  A    between atoms: N_2  and  C_3
REMARK    3  A    between atoms: C_3  and  C_4
REMARK    4  A    between atoms: C_4  and  O_5
REMARK    5  A    between atoms: O_5  and  C_6
REMARK                            x       y       z     vdW  Elec       q    Type
REMARK                         _______ _______ _______ _____ _____    ______ ____
ROOT
ATOM      1  C   UNL     1       5.505   5.245  17.957  0.00  0.00    +0.000 C 
ENDROOT
BRANCH   1   2
ATOM      2  C   UNL     1       7.041   5.324  17.882  0.00  0.00    +0.000 C 
ATOM      3  C   UNL     1       7.871   5.781  19.065  0.00  0.00    +0.000 C 
ATOM      4  C   UNL     1       7.554   6.756  17.920  0.00  0.00    +0.000 C 
BRANCH   2   6
ATOM      5  C   UNL     1       7.111   4.620  15.560  0.00  0.00    +0.000 C 
ATOM      6  N   UNL     1       7.755   4.536  16.870  0.00  0.00    +0.000 NA
ATOM      7  H   UNL     1       8.747   4.864  16.791  0.00  0.00    +0.000 HD
ENDBRANCH   2   6
ENDBRANCH   1   2
BRANCH   1   8
ATOM      8  O   UNL     1       5.092   3.969  18.285  0.00  0.00    +0.000 OA
BRANCH   8   9
ATOM      9  C   UNL     1       3.791   3.575  18.364  0.00  0.00    +0.000 A 
ATOM     10  C   UNL     1       2.727   4.356  17.868  0.00  0.00    +0.000 A 
ATOM     11  C   UNL     1       1.414   3.906  17.991  0.00  0.00    +0.000 A 
ATOM     12  C   UNL     1       1.164   2.680  18.610  0.00  0.00    +0.000 A 
ATOM     13  N   UNL     1       2.197   1.932  19.078  0.00  0.00    +0.000 NA
ATOM     14  C   UNL     1       3.489   2.347  18.970  0.00  0.00    +0.000 A 
ENDBRANCH   8   9
ENDBRANCH   1   8
TORSDOF 4
ENDMDL
MODEL 4
REMARK VINA RESULT:      -5.4      1.381      1.818
REMARK  Name = 
REMARK  5 active torsions:
REMARK  status: ('A' for Active; 'I' for Inactive)
REMARK    1  A    between atoms: C_1  and  N_2
REMARK    2  A    between atoms: N_2  and  C_3
REMARK    3  A    between atoms: C_3  and  C_4
REMARK    4  A    between atoms: C_4  and  O_5
REMARK    5  A    between atoms: O_5  and  C_6
REMARK                            x       y       z     vdW  Elec       q    Type
REMARK                         _______ _______ _______ _____ _____    ______ ____
ROOT
ATOM      1  C   UNL     1       5.245   6.780  17.378  0.00  0.00    +0.000 C 
ENDROOT
BRANCH   1   2
ATOM      2  C   UNL     1       6.745   6.491  17.188  0.00  0.00    +0.000 C 
ATOM      3  C   UNL     1       7.677   6.325  18.371  0.00  0.00    +0.000 C 
ATOM      4  C   UNL     1       7.622   7.661  17.612  0.00  0.00    +0.000 C 
BRANCH   2   6
ATOM      5  C   UNL     1       7.141   4.455  15.928  0.00  0.00    +0.000 C 
ATOM      6  N   UNL     1       7.214   5.915  15.922  0.00  0.00    +0.000 NA
ATOM      7  H   UNL     1       6.646   6.288  15.124  0.00  0.00    +0.000 HD
ENDBRANCH   2   6
ENDBRANCH   1   2
BRANCH   1   8
ATOM      8  O   UNL     1       4.715   5.995  18.382  0.00  0.00    +0.000 OA
BRANCH   8   9
ATOM      9  C   UNL     1       3.879   4.939  18.178  0.00  0.00    +0.000 A 
ATOM     10  C   UNL     1       2.503   5.096  17.917  0.00  0.00    +0.000 A 
ATOM     11  C   UNL     1       1.695   3.976  17.732  0.00  0.00    +0.000 A 
ATOM     12  C   UNL     1       2.261   2.702  17.808  0.00  0.00    +0.000 A 
ATOM     13  N   UNL     1       3.590   2.562  18.053  0.00  0.00    +0.000 NA
ATOM     14  C   UNL     1       4.402   3.639  18.237  0.00  0.00    +0.000 A 
ENDBRANCH   8   9
ENDBRANCH   1   8
TORSDOF 4
ENDMDL
MODEL 5
REMARK VINA RESULT:      -5.4      1.624      4.624
REMARK  Name = 
REMARK  5 active torsions:
REMARK  status: ('A' for Active; 'I' for Inactive)
REMARK    1  A    between atoms: C_1  and  N_2
REMARK    2  A    between atoms: N_2  and  C_3
REMARK    3  A    between atoms: C_3  and  C_4
REMARK    4  A    between atoms: C_4  and  O_5
REMARK    5  A    between atoms: O_5  and  C_6
REMARK                            x       y       z     vdW  Elec       q    Type
REMARK                         _______ _______ _______ _____ _____    ______ ____
ROOT
ATOM      1  C   UNL     1       4.176   3.412  19.493  0.00  0.00    +0.000 C 
ENDROOT
BRANCH   1   2
ATOM      2  C   UNL     1       3.115   4.406  20.002  0.00  0.00    +0.000 C 
ATOM      3  C   UNL     1       1.998   3.970  20.927  0.00  0.00    +0.000 C 
ATOM      4  C   UNL     1       1.735   4.134  19.422  0.00  0.00    +0.000 C 
BRANCH   2   6
ATOM      5  C   UNL     1       2.755   6.533  18.888  0.00  0.00    +0.000 C 
ATOM      6  N   UNL     1       3.414   5.844  19.996  0.00  0.00    +0.000 NA
ATOM      7  H   UNL     1       3.115   6.278  20.902  0.00  0.00    +0.000 HD
ENDBRANCH   2   6
ENDBRANCH   1   2
BRANCH   1   8
ATOM      8  O   UNL     1       5.347   4.065  19.164  0.00  0.00    +0.000 OA
BRANCH   8   9
ATOM      9  C   UNL     1       5.795   4.253  17.891  0.00  0.00    +0.000 A 
ATOM     10  C   UNL     1       4.968   4.088  16.761  0.00  0.00    +0.000 A 
ATOM     11  C   UNL     1       5.488   4.280  15.482  0.00  0.00    +0.000 A 
ATOM     12  C   UNL     1       6.831   4.633  15.333  0.00  0.00    +0.000 A 
ATOM     13  N   UNL     1       7.616   4.796  16.430  0.00  0.00    +0.000 NA
ATOM     14  C   UNL     1       7.134   4.616  17.690  0.00  0.00    +0.000 A 
ENDBRANCH   8   9
ENDBRANCH   1   8
TORSDOF 4
ENDMDL
MODEL 6
REMARK VINA RESULT:      -5.4      1.760      5.041
REMARK  Name = 
REMARK  5 active torsions:
REMARK  status: ('A' for Active; 'I' for Inactive)
REMARK    1  A    between atoms: C_1  and  N_2
REMARK    2  A    between atoms: N_2  and  C_3
REMARK    3  A    between atoms: C_3  and  C_4
REMARK    4  A    between atoms: C_4  and  O_5
REMARK    5  A    between atoms: O_5  and  C_6
REMARK                            x       y       z     vdW  Elec       q    Type
REMARK                         _______ _______ _______ _____ _____    ______ ____
ROOT
ATOM      1  C   UNL     1       3.599   4.292  18.908  0.00  0.00    +0.000 C 
ENDROOT
BRANCH   1   2
ATOM      2  C   UNL     1       3.152   2.891  19.365  0.00  0.00    +0.000 C 
ATOM      3  C   UNL     1       3.428   1.659  18.528  0.00  0.00    +0.000 C 
ATOM      4  C   UNL     1       2.041   2.321  18.495  0.00  0.00    +0.000 C 
BRANCH   2   6
ATOM      5  C   UNL     1       2.154   3.756  21.401  0.00  0.00    +0.000 C 
ATOM      6  N   UNL     1       2.884   2.648  20.788  0.00  0.00    +0.000 NA
ATOM      7  H   UNL     1       2.335   1.763  20.905  0.00  0.00    +0.000 HD
ENDBRANCH   2   6
ENDBRANCH   1   2
BRANCH   1   8
ATOM      8  O   UNL     1       4.967   4.338  18.723  0.00  0.00    +0.000 OA
BRANCH   8   9
ATOM      9  C   UNL     1       5.579   4.443  17.511  0.00  0.00    +0.000 A 
ATOM     10  C   UNL     1       4.880   4.327  16.292  0.00  0.00    +0.000 A 
ATOM     11  C   UNL     1       5.564   4.429  15.082  0.00  0.00    +0.000 A 
ATOM     12  C   UNL     1       6.943   4.643  15.090  0.00  0.00    +0.000 A 
ATOM     13  N   UNL     1       7.606   4.760  16.271  0.00  0.00    +0.000 NA
ATOM     14  C   UNL     1       6.962   4.667  17.467  0.00  0.00    +0.000 A 
ENDBRANCH   8   9
ENDBRANCH   1   8
TORSDOF 4
ENDMDL
MODEL 7
REMARK VINA RESULT:      -5.3      1.853      4.927
REMARK  Name = 
REMARK  5 active torsions:
REMARK  status: ('A' for Active; 'I' for Inactive)
REMARK    1  A    between atoms: C_1  and  N_2
REMARK    2  A    between atoms: N_2  and  C_3
REMARK    3  A    between atoms: C_3  and  C_4
REMARK    4  A    between atoms: C_4  and  O_5
REMARK    5  A    between atoms: O_5  and  C_6
REMARK                            x       y       z     vdW  Elec       q    Type
REMARK                         _______ _______ _______ _____ _____    ______ ____
ROOT
ATOM      1  C   UNL     1       2.365   4.391  18.018  0.00  0.00    +0.000 C 
ENDROOT
BRANCH   1   2
ATOM      2  C   UNL     1       1.909   3.266  18.966  0.00  0.00    +0.000 C 
ATOM      3  C   UNL     1       0.884   3.511  20.053  0.00  0.00    +0.000 C 
ATOM      4  C   UNL     1       2.382   3.481  20.396  0.00  0.00    +0.000 C 
BRANCH   2   6
ATOM      5  C   UNL     1       3.495   1.499  18.461  0.00  0.00    +0.000 C 
ATOM      6  N   UNL     1       2.084   1.866  18.559  0.00  0.00    +0.000 NA
ATOM      7  H   UNL     1       1.606   1.230  19.241  0.00  0.00    +0.000 HD
ENDBRANCH   2   6
ENDBRANCH   1   2
BRANCH   1   8
ATOM      8  O   UNL     1       3.443   5.073  18.546  0.00  0.00    +0.000 OA
BRANCH   8   9
ATOM      9  C   UNL     1       4.733   4.911  18.140  0.00  0.00    +0.000 A 
ATOM     10  C   UNL     1       5.081   4.626  16.804  0.00  0.00    +0.000 A 
ATOM     11  C   UNL     1       6.419   4.456  16.452  0.00  0.00    +0.000 A 
ATOM     12  C   UNL     1       7.406   4.567  17.433  0.00  0.00    +0.000 A 
ATOM     13  N   UNL     1       7.059   4.849  18.716  0.00  0.00    +0.000 NA
ATOM     14  C   UNL     1       5.761   5.022  19.087  0.00  0.00    +0.000 A 
ENDBRANCH   8   9
ENDBRANCH   1   8
TORSDOF 4
ENDMDL
MODEL 8
REMARK VINA RESULT:      -5.3      2.012      5.176
REMARK  Name = 
REMARK  5 active torsions:
REMARK  status: ('A' for Active; 'I' for Inactive)
REMARK    1  A    between atoms: C_1  and  N_2
REMARK    2  A    between atoms: N_2  and  C_3
REMARK    3  A    between atoms: C_3  and  C_4
REMARK    4  A    between atoms: C_4  and  O_5
REMARK    5  A    between atoms: O_5  and  C_6
REMARK                            x       y       z     vdW  Elec       q    Type
REMARK                         _______ _______ _______ _____ _____    ______ ____
ROOT
ATOM      1  C   UNL     1       3.156   2.916  19.376  0.00  0.00    +0.000 C 
ENDROOT
BRANCH   1   2
ATOM      2  C   UNL     1       2.337   3.628  20.469  0.00  0.00    +0.000 C 
ATOM      3  C   UNL     1       1.468   2.855  21.439  0.00  0.00    +0.000 C 
ATOM      4  C   UNL     1       0.838   3.548  20.220  0.00  0.00    +0.000 C 
BRANCH   2   6
ATOM      5  C   UNL     1       1.717   5.973  20.551  0.00  0.00    +0.000 C 
ATOM      6  N   UNL     1       2.728   4.977  20.899  0.00  0.00    +0.000 NA
ATOM      7  H   UNL     1       2.890   4.992  21.934  0.00  0.00    +0.000 HD
ENDBRANCH   2   6
ENDBRANCH   1   2
BRANCH   1   8
ATOM      8  O   UNL     1       3.434   3.774  18.330  0.00  0.00    +0.000 OA
BRANCH   8   9
ATOM      9  C   UNL     1       4.685   4.039  17.861  0.00  0.00    +0.000 A 
ATOM     10  C   UNL     1       5.012   3.981  16.491  0.00  0.00    +0.000 A 
ATOM     11  C   UNL     1       6.315   4.248  16.072  0.00  0.00    +0.000 A 
ATOM     12  C   UNL     1       7.287   4.570  17.021  0.00  0.00    +0.000 A 
ATOM     13  N   UNL     1       6.959   4.630  18.338  0.00  0.00    +0.000 NA
ATOM     14  C   UNL     1       5.695   4.375  18.774  0.00  0.00    +0.000 A 
ENDBRANCH   8   9
ENDBRANCH   1   8
TORSDOF 4
ENDMDL
MODEL 9
REMARK VINA RESULT:      -5.3      1.661      2.205
REMARK  Name = 
REMARK  5 active torsions:
REMARK  status: ('A' for Active; 'I' for Inactive)
REMARK    1  A    between atoms: C_1  and  N_2
REMARK    2  A    between atoms: N_2  and  C_3
REMARK    3  A    between atoms: C_3  and  C_4
REMARK    4  A    between atoms: C_4  and  O_5
REMARK    5  A    between atoms: O_5  and  C_6
REMARK                            x       y       z     vdW  Elec       q    Type
REMARK                         _______ _______ _______ _____ _____    ______ ____
ROOT
ATOM      1  C   UNL     1       5.491   3.913  16.285  0.00  0.00    +0.000 C 
ENDROOT
BRANCH   1   2
ATOM      2  C   UNL     1       6.777   4.742  16.459  0.00  0.00    +0.000 C 
ATOM      3  C   UNL     1       7.609   4.659  17.722  0.00  0.00    +0.000 C 
ATOM      4  C   UNL     1       6.633   5.828  17.515  0.00  0.00    +0.000 C 
BRANCH   2   6
ATOM      5  C   UNL     1       6.878   4.748  14.033  0.00  0.00    +0.000 C 
ATOM      6  N   UNL     1       7.472   5.253  15.270  0.00  0.00    +0.000 NA
ATOM      7  H   UNL     1       7.451   6.300  15.264  0.00  0.00    +0.000 HD
ENDBRANCH   2   6
ENDBRANCH   1   2
BRANCH   1   8
ATOM      8  O   UNL     1       4.433   4.499  16.952  0.00  0.00    +0.000 OA
BRANCH   8   9
ATOM      9  C   UNL     1       3.542   3.824  17.730  0.00  0.00    +0.000 A 
ATOM     10  C   UNL     1       2.147   3.955  17.579  0.00  0.00    +0.000 A 
ATOM     11  C   UNL     1       1.284   3.250  18.417  0.00  0.00    +0.000 A 
ATOM     12  C   UNL     1       1.815   2.417  19.404  0.00  0.00    +0.000 A 
ATOM     13  N   UNL     1       3.162   2.293  19.536  0.00  0.00    +0.000 NA
ATOM     14  C   UNL     1       4.027   2.969  18.731  0.00  0.00    +0.000 A 
ENDBRANCH   8   9
ENDBRANCH   1   8
TORSDOF 4
ENDMDL
