MODEL 1
REMARK VINA RESULT:      -7.0      0.000      0.000
REMARK  Name = 
REMARK  7 active torsions:
REMARK  status: ('A' for Active; 'I' for Inactive)
REMARK    1  A    between atoms: C_1  and  C_2
REMARK    2  A    between atoms: C_6  and  O_7
REMARK    3  A    between atoms: O_7  and  C_8
REMARK    4  A    between atoms: C_8  and  C_9
REMARK    5  A    between atoms: C_9  and  N_10
REMARK    6  A    between atoms: N_13  and  C_14
REMARK    7  A    between atoms: C_22  and  C_23
REMARK                            x       y       z     vdW  Elec       q    Type
REMARK                         _______ _______ _______ _____ _____    ______ ____
ROOT
ATOM      1  N   UNL     1       1.954   4.050  19.346  0.00  0.00    +0.000 NA
ATOM      2  C   UNL     1       1.117   4.735  20.366  0.00  0.00    +0.000 C 
ATOM      3  C   UNL     1       1.724   6.015  20.982  0.00  0.00    +0.000 C 
ATOM      4  N   UNL     1       2.270   6.930  19.967  0.00  0.00    +0.000 N 
ATOM      5  C   UNL     1       3.028   6.302  18.865  0.00  0.00    +0.000 C 
ATOM      6  C   UNL     1       2.291   5.059  18.317  0.00  0.00    +0.000 C 
ENDROOT
BRANCH   4   7
ATOM      7  C   UNL     1       1.667   8.144  19.670  0.00  0.00    +0.000 A 
ATOM      8  C   UNL     1       1.824   8.691  18.385  0.00  0.00    +0.000 A 
ATOM      9  C   UNL     1       1.220   9.895  18.017  0.00  0.00    +0.000 A 
ATOM     10  C   UNL     1       0.440  10.583  18.934  0.00  0.00    +0.000 A 
ATOM     11  C   UNL     1       0.278  10.073  20.220  0.00  0.00    +0.000 A 
ATOM     12  C   UNL     1       0.890   8.870  20.589  0.00  0.00    +0.000 A 
ENDBRANCH   4   7
BRANCH   1  13
ATOM     13  C   UNL     1       3.179   3.419  19.898  0.00  0.00    +0.000 C 
BRANCH  13  14
ATOM     14  C   UNL     1       4.035   2.791  18.790  0.00  0.00    +0.000 C 
BRANCH  14  15
ATOM     15  O   UNL     1       5.388   3.260  18.784  0.00  0.00    +0.000 OA
BRANCH  15  21
ATOM     16  C   UNL     1       7.638   7.460  17.429  0.00  0.00    +0.000 C 
ATOM     17  C   UNL     1       6.768   6.264  17.141  0.00  0.00    +0.000 A 
ATOM     18  C   UNL     1       6.280   6.104  15.838  0.00  0.00    +0.000 A 
ATOM     19  C   UNL     1       5.480   5.017  15.512  0.00  0.00    +0.000 A 
ATOM     20  C   UNL     1       5.173   4.073  16.481  0.00  0.00    +0.000 A 
ATOM     21  C   UNL     1       5.654   4.194  17.799  0.00  0.00    +0.000 A 
ATOM     22  C   UNL     1       6.443   5.312  18.143  0.00  0.00    +0.000 A 
ATOM     23  C   UNL     1       6.957   5.511  19.545  0.00  0.00    +0.000 C 
ENDBRANCH  15  21
ENDBRANCH  14  15
ENDBRANCH  13  14
ENDBRANCH   1  13
TORSDOF 5
ENDMDL
MODEL 2
REMARK VINA RESULT:      -6.9      4.245      7.132
REMARK  Name = 
REMARK  7 active torsions:
REMARK  status: ('A' for Active; 'I' for Inactive)
REMARK    1  A    between atoms: C_1  and  C_2
REMARK    2  A    between atoms: C_6  and  O_7
REMARK    3  A    between atoms: O_7  and  C_8
REMARK    4  A    between atoms: C_8  and  C_9
REMARK    5  A    between atoms: C_9  and  N_10
REMARK    6  A    between atoms: N_13  and  C_14
REMARK    7  A    between atoms: C_22  and  C_23
REMARK                            x       y       z     vdW  Elec       q    Type
REMARK                         _______ _______ _______ _____ _____    ______ ____
ROOT
ATOM      1  N   UNL     1       7.321   6.987  17.146  0.00  0.00    +0.000 NA
ATOM      2  C   UNL     1       7.512   5.944  18.188  0.00  0.00    +0.000 C 
ATOM      3  C   UNL     1       6.324   5.734  19.153  0.00  0.00    +0.000 C 
ATOM      4  N   UNL     1       5.035   5.625  18.450  0.00  0.00    +0.000 N 
ATOM      5  C   UNL     1       4.821   6.569  17.333  0.00  0.00    +0.000 C 
ATOM      6  C   UNL     1       6.071   6.654  16.427  0.00  0.00    +0.000 C 
ENDROOT
BRANCH   4   7
ATOM      7  C   UNL     1       4.338   4.428  18.372  0.00  0.00    +0.000 A 
ATOM      8  C   UNL     1       3.360   4.268  17.375  0.00  0.00    +0.000 A 
ATOM      9  C   UNL     1       2.645   3.078  17.228  0.00  0.00    +0.000 A 
ATOM     10  C   UNL     1       2.893   2.014  18.082  0.00  0.00    +0.000 A 
ATOM     11  C   UNL     1       3.845   2.148  19.089  0.00  0.00    +0.000 A 
ATOM     12  C   UNL     1       4.557   3.345  19.240  0.00  0.00    +0.000 A 
ENDBRANCH   4   7
BRANCH   1  13
ATOM     13  C   UNL     1       7.277   8.371  17.681  0.00  0.00    +0.000 C 
BRANCH  13  14
ATOM     14  C   UNL     1       8.549   8.709  18.470  0.00  0.00    +0.000 C 
BRANCH  14  15
ATOM     15  O   UNL     1       9.189   9.910  18.026  0.00  0.00    +0.000 OA
BRANCH  15  21
ATOM     16  C   UNL     1      11.624  13.961  19.507  0.00  0.00    +0.000 C 
ATOM     17  C   UNL     1      10.739  12.771  19.770  0.00  0.00    +0.000 A 
ATOM     18  C   UNL     1      10.243  12.595  21.067  0.00  0.00    +0.000 A 
ATOM     19  C   UNL     1       9.416  11.520  21.367  0.00  0.00    +0.000 A 
ATOM     20  C   UNL     1       9.066  10.621  20.370  0.00  0.00    +0.000 A 
ATOM     21  C   UNL     1       9.536  10.772  19.051  0.00  0.00    +0.000 A 
ATOM     22  C   UNL     1      10.401  11.846  18.747  0.00  0.00    +0.000 A 
ATOM     23  C   UNL     1      10.963  12.037  17.363  0.00  0.00    +0.000 C 
ENDBRANCH  15  21
ENDBRANCH  14  15
ENDBRANCH  13  14
ENDBRANCH   1  13
TORSDOF 5
ENDMDL
MODEL 3
REMARK VINA RESULT:      -6.9      2.715      6.883
REMARK  Name = 
REMARK  7 active torsions:
REMARK  status: ('A' for Active; 'I' for Inactive)
REMARK    1  A    between atoms: C_1  and  C_2
REMARK    2  A    between atoms: C_6  and  O_7
REMARK    3  A    between atoms: O_7  and  C_8
REMARK    4  A    between atoms: C_8  and  C_9
REMARK    5  A    between atoms: C_9  and  N_10
REMARK    6  A    between atoms: N_13  and  C_14
REMARK    7  A    between atoms: C_22  and  C_23
REMARK                            x       y       z     vdW  Elec       q    Type
REMARK                         _______ _______ _______ _____ _____    ______ ____
ROOT
ATOM      1  N   UNL     1       5.886   5.924  18.120  0.00  0.00    +0.000 NA
ATOM      2  C   UNL     1       6.563   4.649  17.765  0.00  0.00    +0.000 C 
ATOM      3  C   UNL     1       5.890   3.819  16.650  0.00  0.00    +0.000 C 
ATOM      4  N   UNL     1       5.529   4.632  15.477  0.00  0.00    +0.000 N 
ATOM      5  C   UNL     1       4.943   5.959  15.760  0.00  0.00    +0.000 C 
ATOM      6  C   UNL     1       5.735   6.694  16.865  0.00  0.00    +0.000 C 
ENDROOT
BRANCH   4   7
ATOM      7  C   UNL     1       6.193   4.510  14.265  0.00  0.00    +0.000 A 
ATOM      8  C   UNL     1       5.722   3.586  13.316  0.00  0.00    +0.000 A 
ATOM      9  C   UNL     1       6.331   3.437  12.068  0.00  0.00    +0.000 A 
ATOM     10  C   UNL     1       7.432   4.213  11.740  0.00  0.00    +0.000 A 
ATOM     11  C   UNL     1       7.930   5.127  12.666  0.00  0.00    +0.000 A 
ATOM     12  C   UNL     1       7.323   5.270  13.920  0.00  0.00    +0.000 A 
ENDBRANCH   4   7
BRANCH   1  13
ATOM     13  C   UNL     1       4.578   5.743  18.797  0.00  0.00    +0.000 C 
BRANCH  13  14
ATOM     14  C   UNL     1       3.536   6.746  18.282  0.00  0.00    +0.000 C 
BRANCH  14  15
ATOM     15  O   UNL     1       2.220   6.192  18.177  0.00  0.00    +0.000 OA
BRANCH  15  21
ATOM     16  C   UNL     1       1.343   2.638  21.514  0.00  0.00    +0.000 C 
ATOM     17  C   UNL     1       1.718   3.100  20.131  0.00  0.00    +0.000 A 
ATOM     18  C   UNL     1       1.948   2.125  19.152  0.00  0.00    +0.000 A 
ATOM     19  C   UNL     1       2.290   2.491  17.856  0.00  0.00    +0.000 A 
ATOM     20  C   UNL     1       2.389   3.834  17.524  0.00  0.00    +0.000 A 
ATOM     21  C   UNL     1       2.154   4.843  18.478  0.00  0.00    +0.000 A 
ATOM     22  C   UNL     1       1.835   4.476  19.803  0.00  0.00    +0.000 A 
ATOM     23  C   UNL     1       1.607   5.512  20.873  0.00  0.00    +0.000 C 
ENDBRANCH  15  21
ENDBRANCH  14  15
ENDBRANCH  13  14
ENDBRANCH   1  13
TORSDOF 5
ENDMDL
MODEL 4
REMARK VINA RESULT:      -6.9      4.201      7.161
REMARK  Name = 
REMARK  7 active torsions:
REMARK  status: ('A' for Active; 'I' for Inactive)
REMARK    1  A    between atoms: C_1  and  C_2
REMARK    2  A    between atoms: C_6  and  O_7
REMARK    3  A    between atoms: O_7  and  C_8
REMARK    4  A    between atoms: C_8  and  C_9
REMARK    5  A    between atoms: C_9  and  N_10
REMARK    6  A    between atoms: N_13  and  C_14
REMARK    7  A    between atoms: C_22  and  C_23
REMARK                            x       y       z     vdW  Elec       q    Type
REMARK                         _______ _______ _______ _____ _____    ______ ____
ROOT
ATOM      1  N   UNL     1       6.931   7.179  17.064  0.00  0.00    +0.000 NA
ATOM      2  C   UNL     1       7.096   5.831  16.461  0.00  0.00    +0.000 C 
ATOM      3  C   UNL     1       6.977   4.640  17.436  0.00  0.00    +0.000 C 
ATOM      4  N   UNL     1       5.802   4.743  18.317  0.00  0.00    +0.000 N 
ATOM      5  C   UNL     1       5.519   6.083  18.871  0.00  0.00    +0.000 C 
ATOM      6  C   UNL     1       5.636   7.174  17.782  0.00  0.00    +0.000 C 
ENDROOT
BRANCH   4   7
ATOM      7  C   UNL     1       4.707   3.900  18.184  0.00  0.00    +0.000 A 
ATOM      8  C   UNL     1       4.457   2.940  19.181  0.00  0.00    +0.000 A 
ATOM      9  C   UNL     1       3.357   2.083  19.118  0.00  0.00    +0.000 A 
ATOM     10  C   UNL     1       2.476   2.167  18.050  0.00  0.00    +0.000 A 
ATOM     11  C   UNL     1       2.707   3.098  17.040  0.00  0.00    +0.000 A 
ATOM     12  C   UNL     1       3.814   3.952  17.100  0.00  0.00    +0.000 A 
ENDBRANCH   4   7
BRANCH   1  13
ATOM     13  C   UNL     1       8.040   7.575  17.967  0.00  0.00    +0.000 C 
BRANCH  13  14
ATOM     14  C   UNL     1       8.225   9.099  17.996  0.00  0.00    +0.000 C 
BRANCH  14  15
ATOM     15  O   UNL     1       8.947   9.560  19.143  0.00  0.00    +0.000 OA
BRANCH  15  21
ATOM     16  C   UNL     1      10.433  13.868  21.084  0.00  0.00    +0.000 C 
ATOM     17  C   UNL     1      10.284  12.910  19.932  0.00  0.00    +0.000 A 
ATOM     18  C   UNL     1      10.822  13.281  18.694  0.00  0.00    +0.000 A 
ATOM     19  C   UNL     1      10.722  12.435  17.597  0.00  0.00    +0.000 A 
ATOM     20  C   UNL     1      10.098  11.204  17.733  0.00  0.00    +0.000 A 
ATOM     21  C   UNL     1       9.555  10.790  18.965  0.00  0.00    +0.000 A 
ATOM     22  C   UNL     1       9.628  11.659  20.075  0.00  0.00    +0.000 A 
ATOM     23  C   UNL     1       9.034  11.284  21.408  0.00  0.00    +0.000 C 
ENDBRANCH  15  21
ENDBRANCH  14  15
ENDBRANCH  13  14
ENDBRANCH   1  13
TORSDOF 5
ENDMDL
MODEL 5
REMARK VINA RESULT:      -6.9      2.965      7.226
REMARK  Name = 
REMARK  7 active torsions:
REMARK  status: ('A' for Active; 'I' for Inactive)
REMARK    1  A    between atoms: C_1  and  C_2
REMARK    2  A    between atoms: C_6  and  O_7
REMARK    3  A    between atoms: O_7  and  C_8
REMARK    4  A    between atoms: C_8  and  C_9
REMARK    5  A    between atoms: C_9  and  N_10
REMARK    6  A    between atoms: N_13  and  C_14
REMARK    7  A    between atoms: C_22  and  C_23
REMARK                            x       y       z     vdW  Elec       q    Type
REMARK                         _______ _______ _______ _____ _____    ______ ____
ROOT
ATOM      1  N   UNL     1       5.763   6.464  17.817  0.00  0.00    +0.000 NA
ATOM      2  C   UNL     1       7.109   5.945  17.461  0.00  0.00    +0.000 C 
ATOM      3  C   UNL     1       7.135   4.565  16.767  0.00  0.00    +0.000 C 
ATOM      4  N   UNL     1       6.163   4.466  15.666  0.00  0.00    +0.000 N 
ATOM      5  C   UNL     1       4.831   5.055  15.918  0.00  0.00    +0.000 C 
ATOM      6  C   UNL     1       4.953   6.448  16.578  0.00  0.00    +0.000 C 
ENDROOT
BRANCH   4   7
ATOM      7  C   UNL     1       6.559   4.413  14.337  0.00  0.00    +0.000 A 
ATOM      8  C   UNL     1       5.947   3.486  13.476  0.00  0.00    +0.000 A 
ATOM      9  C   UNL     1       6.282   3.403  12.123  0.00  0.00    +0.000 A 
ATOM     10  C   UNL     1       7.245   4.252  11.598  0.00  0.00    +0.000 A 
ATOM     11  C   UNL     1       7.880   5.171  12.430  0.00  0.00    +0.000 A 
ATOM     12  C   UNL     1       7.547   5.248  13.788  0.00  0.00    +0.000 A 
ENDBRANCH   4   7
BRANCH   1  13
ATOM     13  C   UNL     1       5.093   5.704  18.903  0.00  0.00    +0.000 C 
BRANCH  13  14
ATOM     14  C   UNL     1       4.007   6.545  19.588  0.00  0.00    +0.000 C 
BRANCH  14  15
ATOM     15  O   UNL     1       2.677   6.167  19.213  0.00  0.00    +0.000 OA
BRANCH  15  21
ATOM     16  C   UNL     1       0.631   1.693  18.641  0.00  0.00    +0.000 C 
ATOM     17  C   UNL     1       1.241   2.778  19.489  0.00  0.00    +0.000 A 
ATOM     18  C   UNL     1       1.405   2.528  20.857  0.00  0.00    +0.000 A 
ATOM     19  C   UNL     1       1.969   3.488  21.688  0.00  0.00    +0.000 A 
ATOM     20  C   UNL     1       2.388   4.699  21.155  0.00  0.00    +0.000 A 
ATOM     21  C   UNL     1       2.249   4.981  19.783  0.00  0.00    +0.000 A 
ATOM     22  C   UNL     1       1.650   4.021  18.940  0.00  0.00    +0.000 A 
ATOM     23  C   UNL     1       1.445   4.283  17.470  0.00  0.00    +0.000 C 
ENDBRANCH  15  21
ENDBRANCH  14  15
ENDBRANCH  13  14
ENDBRANCH   1  13
TORSDOF 5
ENDMDL
MODEL 6
REMARK VINA RESULT:      -6.8      0.643      1.190
REMARK  Name = 
REMARK  7 active torsions:
REMARK  status: ('A' for Active; 'I' for Inactive)
REMARK    1  A    between atoms: C_1  and  C_2
REMARK    2  A    between atoms: C_6  and  O_7
REMARK    3  A    between atoms: O_7  and  C_8
REMARK    4  A    between atoms: C_8  and  C_9
REMARK    5  A    between atoms: C_9  and  N_10
REMARK    6  A    between atoms: N_13  and  C_14
REMARK    7  A    between atoms: C_22  and  C_23
REMARK                            x       y       z     vdW  Elec       q    Type
REMARK                         _______ _______ _______ _____ _____    ______ ____
ROOT
ATOM      1  N   UNL     1       1.409   3.676  19.280  0.00  0.00    +0.000 NA
ATOM      2  C   UNL     1       1.121   4.497  20.485  0.00  0.00    +0.000 C 
ATOM      3  C   UNL     1       2.108   5.652  20.763  0.00  0.00    +0.000 C 
ATOM      4  N   UNL     1       2.391   6.457  19.564  0.00  0.00    +0.000 N 
ATOM      5  C   UNL     1       2.587   5.706  18.306  0.00  0.00    +0.000 C 
ATOM      6  C   UNL     1       1.511   4.610  18.137  0.00  0.00    +0.000 C 
ENDROOT
BRANCH   4   7
ATOM      7  C   UNL     1       1.927   7.758  19.425  0.00  0.00    +0.000 A 
ATOM      8  C   UNL     1       1.368   8.408  20.540  0.00  0.00    +0.000 A 
ATOM      9  C   UNL     1       0.909   9.724  20.471  0.00  0.00    +0.000 A 
ATOM     10  C   UNL     1       0.999  10.425  19.278  0.00  0.00    +0.000 A 
ATOM     11  C   UNL     1       1.534   9.802  18.153  0.00  0.00    +0.000 A 
ATOM     12  C   UNL     1       1.987   8.479  18.221  0.00  0.00    +0.000 A 
ENDBRANCH   4   7
BRANCH   1  13
ATOM     13  C   UNL     1       2.632   2.842  19.399  0.00  0.00    +0.000 C 
BRANCH  13  14
ATOM     14  C   UNL     1       3.475   2.897  18.117  0.00  0.00    +0.000 C 
BRANCH  14  15
ATOM     15  O   UNL     1       4.867   3.123  18.365  0.00  0.00    +0.000 OA
BRANCH  15  21
ATOM     16  C   UNL     1       7.595   7.154  17.444  0.00  0.00    +0.000 C 
ATOM     17  C   UNL     1       6.819   5.943  16.997  0.00  0.00    +0.000 A 
ATOM     18  C   UNL     1       6.772   5.661  15.626  0.00  0.00    +0.000 A 
ATOM     19  C   UNL     1       6.078   4.553  15.156  0.00  0.00    +0.000 A 
ATOM     20  C   UNL     1       5.438   3.710  16.053  0.00  0.00    +0.000 A 
ATOM     21  C   UNL     1       5.473   3.955  17.439  0.00  0.00    +0.000 A 
ATOM     22  C   UNL     1       6.152   5.095  17.920  0.00  0.00    +0.000 A 
ATOM     23  C   UNL     1       6.192   5.426  19.389  0.00  0.00    +0.000 C 
ENDBRANCH  15  21
ENDBRANCH  14  15
ENDBRANCH  13  14
ENDBRANCH   1  13
TORSDOF 5
ENDMDL
MODEL 7
REMARK VINA RESULT:      -6.7      2.744      6.985
REMARK  Name = 
REMARK  7 active torsions:
REMARK  status: ('A' for Active; 'I' for Inactive)
REMARK    1  A    between atoms: C_1  and  C_2
REMARK    2  A    between atoms: C_6  and  O_7
REMARK    3  A    between atoms: O_7  and  C_8
REMARK    4  A    between atoms: C_8  and  C_9
REMARK    5  A    between atoms: C_9  and  N_10
REMARK    6  A    between atoms: N_13  and  C_14
REMARK    7  A    between atoms: C_22  and  C_23
REMARK                            x       y       z     vdW  Elec       q    Type
REMARK                         _______ _______ _______ _____ _____    ______ ____
ROOT
ATOM      1  N   UNL     1       5.681   6.451  17.762  0.00  0.00    +0.000 NA
ATOM      2  C   UNL     1       6.912   5.661  17.498  0.00  0.00    +0.000 C 
ATOM      3  C   UNL     1       6.708   4.339  16.725  0.00  0.00    +0.000 C 
ATOM      4  N   UNL     1       5.855   4.502  15.537  0.00  0.00    +0.000 N 
ATOM      5  C   UNL     1       4.664   5.362  15.703  0.00  0.00    +0.000 C 
ATOM      6  C   UNL     1       5.018   6.665  16.456  0.00  0.00    +0.000 C 
ENDROOT
BRANCH   4   7
ATOM      7  C   UNL     1       6.363   4.416  14.249  0.00  0.00    +0.000 A 
ATOM      8  C   UNL     1       7.412   5.271  13.868  0.00  0.00    +0.000 A 
ATOM      9  C   UNL     1       7.985   5.214  12.596  0.00  0.00    +0.000 A 
ATOM     10  C   UNL     1       7.517   4.295  11.669  0.00  0.00    +0.000 A 
ATOM     11  C   UNL     1       6.468   3.445  12.013  0.00  0.00    +0.000 A 
ATOM     12  C   UNL     1       5.890   3.508  13.287  0.00  0.00    +0.000 A 
ENDBRANCH   4   7
BRANCH   1  13
ATOM     13  C   UNL     1       4.756   5.817  18.734  0.00  0.00    +0.000 C 
BRANCH  13  14
ATOM     14  C   UNL     1       3.449   6.611  18.866  0.00  0.00    +0.000 C 
BRANCH  14  15
ATOM     15  O   UNL     1       2.332   5.973  18.238  0.00  0.00    +0.000 OA
BRANCH  15  21
ATOM     16  C   UNL     1       1.281   2.557  21.668  0.00  0.00    +0.000 C 
ATOM     17  C   UNL     1       1.668   2.963  20.270  0.00  0.00    +0.000 A 
ATOM     18  C   UNL     1       1.830   1.953  19.314  0.00  0.00    +0.000 A 
ATOM     19  C   UNL     1       2.179   2.268  18.006  0.00  0.00    +0.000 A 
ATOM     20  C   UNL     1       2.354   3.594  17.641  0.00  0.00    +0.000 A 
ATOM     21  C   UNL     1       2.189   4.638  18.572  0.00  0.00    +0.000 A 
ATOM     22  C   UNL     1       1.863   4.322  19.909  0.00  0.00    +0.000 A 
ATOM     23  C   UNL     1       1.708   5.394  20.956  0.00  0.00    +0.000 C 
ENDBRANCH  15  21
ENDBRANCH  14  15
ENDBRANCH  13  14
ENDBRANCH   1  13
TORSDOF 5
ENDMDL
MODEL 8
REMARK VINA RESULT:      -6.7      4.058      6.994
REMARK  Name = 
REMARK  7 active torsions:
REMARK  status: ('A' for Active; 'I' for Inactive)
REMARK    1  A    between atoms: C_1  and  C_2
REMARK    2  A    between atoms: C_6  and  O_7
REMARK    3  A    between atoms: O_7  and  C_8
REMARK    4  A    between atoms: C_8  and  C_9
REMARK    5  A    between atoms: C_9  and  N_10
REMARK    6  A    between atoms: N_13  and  C_14
REMARK    7  A    between atoms: C_22  and  C_23
REMARK                            x       y       z     vdW  Elec       q    Type
REMARK                         _______ _______ _______ _____ _____    ______ ____
ROOT
ATOM      1  N   UNL     1       7.595   6.450  17.489  0.00  0.00    +0.000 NA
ATOM      2  C   UNL     1       7.629   5.153  18.215  0.00  0.00    +0.000 C 
ATOM      3  C   UNL     1       6.491   4.925  19.234  0.00  0.00    +0.000 C 
ATOM      4  N   UNL     1       5.164   5.251  18.686  0.00  0.00    +0.000 N 
ATOM      5  C   UNL     1       5.082   6.478  17.865  0.00  0.00    +0.000 C 
ATOM      6  C   UNL     1       6.258   6.560  16.865  0.00  0.00    +0.000 C 
ENDROOT
BRANCH   4   7
ATOM      7  C   UNL     1       4.224   4.271  18.403  0.00  0.00    +0.000 A 
ATOM      8  C   UNL     1       4.320   3.023  19.044  0.00  0.00    +0.000 A 
ATOM      9  C   UNL     1       3.390   2.007  18.822  0.00  0.00    +0.000 A 
ATOM     10  C   UNL     1       2.334   2.216  17.947  0.00  0.00    +0.000 A 
ATOM     11  C   UNL     1       2.221   3.437  17.286  0.00  0.00    +0.000 A 
ATOM     12  C   UNL     1       3.159   4.453  17.504  0.00  0.00    +0.000 A 
ENDBRANCH   4   7
BRANCH   1  13
ATOM     13  C   UNL     1       7.884   7.627  18.346  0.00  0.00    +0.000 C 
BRANCH  13  14
ATOM     14  C   UNL     1       8.373   8.820  17.514  0.00  0.00    +0.000 C 
BRANCH  14  15
ATOM     15  O   UNL     1       7.930  10.084  18.021  0.00  0.00    +0.000 OA
BRANCH  15  21
ATOM     16  C   UNL     1       9.770  14.680  17.846  0.00  0.00    +0.000 C 
ATOM     17  C   UNL     1       9.855  13.227  18.233  0.00  0.00    +0.000 A 
ATOM     18  C   UNL     1      10.981  12.803  18.950  0.00  0.00    +0.000 A 
ATOM     19  C   UNL     1      11.112  11.477  19.342  0.00  0.00    +0.000 A 
ATOM     20  C   UNL     1      10.111  10.567  19.034  0.00  0.00    +0.000 A 
ATOM     21  C   UNL     1       8.959  10.958  18.324  0.00  0.00    +0.000 A 
ATOM     22  C   UNL     1       8.835  12.298  17.898  0.00  0.00    +0.000 A 
ATOM     23  C   UNL     1       7.642  12.765  17.107  0.00  0.00    +0.000 C 
ENDBRANCH  15  21
ENDBRANCH  14  15
ENDBRANCH  13  14
ENDBRANCH   1  13
TORSDOF 5
ENDMDL
MODEL 9
REMARK VINA RESULT:      -6.7      0.618      1.179
REMARK  Name = 
REMARK  7 active torsions:
REMARK  status: ('A' for Active; 'I' for Inactive)
REMARK    1  A    between atoms: C_1  and  C_2
REMARK    2  A    between atoms: C_6  and  O_7
REMARK    3  A    between atoms: O_7  and  C_8
REMARK    4  A    between atoms: C_8  and  C_9
REMARK    5  A    between atoms: C_9  and  N_10
REMARK    6  A    between atoms: N_13  and  C_14
REMARK    7  A    between atoms: C_22  and  C_23
REMARK                            x       y       z     vdW  Elec       q    Type
REMARK                         _______ _______ _______ _____ _____    ______ ____
ROOT
ATOM      1  N   UNL     1       2.281   4.607  19.385  0.00  0.00    +0.000 NA
ATOM      2  C   UNL     1       1.373   5.143  20.433  0.00  0.00    +0.000 C 
ATOM      3  C   UNL     1       1.765   6.515  21.023  0.00  0.00    +0.000 C 
ATOM      4  N   UNL     1       2.103   7.503  19.985  0.00  0.00    +0.000 N 
ATOM      5  C   UNL     1       2.921   7.009  18.857  0.00  0.00    +0.000 C 
ATOM      6  C   UNL     1       2.397   5.650  18.341  0.00  0.00    +0.000 C 
ENDROOT
BRANCH   4   7
ATOM      7  C   UNL     1       1.284   8.588  19.708  0.00  0.00    +0.000 A 
ATOM      8  C   UNL     1       0.497   9.133  20.738  0.00  0.00    +0.000 A 
ATOM      9  C   UNL     1      -0.326  10.241  20.529  0.00  0.00    +0.000 A 
ATOM     10  C   UNL     1      -0.381  10.833  19.276  0.00  0.00    +0.000 A 
ATOM     11  C   UNL     1       0.376  10.307  18.233  0.00  0.00    +0.000 A 
ATOM     12  C   UNL     1       1.196   9.191  18.442  0.00  0.00    +0.000 A 
ENDBRANCH   4   7
BRANCH   1  13
ATOM     13  C   UNL     1       3.617   4.209  19.892  0.00  0.00    +0.000 C 
BRANCH  13  14
ATOM     14  C   UNL     1       4.297   3.202  18.954  0.00  0.00    +0.000 C 
BRANCH  14  15
ATOM     15  O   UNL     1       5.666   3.520  18.676  0.00  0.00    +0.000 OA
BRANCH  15  21
ATOM     16  C   UNL     1       7.816   7.857  17.626  0.00  0.00    +0.000 C 
ATOM     17  C   UNL     1       6.894   6.713  17.291  0.00  0.00    +0.000 A 
ATOM     18  C   UNL     1       6.250   6.732  16.048  0.00  0.00    +0.000 A 
ATOM     19  C   UNL     1       5.394   5.701  15.681  0.00  0.00    +0.000 A 
ATOM     20  C   UNL     1       5.188   4.636  16.545  0.00  0.00    +0.000 A 
ATOM     21  C   UNL     1       5.828   4.577  17.799  0.00  0.00    +0.000 A 
ATOM     22  C   UNL     1       6.675   5.636  18.189  0.00  0.00    +0.000 A 
ATOM     23  C   UNL     1       7.358   5.644  19.532  0.00  0.00    +0.000 C 
ENDBRANCH  15  21
ENDBRANCH  14  15
ENDBRANCH  13  14
ENDBRANCH   1  13
TORSDOF 5
ENDMDL
