MODEL 1
REMARK VINA RESULT:      -7.4      0.000      0.000
REMARK  Name = 
REMARK  9 active torsions:
REMARK  status: ('A' for Active; 'I' for Inactive)
REMARK    1  A    between atoms: C_1  and  C_2
REMARK    2  A    between atoms: C_4  and  C_5
REMARK    3  A    between atoms: C_7  and  N_8
REMARK    4  A    between atoms: C_9  and  C_11
REMARK    5  A    between atoms: C_11  and  O_12
REMARK    6  A    between atoms: O_12  and  C_13
REMARK    7  A    between atoms: C_13  and  C_15
REMARK    8  A    between atoms: C_15  and  C_16
REMARK    9  A    between atoms: C_16  and  C_17
REMARK                            x       y       z     vdW  Elec       q    Type
REMARK                         _______ _______ _______ _____ _____    ______ ____
ROOT
ATOM      1  N   UNL     1       3.341   3.414  17.760  0.00  0.00    +0.000 N 
ATOM      2  C   UNL     1       3.138   2.257  18.501  0.00  0.00    +0.000 C 
ATOM      3  O   UNL     1       4.007   1.536  18.984  0.00  0.00    +0.000 OA
ATOM      4  H   UNL     1       2.511   3.861  17.369  0.00  0.00    +0.000 HD
ENDROOT
BRANCH   1  11
ATOM      5  C   UNL     1       6.588   4.560  14.207  0.00  0.00    +0.000 C 
ATOM      6  C   UNL     1       6.196   4.546  15.657  0.00  0.00    +0.000 A 
ATOM      7  C   UNL     1       7.054   5.089  16.620  0.00  0.00    +0.000 A 
ATOM      8  C   UNL     1       6.693   5.084  17.970  0.00  0.00    +0.000 A 
ATOM      9  C   UNL     1       7.589   5.655  19.027  0.00  0.00    +0.000 C 
ATOM     10  C   UNL     1       5.464   4.532  18.345  0.00  0.00    +0.000 A 
ATOM     11  C   UNL     1       4.588   3.981  17.406  0.00  0.00    +0.000 A 
ATOM     12  C   UNL     1       4.970   3.990  16.056  0.00  0.00    +0.000 A 
ENDBRANCH   1  11
BRANCH   2  13
ATOM     13  C   UNL     1       1.669   1.879  18.681  0.00  0.00    +0.000 C 
BRANCH  13  14
ATOM     14  O   UNL     1       0.887   3.012  19.051  0.00  0.00    +0.000 OA
BRANCH  14  15
ATOM     15  C   UNL     1       1.059   3.420  20.336  0.00  0.00    +0.000 C 
ATOM     16  O   UNL     1       1.157   2.665  21.295  0.00  0.00    +0.000 OA
BRANCH  15  17
ATOM     17  C   UNL     1       1.089   4.929  20.396  0.00  0.00    +0.000 C 
BRANCH  17  18
ATOM     18  C   UNL     1       2.513   5.487  20.434  0.00  0.00    +0.000 C 
BRANCH  18  19
ATOM     19  C   UNL     1       2.667   6.832  19.714  0.00  0.00    +0.000 C 
ATOM     20  C   UNL     1       2.339   6.774  18.224  0.00  0.00    +0.000 C 
ATOM     21  C   UNL     1       2.129   8.231  17.838  0.00  0.00    +0.000 C 
ATOM     22  C   UNL     1       1.623   8.929  19.099  0.00  0.00    +0.000 C 
ATOM     23  C   UNL     1       1.699   7.899  20.224  0.00  0.00    +0.000 C 
ENDBRANCH  18  19
ENDBRANCH  17  18
ENDBRANCH  15  17
ENDBRANCH  14  15
ENDBRANCH  13  14
ENDBRANCH   2  13
TORSDOF 7
ENDMDL
MODEL 2
REMARK VINA RESULT:      -7.4      1.054      2.138
REMARK  Name = 
REMARK  9 active torsions:
REMARK  status: ('A' for Active; 'I' for Inactive)
REMARK    1  A    between atoms: C_1  and  C_2
REMARK    2  A    between atoms: C_4  and  C_5
REMARK    3  A    between atoms: C_7  and  N_8
REMARK    4  A    between atoms: C_9  and  C_11
REMARK    5  A    between atoms: C_11  and  O_12
REMARK    6  A    between atoms: O_12  and  C_13
REMARK    7  A    between atoms: C_13  and  C_15
REMARK    8  A    between atoms: C_15  and  C_16
REMARK    9  A    between atoms: C_16  and  C_17
REMARK                            x       y       z     vdW  Elec       q    Type
REMARK                         _______ _______ _______ _____ _____    ______ ____
ROOT
ATOM      1  N   UNL     1       4.539   3.033  18.037  0.00  0.00    +0.000 N 
ATOM      2  C   UNL     1       3.222   2.658  17.808  0.00  0.00    +0.000 C 
ATOM      3  O   UNL     1       2.519   2.999  16.860  0.00  0.00    +0.000 OA
ATOM      4  H   UNL     1       4.961   2.720  18.911  0.00  0.00    +0.000 HD
ENDROOT
BRANCH   1  11
ATOM      5  C   UNL     1       7.383   7.068  17.705  0.00  0.00    +0.000 C 
ATOM      6  C   UNL     1       6.727   5.881  17.060  0.00  0.00    +0.000 A 
ATOM      7  C   UNL     1       6.904   5.641  15.691  0.00  0.00    +0.000 A 
ATOM      8  C   UNL     1       6.300   4.536  15.086  0.00  0.00    +0.000 A 
ATOM      9  C   UNL     1       6.467   4.251  13.624  0.00  0.00    +0.000 C 
ATOM     10  C   UNL     1       5.521   3.673  15.863  0.00  0.00    +0.000 A 
ATOM     11  C   UNL     1       5.325   3.889  17.230  0.00  0.00    +0.000 A 
ATOM     12  C   UNL     1       5.934   5.006  17.819  0.00  0.00    +0.000 A 
ENDBRANCH   1  11
BRANCH   2  13
ATOM     13  C   UNL     1       2.631   1.754  18.888  0.00  0.00    +0.000 C 
BRANCH  13  14
ATOM     14  O   UNL     1       2.183   2.515  20.007  0.00  0.00    +0.000 OA
BRANCH  14  15
ATOM     15  C   UNL     1       0.993   3.144  19.822  0.00  0.00    +0.000 C 
ATOM     16  O   UNL     1       0.025   2.644  19.262  0.00  0.00    +0.000 OA
BRANCH  15  17
ATOM     17  C   UNL     1       1.057   4.543  20.387  0.00  0.00    +0.000 C 
BRANCH  17  18
ATOM     18  C   UNL     1       2.492   5.049  20.542  0.00  0.00    +0.000 C 
BRANCH  18  19
ATOM     19  C   UNL     1       2.768   6.358  19.791  0.00  0.00    +0.000 C 
ATOM     20  C   UNL     1       2.517   6.271  18.288  0.00  0.00    +0.000 C 
ATOM     21  C   UNL     1       2.420   7.723  17.847  0.00  0.00    +0.000 C 
ATOM     22  C   UNL     1       1.890   8.493  19.056  0.00  0.00    +0.000 C 
ATOM     23  C   UNL     1       1.842   7.498  20.214  0.00  0.00    +0.000 C 
ENDBRANCH  18  19
ENDBRANCH  17  18
ENDBRANCH  15  17
ENDBRANCH  14  15
ENDBRANCH  13  14
ENDBRANCH   2  13
TORSDOF 7
ENDMDL
MODEL 3
REMARK VINA RESULT:      -7.3      0.267      1.852
REMARK  Name = 
REMARK  9 active torsions:
REMARK  status: ('A' for Active; 'I' for Inactive)
REMARK    1  A    between atoms: C_1  and  C_2
REMARK    2  A    between atoms: C_4  and  C_5
REMARK    3  A    between atoms: C_7  and  N_8
REMARK    4  A    between atoms: C_9  and  C_11
REMARK    5  A    between atoms: C_11  and  O_12
REMARK    6  A    between atoms: O_12  and  C_13
REMARK    7  A    between atoms: C_13  and  C_15
REMARK    8  A    between atoms: C_15  and  C_16
REMARK    9  A    between atoms: C_16  and  C_17
REMARK                            x       y       z     vdW  Elec       q    Type
REMARK                         _______ _______ _______ _____ _____    ______ ____
ROOT
ATOM      1  N   UNL     1       3.390   3.350  18.121  0.00  0.00    +0.000 N 
ATOM      2  C   UNL     1       3.110   2.031  18.455  0.00  0.00    +0.000 C 
ATOM      3  O   UNL     1       3.880   1.077  18.372  0.00  0.00    +0.000 OA
ATOM      4  H   UNL     1       2.616   4.013  18.181  0.00  0.00    +0.000 HD
ENDROOT
BRANCH   1  11
ATOM      5  C   UNL     1       7.696   5.630  18.977  0.00  0.00    +0.000 C 
ATOM      6  C   UNL     1       6.736   4.978  18.024  0.00  0.00    +0.000 A 
ATOM      7  C   UNL     1       7.059   4.872  16.666  0.00  0.00    +0.000 A 
ATOM      8  C   UNL     1       6.171   4.261  15.776  0.00  0.00    +0.000 A 
ATOM      9  C   UNL     1       6.485   4.133  14.316  0.00  0.00    +0.000 C 
ATOM     10  C   UNL     1       4.960   3.756  16.259  0.00  0.00    +0.000 A 
ATOM     11  C   UNL     1       4.610   3.850  17.608  0.00  0.00    +0.000 A 
ATOM     12  C   UNL     1       5.510   4.471  18.486  0.00  0.00    +0.000 A 
ENDBRANCH   1  11
BRANCH   2  13
ATOM     13  C   UNL     1       1.683   1.798  18.944  0.00  0.00    +0.000 C 
BRANCH  13  14
ATOM     14  O   UNL     1       1.016   3.034  19.194  0.00  0.00    +0.000 OA
BRANCH  14  15
ATOM     15  C   UNL     1       1.099   3.469  20.479  0.00  0.00    +0.000 C 
ATOM     16  O   UNL     1       1.129   2.734  21.459  0.00  0.00    +0.000 OA
BRANCH  15  17
ATOM     17  C   UNL     1       1.128   4.978  20.510  0.00  0.00    +0.000 C 
BRANCH  17  18
ATOM     18  C   UNL     1       2.551   5.539  20.518  0.00  0.00    +0.000 C 
BRANCH  18  19
ATOM     19  C   UNL     1       2.697   6.860  19.753  0.00  0.00    +0.000 C 
ATOM     20  C   UNL     1       2.411   6.740  18.258  0.00  0.00    +0.000 C 
ATOM     21  C   UNL     1       2.182   8.176  17.812  0.00  0.00    +0.000 C 
ATOM     22  C   UNL     1       1.627   8.910  19.031  0.00  0.00    +0.000 C 
ATOM     23  C   UNL     1       1.693   7.924  20.196  0.00  0.00    +0.000 C 
ENDBRANCH  18  19
ENDBRANCH  17  18
ENDBRANCH  15  17
ENDBRANCH  14  15
ENDBRANCH  13  14
ENDBRANCH   2  13
TORSDOF 7
ENDMDL
MODEL 4
REMARK VINA RESULT:      -7.3      1.282      2.274
REMARK  Name = 
REMARK  9 active torsions:
REMARK  status: ('A' for Active; 'I' for Inactive)
REMARK    1  A    between atoms: C_1  and  C_2
REMARK    2  A    between atoms: C_4  and  C_5
REMARK    3  A    between atoms: C_7  and  N_8
REMARK    4  A    between atoms: C_9  and  C_11
REMARK    5  A    between atoms: C_11  and  O_12
REMARK    6  A    between atoms: O_12  and  C_13
REMARK    7  A    between atoms: C_13  and  C_15
REMARK    8  A    between atoms: C_15  and  C_16
REMARK    9  A    between atoms: C_16  and  C_17
REMARK                            x       y       z     vdW  Elec       q    Type
REMARK                         _______ _______ _______ _____ _____    ______ ____
ROOT
ATOM      1  N   UNL     1       5.132   3.512  19.168  0.00  0.00    +0.000 N 
ATOM      2  C   UNL     1       4.188   2.502  19.041  0.00  0.00    +0.000 C 
ATOM      3  O   UNL     1       3.712   2.074  17.992  0.00  0.00    +0.000 OA
ATOM      4  H   UNL     1       5.372   3.800  20.117  0.00  0.00    +0.000 HD
ENDROOT
BRANCH   1  11
ATOM      5  C   UNL     1       7.669   7.516  17.747  0.00  0.00    +0.000 C 
ATOM      6  C   UNL     1       6.971   6.229  17.409  0.00  0.00    +0.000 A 
ATOM      7  C   UNL     1       6.919   5.787  16.082  0.00  0.00    +0.000 A 
ATOM      8  C   UNL     1       6.276   4.588  15.762  0.00  0.00    +0.000 A 
ATOM      9  C   UNL     1       6.201   4.087  14.351  0.00  0.00    +0.000 C 
ATOM     10  C   UNL     1       5.688   3.836  16.784  0.00  0.00    +0.000 A 
ATOM     11  C   UNL     1       5.722   4.253  18.117  0.00  0.00    +0.000 A 
ATOM     12  C   UNL     1       6.367   5.462  18.419  0.00  0.00    +0.000 A 
ENDBRANCH   1  11
BRANCH   2  13
ATOM     13  C   UNL     1       3.710   1.920  20.369  0.00  0.00    +0.000 C 
BRANCH  13  14
ATOM     14  O   UNL     1       2.306   2.109  20.538  0.00  0.00    +0.000 OA
BRANCH  14  15
ATOM     15  C   UNL     1       1.970   3.188  21.292  0.00  0.00    +0.000 C 
ATOM     16  O   UNL     1       2.337   3.369  22.446  0.00  0.00    +0.000 OA
BRANCH  15  17
ATOM     17  C   UNL     1       1.068   4.106  20.501  0.00  0.00    +0.000 C 
BRANCH  17  18
ATOM     18  C   UNL     1       1.382   5.585  20.737  0.00  0.00    +0.000 C 
BRANCH  18  19
ATOM     19  C   UNL     1       2.411   6.160  19.756  0.00  0.00    +0.000 C 
ATOM     20  C   UNL     1       2.367   5.520  18.371  0.00  0.00    +0.000 C 
ATOM     21  C   UNL     1       3.115   6.505  17.487  0.00  0.00    +0.000 C 
ATOM     22  C   UNL     1       2.909   7.879  18.123  0.00  0.00    +0.000 C 
ATOM     23  C   UNL     1       2.179   7.638  19.443  0.00  0.00    +0.000 C 
ENDBRANCH  18  19
ENDBRANCH  17  18
ENDBRANCH  15  17
ENDBRANCH  14  15
ENDBRANCH  13  14
ENDBRANCH   2  13
TORSDOF 7
ENDMDL
MODEL 5
REMARK VINA RESULT:      -7.0      1.327      2.447
REMARK  Name = 
REMARK  9 active torsions:
REMARK  status: ('A' for Active; 'I' for Inactive)
REMARK    1  A    between atoms: C_1  and  C_2
REMARK    2  A    between atoms: C_4  and  C_5
REMARK    3  A    between atoms: C_7  and  N_8
REMARK    4  A    between atoms: C_9  and  C_11
REMARK    5  A    between atoms: C_11  and  O_12
REMARK    6  A    between atoms: O_12  and  C_13
REMARK    7  A    between atoms: C_13  and  C_15
REMARK    8  A    between atoms: C_15  and  C_16
REMARK    9  A    between atoms: C_16  and  C_17
REMARK                            x       y       z     vdW  Elec       q    Type
REMARK                         _______ _______ _______ _____ _____    ______ ____
ROOT
ATOM      1  N   UNL     1       5.336   3.563  19.102  0.00  0.00    +0.000 N 
ATOM      2  C   UNL     1       4.194   2.779  19.000  0.00  0.00    +0.000 C 
ATOM      3  O   UNL     1       3.489   2.640  18.004  0.00  0.00    +0.000 OA
ATOM      4  H   UNL     1       5.769   3.627  20.024  0.00  0.00    +0.000 HD
ENDROOT
BRANCH   1  11
ATOM      5  C   UNL     1       7.788   7.675  17.853  0.00  0.00    +0.000 C 
ATOM      6  C   UNL     1       7.110   6.393  17.460  0.00  0.00    +0.000 A 
ATOM      7  C   UNL     1       7.055   6.014  16.113  0.00  0.00    +0.000 A 
ATOM      8  C   UNL     1       6.431   4.820  15.742  0.00  0.00    +0.000 A 
ATOM      9  C   UNL     1       6.353   4.385  14.310  0.00  0.00    +0.000 C 
ATOM     10  C   UNL     1       5.866   4.009  16.732  0.00  0.00    +0.000 A 
ATOM     11  C   UNL     1       5.903   4.364  18.083  0.00  0.00    +0.000 A 
ATOM     12  C   UNL     1       6.529   5.568  18.436  0.00  0.00    +0.000 A 
ENDBRANCH   1  11
BRANCH   2  13
ATOM     13  C   UNL     1       3.809   2.062  20.293  0.00  0.00    +0.000 C 
BRANCH  13  14
ATOM     14  O   UNL     1       3.389   2.991  21.290  0.00  0.00    +0.000 OA
BRANCH  14  15
ATOM     15  C   UNL     1       2.046   3.035  21.490  0.00  0.00    +0.000 C 
ATOM     16  O   UNL     1       1.445   2.355  22.312  0.00  0.00    +0.000 OA
BRANCH  15  17
ATOM     17  C   UNL     1       1.417   4.025  20.538  0.00  0.00    +0.000 C 
BRANCH  17  18
ATOM     18  C   UNL     1       1.862   5.463  20.807  0.00  0.00    +0.000 C 
BRANCH  18  19
ATOM     19  C   UNL     1       1.788   6.372  19.574  0.00  0.00    +0.000 C 
ATOM     20  C   UNL     1       1.860   7.861  19.902  0.00  0.00    +0.000 C 
ATOM     21  C   UNL     1       2.211   8.513  18.573  0.00  0.00    +0.000 C 
ATOM     22  C   UNL     1       3.009   7.470  17.793  0.00  0.00    +0.000 C 
ATOM     23  C   UNL     1       2.969   6.187  18.621  0.00  0.00    +0.000 C 
ENDBRANCH  18  19
ENDBRANCH  17  18
ENDBRANCH  15  17
ENDBRANCH  14  15
ENDBRANCH  13  14
ENDBRANCH   2  13
TORSDOF 7
ENDMDL
MODEL 6
REMARK VINA RESULT:      -7.0      1.134      1.334
REMARK  Name = 
REMARK  9 active torsions:
REMARK  status: ('A' for Active; 'I' for Inactive)
REMARK    1  A    between atoms: C_1  and  C_2
REMARK    2  A    between atoms: C_4  and  C_5
REMARK    3  A    between atoms: C_7  and  N_8
REMARK    4  A    between atoms: C_9  and  C_11
REMARK    5  A    between atoms: C_11  and  O_12
REMARK    6  A    between atoms: O_12  and  C_13
REMARK    7  A    between atoms: C_13  and  C_15
REMARK    8  A    between atoms: C_15  and  C_16
REMARK    9  A    between atoms: C_16  and  C_17
REMARK                            x       y       z     vdW  Elec       q    Type
REMARK                         _______ _______ _______ _____ _____    ______ ____
ROOT
ATOM      1  N   UNL     1       4.361   2.956  17.767  0.00  0.00    +0.000 N 
ATOM      2  C   UNL     1       2.981   2.811  17.722  0.00  0.00    +0.000 C 
ATOM      3  O   UNL     1       2.207   3.406  16.977  0.00  0.00    +0.000 OA
ATOM      4  H   UNL     1       4.854   2.439  18.496  0.00  0.00    +0.000 HD
ENDROOT
BRANCH   1  11
ATOM      5  C   UNL     1       6.416   3.943  13.376  0.00  0.00    +0.000 C 
ATOM      6  C   UNL     1       6.163   4.317  14.809  0.00  0.00    +0.000 A 
ATOM      7  C   UNL     1       6.694   5.505  15.327  0.00  0.00    +0.000 A 
ATOM      8  C   UNL     1       6.458   5.861  16.658  0.00  0.00    +0.000 A 
ATOM      9  C   UNL     1       7.012   7.124  17.244  0.00  0.00    +0.000 C 
ATOM     10  C   UNL     1       5.684   5.019  17.462  0.00  0.00    +0.000 A 
ATOM     11  C   UNL     1       5.144   3.827  16.973  0.00  0.00    +0.000 A 
ATOM     12  C   UNL     1       5.396   3.482  15.637  0.00  0.00    +0.000 A 
ENDBRANCH   1  11
BRANCH   2  13
ATOM     13  C   UNL     1       2.422   1.819  18.740  0.00  0.00    +0.000 C 
BRANCH  13  14
ATOM     14  O   UNL     1       2.466   2.356  20.060  0.00  0.00    +0.000 OA
BRANCH  14  15
ATOM     15  C   UNL     1       1.672   3.442  20.253  0.00  0.00    +0.000 C 
ATOM     16  O   UNL     1       0.451   3.435  20.151  0.00  0.00    +0.000 OA
BRANCH  15  17
ATOM     17  C   UNL     1       2.520   4.645  20.590  0.00  0.00    +0.000 C 
BRANCH  17  18
ATOM     18  C   UNL     1       1.708   5.941  20.641  0.00  0.00    +0.000 C 
BRANCH  18  19
ATOM     19  C   UNL     1       2.334   7.092  19.844  0.00  0.00    +0.000 C 
ATOM     20  C   UNL     1       2.620   6.746  18.385  0.00  0.00    +0.000 C 
ATOM     21  C   UNL     1       2.800   8.100  17.715  0.00  0.00    +0.000 C 
ATOM     22  C   UNL     1       1.943   9.079  18.515  0.00  0.00    +0.000 C 
ATOM     23  C   UNL     1       1.412   8.305  19.720  0.00  0.00    +0.000 C 
ENDBRANCH  18  19
ENDBRANCH  17  18
ENDBRANCH  15  17
ENDBRANCH  14  15
ENDBRANCH  13  14
ENDBRANCH   2  13
TORSDOF 7
ENDMDL
MODEL 7
REMARK VINA RESULT:      -6.9      1.679      6.003
REMARK  Name = 
REMARK  9 active torsions:
REMARK  status: ('A' for Active; 'I' for Inactive)
REMARK    1  A    between atoms: C_1  and  C_2
REMARK    2  A    between atoms: C_4  and  C_5
REMARK    3  A    between atoms: C_7  and  N_8
REMARK    4  A    between atoms: C_9  and  C_11
REMARK    5  A    between atoms: C_11  and  O_12
REMARK    6  A    between atoms: O_12  and  C_13
REMARK    7  A    between atoms: C_13  and  C_15
REMARK    8  A    between atoms: C_15  and  C_16
REMARK    9  A    between atoms: C_16  and  C_17
REMARK                            x       y       z     vdW  Elec       q    Type
REMARK                         _______ _______ _______ _____ _____    ______ ____
ROOT
ATOM      1  N   UNL     1       2.361   5.735  20.995  0.00  0.00    +0.000 N 
ATOM      2  C   UNL     1       1.738   4.508  20.810  0.00  0.00    +0.000 C 
ATOM      3  O   UNL     1       0.651   4.313  20.272  0.00  0.00    +0.000 OA
ATOM      4  H   UNL     1       3.232   5.734  21.526  0.00  0.00    +0.000 HD
ENDROOT
BRANCH   1  11
ATOM      5  C   UNL     1      -0.394   9.690  22.114  0.00  0.00    +0.000 C 
ATOM      6  C   UNL     1       0.499   8.955  21.157  0.00  0.00    +0.000 A 
ATOM      7  C   UNL     1       0.821   9.526  19.919  0.00  0.00    +0.000 A 
ATOM      8  C   UNL     1       1.656   8.848  19.026  0.00  0.00    +0.000 A 
ATOM      9  C   UNL     1       2.019   9.431  17.693  0.00  0.00    +0.000 C 
ATOM     10  C   UNL     1       2.166   7.597  19.384  0.00  0.00    +0.000 A 
ATOM     11  C   UNL     1       1.860   7.001  20.611  0.00  0.00    +0.000 A 
ATOM     12  C   UNL     1       1.016   7.693  21.493  0.00  0.00    +0.000 A 
ENDBRANCH   1  11
BRANCH   2  13
ATOM     13  C   UNL     1       2.515   3.321  21.375  0.00  0.00    +0.000 C 
BRANCH  13  14
ATOM     14  O   UNL     1       2.851   2.390  20.348  0.00  0.00    +0.000 OA
BRANCH  14  15
ATOM     15  C   UNL     1       4.124   2.496  19.885  0.00  0.00    +0.000 C 
ATOM     16  O   UNL     1       5.093   1.942  20.389  0.00  0.00    +0.000 OA
BRANCH  15  17
ATOM     17  C   UNL     1       4.158   3.407  18.680  0.00  0.00    +0.000 C 
BRANCH  17  18
ATOM     18  C   UNL     1       5.425   4.261  18.626  0.00  0.00    +0.000 C 
BRANCH  18  19
ATOM     19  C   UNL     1       5.731   4.822  17.231  0.00  0.00    +0.000 C 
ATOM     20  C   UNL     1       7.147   4.526  16.745  0.00  0.00    +0.000 C 
ATOM     21  C   UNL     1       7.078   4.763  15.245  0.00  0.00    +0.000 C 
ATOM     22  C   UNL     1       5.638   4.456  14.838  0.00  0.00    +0.000 C 
ATOM     23  C   UNL     1       4.869   4.199  16.133  0.00  0.00    +0.000 C 
ENDBRANCH  18  19
ENDBRANCH  17  18
ENDBRANCH  15  17
ENDBRANCH  14  15
ENDBRANCH  13  14
ENDBRANCH   2  13
TORSDOF 7
ENDMDL
MODEL 8
REMARK VINA RESULT:      -6.8      1.605      5.802
REMARK  Name = 
REMARK  9 active torsions:
REMARK  status: ('A' for Active; 'I' for Inactive)
REMARK    1  A    between atoms: C_1  and  C_2
REMARK    2  A    between atoms: C_4  and  C_5
REMARK    3  A    between atoms: C_7  and  N_8
REMARK    4  A    between atoms: C_9  and  C_11
REMARK    5  A    between atoms: C_11  and  O_12
REMARK    6  A    between atoms: O_12  and  C_13
REMARK    7  A    between atoms: C_13  and  C_15
REMARK    8  A    between atoms: C_15  and  C_16
REMARK    9  A    between atoms: C_16  and  C_17
REMARK                            x       y       z     vdW  Elec       q    Type
REMARK                         _______ _______ _______ _____ _____    ______ ____
ROOT
ATOM      1  N   UNL     1       2.710   5.632  20.250  0.00  0.00    +0.000 N 
ATOM      2  C   UNL     1       2.060   4.408  20.342  0.00  0.00    +0.000 C 
ATOM      3  O   UNL     1       0.846   4.223  20.337  0.00  0.00    +0.000 OA
ATOM      4  H   UNL     1       3.726   5.620  20.341  0.00  0.00    +0.000 HD
ENDROOT
BRANCH   1  11
ATOM      5  C   UNL     1      -0.169   9.103  22.287  0.00  0.00    +0.000 C 
ATOM      6  C   UNL     1       0.678   8.620  21.144  0.00  0.00    +0.000 A 
ATOM      7  C   UNL     1       0.854   9.425  20.012  0.00  0.00    +0.000 A 
ATOM      8  C   UNL     1       1.644   8.984  18.948  0.00  0.00    +0.000 A 
ATOM      9  C   UNL     1       1.851   9.820  17.722  0.00  0.00    +0.000 C 
ATOM     10  C   UNL     1       2.260   7.731  19.030  0.00  0.00    +0.000 A 
ATOM     11  C   UNL     1       2.101   6.904  20.145  0.00  0.00    +0.000 A 
ATOM     12  C   UNL     1       1.299   7.361  21.202  0.00  0.00    +0.000 A 
ENDBRANCH   1  11
BRANCH   2  13
ATOM     13  C   UNL     1       2.997   3.211  20.488  0.00  0.00    +0.000 C 
BRANCH  13  14
ATOM     14  O   UNL     1       4.046   3.258  19.523  0.00  0.00    +0.000 OA
BRANCH  14  15
ATOM     15  C   UNL     1       3.698   2.809  18.288  0.00  0.00    +0.000 C 
ATOM     16  O   UNL     1       3.333   1.665  18.045  0.00  0.00    +0.000 OA
BRANCH  15  17
ATOM     17  C   UNL     1       3.847   3.920  17.276  0.00  0.00    +0.000 C 
BRANCH  17  18
ATOM     18  C   UNL     1       5.308   4.191  16.912  0.00  0.00    +0.000 C 
BRANCH  18  19
ATOM     19  C   UNL     1       5.918   5.384  17.659  0.00  0.00    +0.000 C 
ATOM     20  C   UNL     1       7.313   5.114  18.215  0.00  0.00    +0.000 C 
ATOM     21  C   UNL     1       7.871   6.500  18.497  0.00  0.00    +0.000 C 
ATOM     22  C   UNL     1       7.197   7.434  17.494  0.00  0.00    +0.000 C 
ATOM     23  C   UNL     1       6.151   6.597  16.760  0.00  0.00    +0.000 C 
ENDBRANCH  18  19
ENDBRANCH  17  18
ENDBRANCH  15  17
ENDBRANCH  14  15
ENDBRANCH  13  14
ENDBRANCH   2  13
TORSDOF 7
ENDMDL
MODEL 9
REMARK VINA RESULT:      -6.8      1.598      5.597
REMARK  Name = 
REMARK  9 active torsions:
REMARK  status: ('A' for Active; 'I' for Inactive)
REMARK    1  A    between atoms: C_1  and  C_2
REMARK    2  A    between atoms: C_4  and  C_5
REMARK    3  A    between atoms: C_7  and  N_8
REMARK    4  A    between atoms: C_9  and  C_11
REMARK    5  A    between atoms: C_11  and  O_12
REMARK    6  A    between atoms: O_12  and  C_13
REMARK    7  A    between atoms: C_13  and  C_15
REMARK    8  A    between atoms: C_15  and  C_16
REMARK    9  A    between atoms: C_16  and  C_17
REMARK                            x       y       z     vdW  Elec       q    Type
REMARK                         _______ _______ _______ _____ _____    ______ ____
ROOT
ATOM      1  N   UNL     1       2.640   5.646  20.233  0.00  0.00    +0.000 N 
ATOM      2  C   UNL     1       1.988   4.428  20.380  0.00  0.00    +0.000 C 
ATOM      3  O   UNL     1       0.776   4.256  20.482  0.00  0.00    +0.000 OA
ATOM      4  H   UNL     1       3.661   5.624  20.233  0.00  0.00    +0.000 HD
ENDROOT
BRANCH   1  11
ATOM      5  C   UNL     1       1.844   9.833  17.720  0.00  0.00    +0.000 C 
ATOM      6  C   UNL     1       1.644   8.995  18.950  0.00  0.00    +0.000 A 
ATOM      7  C   UNL     1       0.874   9.483  20.013  0.00  0.00    +0.000 A 
ATOM      8  C   UNL     1       0.680   8.706  21.158  0.00  0.00    +0.000 A 
ATOM      9  C   UNL     1      -0.138   9.199  22.314  0.00  0.00    +0.000 C 
ATOM     10  C   UNL     1       1.262   7.437  21.228  0.00  0.00    +0.000 A 
ATOM     11  C   UNL     1       2.038   6.925  20.185  0.00  0.00    +0.000 A 
ATOM     12  C   UNL     1       2.227   7.721  19.045  0.00  0.00    +0.000 A 
ENDBRANCH   1  11
BRANCH   2  13
ATOM     13  C   UNL     1       2.922   3.221  20.440  0.00  0.00    +0.000 C 
BRANCH  13  14
ATOM     14  O   UNL     1       3.983   3.344  19.495  0.00  0.00    +0.000 OA
BRANCH  14  15
ATOM     15  C   UNL     1       3.697   2.859  18.259  0.00  0.00    +0.000 C 
ATOM     16  O   UNL     1       3.487   1.678  18.010  0.00  0.00    +0.000 OA
BRANCH  15  17
ATOM     17  C   UNL     1       3.699   3.984  17.252  0.00  0.00    +0.000 C 
BRANCH  17  18
ATOM     18  C   UNL     1       5.105   4.329  16.759  0.00  0.00    +0.000 C 
BRANCH  18  19
ATOM     19  C   UNL     1       5.792   5.429  17.578  0.00  0.00    +0.000 C 
ATOM     20  C   UNL     1       7.093   4.982  18.239  0.00  0.00    +0.000 C 
ATOM     21  C   UNL     1       7.790   6.287  18.595  0.00  0.00    +0.000 C 
ATOM     22  C   UNL     1       7.321   7.308  17.561  0.00  0.00    +0.000 C 
ATOM     23  C   UNL     1       6.245   6.615  16.727  0.00  0.00    +0.000 C 
ENDBRANCH  18  19
ENDBRANCH  17  18
ENDBRANCH  15  17
ENDBRANCH  14  15
ENDBRANCH  13  14
ENDBRANCH   2  13
TORSDOF 7
ENDMDL
