MODEL 1
REMARK VINA RESULT:      -8.0      0.000      0.000
REMARK  Name = 
REMARK  10 active torsions:
REMARK  status: ('A' for Active; 'I' for Inactive)
REMARK    1  A    between atoms: C_1  and  O_2
REMARK    2  A    between atoms: O_2  and  C_3
REMARK    3  A    between atoms: C_6  and  C_7
REMARK    4  A    between atoms: N_9  and  C_10
REMARK    5  A    between atoms: C_10  and  C_11
REMARK    6  A    between atoms: C_10  and  C_15
REMARK    7  A    between atoms: C_11  and  C_12
REMARK    8  A    between atoms: C_12  and  O_14
REMARK    9  A    between atoms: C_23  and  C_24
REMARK   10  A    between atoms: C_27  and  C_28
REMARK                            x       y       z     vdW  Elec       q    Type
REMARK                         _______ _______ _______ _____ _____    ______ ____
ROOT
ATOM      1  C   UNL     1       2.924   4.667  19.879  0.00  0.00    +0.000 A 
ATOM      2  C   UNL     1       1.968   4.924  20.865  0.00  0.00    +0.000 A 
ATOM      3  C   UNL     1       1.448   6.202  21.003  0.00  0.00    +0.000 A 
ATOM      4  C   UNL     1       1.906   7.197  20.151  0.00  0.00    +0.000 A 
ATOM      5  N   UNL     1       2.815   6.984  19.160  0.00  0.00    +0.000 NA
ATOM      6  C   UNL     1       3.331   5.724  19.030  0.00  0.00    +0.000 A 
ENDROOT
BRANCH   6   7
ATOM      7  C   UNL     1       4.336   5.554  17.942  0.00  0.00    +0.000 A 
ATOM      8  C   UNL     1       5.551   6.274  17.926  0.00  0.00    +0.000 A 
ATOM      9  C   UNL     1       6.454   6.188  16.858  0.00  0.00    +0.000 A 
ATOM     10  C   UNL     1       6.191   5.339  15.784  0.00  0.00    +0.000 A 
ATOM     11  C   UNL     1       5.030   4.568  15.799  0.00  0.00    +0.000 A 
ATOM     12  C   UNL     1       4.122   4.683  16.860  0.00  0.00    +0.000 A 
ATOM     13  F   UNL     1       3.005   3.945  16.786  0.00  0.00    +0.000 F 
BRANCH  10  14
ATOM     14  C   UNL     1       7.101   5.277  14.676  0.00  0.00    +0.000 C 
ATOM     15  N   UNL     1       7.847   5.243  13.789  0.00  0.00    +0.000 NA
ENDBRANCH  10  14
ENDBRANCH   6   7
BRANCH   4  16
ATOM     16  C   UNL     1       1.395   8.595  20.352  0.00  0.00    +0.000 C 
ATOM     17  O   UNL     1       1.373   9.095  21.472  0.00  0.00    +0.000 OA
ATOM     18  N   UNL     1       0.987   9.258  19.216  0.00  0.00    +0.000 N 
ATOM     19  H   UNL     1       1.076   8.761  18.331  0.00  0.00    +0.000 HD
BRANCH  18  20
ATOM     20  C   UNL     1       0.363  10.581  19.246  0.00  0.00    +0.000 C 
BRANCH  20  21
ATOM     21  C   UNL     1      -0.979  10.619  18.518  0.00  0.00    +0.000 A 
ATOM     22  C   UNL     1      -1.195   9.814  17.382  0.00  0.00    +0.000 A 
ATOM     23  C   UNL     1      -2.425   9.800  16.720  0.00  0.00    +0.000 A 
ATOM     24  C   UNL     1      -3.470  10.595  17.175  0.00  0.00    +0.000 A 
ATOM     25  C   UNL     1      -3.276  11.423  18.277  0.00  0.00    +0.000 A 
ATOM     26  C   UNL     1      -2.041  11.443  18.939  0.00  0.00    +0.000 A 
ATOM     27 CL   UNL     1      -1.892  12.539  20.271  0.00  0.00    +0.000 Cl
ENDBRANCH  20  21
BRANCH  20  28
ATOM     28  C   UNL     1       1.335  11.690  18.816  0.00  0.00    +0.000 C 
BRANCH  28  29
ATOM     29  C   UNL     1       1.821  12.555  19.951  0.00  0.00    +0.000 C 
ATOM     30  O   UNL     1       2.495  13.567  19.833  0.00  0.00    +0.000 OA
BRANCH  29  31
ATOM     31  O   UNL     1       1.484  12.061  21.166  0.00  0.00    +0.000 OA
ATOM     32  H   UNL     1       0.865  12.620  21.675  0.00  0.00    +0.000 HD
ENDBRANCH  29  31
ENDBRANCH  28  29
ENDBRANCH  20  28
ENDBRANCH  18  20
ENDBRANCH   4  16
BRANCH   1  34
ATOM     33  C   UNL     1       2.704   2.330  19.518  0.00  0.00    +0.000 C 
ATOM     34  O   UNL     1       3.548   3.449  19.778  0.00  0.00    +0.000 OA
ENDBRANCH   1  34
TORSDOF 9
ENDMDL
MODEL 2
REMARK VINA RESULT:      -7.9      0.893      1.092
REMARK  Name = 
REMARK  10 active torsions:
REMARK  status: ('A' for Active; 'I' for Inactive)
REMARK    1  A    between atoms: C_1  and  O_2
REMARK    2  A    between atoms: O_2  and  C_3
REMARK    3  A    between atoms: C_6  and  C_7
REMARK    4  A    between atoms: N_9  and  C_10
REMARK    5  A    between atoms: C_10  and  C_11
REMARK    6  A    between atoms: C_10  and  C_15
REMARK    7  A    between atoms: C_11  and  C_12
REMARK    8  A    between atoms: C_12  and  O_14
REMARK    9  A    between atoms: C_23  and  C_24
REMARK   10  A    between atoms: C_27  and  C_28
REMARK                            x       y       z     vdW  Elec       q    Type
REMARK                         _______ _______ _______ _____ _____    ______ ____
ROOT
ATOM      1  C   UNL     1       2.871   4.624  19.923  0.00  0.00    +0.000 A 
ATOM      2  C   UNL     1       1.918   4.857  20.917  0.00  0.00    +0.000 A 
ATOM      3  C   UNL     1       1.396   6.131  21.086  0.00  0.00    +0.000 A 
ATOM      4  C   UNL     1       1.851   7.146  20.257  0.00  0.00    +0.000 A 
ATOM      5  N   UNL     1       2.758   6.957  19.260  0.00  0.00    +0.000 NA
ATOM      6  C   UNL     1       3.275   5.701  19.098  0.00  0.00    +0.000 A 
ENDROOT
BRANCH   6   7
ATOM      7  C   UNL     1       4.278   5.558  18.005  0.00  0.00    +0.000 A 
ATOM      8  C   UNL     1       5.450   6.344  17.956  0.00  0.00    +0.000 A 
ATOM      9  C   UNL     1       6.347   6.280  16.881  0.00  0.00    +0.000 A 
ATOM     10  C   UNL     1       6.122   5.388  15.833  0.00  0.00    +0.000 A 
ATOM     11  C   UNL     1       5.006   4.555  15.881  0.00  0.00    +0.000 A 
ATOM     12  C   UNL     1       4.103   4.648  16.948  0.00  0.00    +0.000 A 
ATOM     13  F   UNL     1       3.028   3.847  16.906  0.00  0.00    +0.000 F 
BRANCH  10  14
ATOM     14  C   UNL     1       7.023   5.347  14.717  0.00  0.00    +0.000 C 
ATOM     15  N   UNL     1       7.735   5.315  13.802  0.00  0.00    +0.000 NA
ENDBRANCH  10  14
ENDBRANCH   6   7
BRANCH   4  16
ATOM     16  C   UNL     1       1.339   8.538  20.492  0.00  0.00    +0.000 C 
ATOM     17  O   UNL     1       1.323   9.013  21.623  0.00  0.00    +0.000 OA
ATOM     18  N   UNL     1       0.922   9.226  19.374  0.00  0.00    +0.000 N 
ATOM     19  H   UNL     1       1.007   8.748  18.477  0.00  0.00    +0.000 HD
BRANCH  18  20
ATOM     20  C   UNL     1       0.296  10.546  19.436  0.00  0.00    +0.000 C 
BRANCH  20  21
ATOM     21  C   UNL     1      -1.008  10.621  18.646  0.00  0.00    +0.000 A 
ATOM     22  C   UNL     1      -1.224   9.765  17.548  0.00  0.00    +0.000 A 
ATOM     23  C   UNL     1      -2.423   9.786  16.831  0.00  0.00    +0.000 A 
ATOM     24  C   UNL     1      -3.435  10.666  17.192  0.00  0.00    +0.000 A 
ATOM     25  C   UNL     1      -3.238  11.545  18.254  0.00  0.00    +0.000 A 
ATOM     26  C   UNL     1      -2.033  11.530  18.970  0.00  0.00    +0.000 A 
ATOM     27 CL   UNL     1      -1.874  12.692  20.243  0.00  0.00    +0.000 Cl
ENDBRANCH  20  21
BRANCH  20  28
ATOM     28  C   UNL     1       1.287  11.673  19.110  0.00  0.00    +0.000 C 
BRANCH  28  29
ATOM     29  C   UNL     1       2.206  11.369  17.954  0.00  0.00    +0.000 C 
ATOM     30  O   UNL     1       2.460  10.255  17.524  0.00  0.00    +0.000 OA
BRANCH  29  31
ATOM     31  O   UNL     1       2.797  12.479  17.452  0.00  0.00    +0.000 OA
ATOM     32  H   UNL     1       2.177  13.184  17.184  0.00  0.00    +0.000 HD
ENDBRANCH  29  31
ENDBRANCH  28  29
ENDBRANCH  20  28
ENDBRANCH  18  20
ENDBRANCH   4  16
BRANCH   1  34
ATOM     33  C   UNL     1       2.654   2.260  19.845  0.00  0.00    +0.000 C 
ATOM     34  O   UNL     1       3.496   3.409  19.792  0.00  0.00    +0.000 OA
ENDBRANCH   1  34
TORSDOF 9
ENDMDL
MODEL 3
REMARK VINA RESULT:      -7.6      1.209      1.507
REMARK  Name = 
REMARK  10 active torsions:
REMARK  status: ('A' for Active; 'I' for Inactive)
REMARK    1  A    between atoms: C_1  and  O_2
REMARK    2  A    between atoms: O_2  and  C_3
REMARK    3  A    between atoms: C_6  and  C_7
REMARK    4  A    between atoms: N_9  and  C_10
REMARK    5  A    between atoms: C_10  and  C_11
REMARK    6  A    between atoms: C_10  and  C_15
REMARK    7  A    between atoms: C_11  and  C_12
REMARK    8  A    between atoms: C_12  and  O_14
REMARK    9  A    between atoms: C_23  and  C_24
REMARK   10  A    between atoms: C_27  and  C_28
REMARK                            x       y       z     vdW  Elec       q    Type
REMARK                         _______ _______ _______ _____ _____    ______ ____
ROOT
ATOM      1  C   UNL     1       3.014   4.685  19.847  0.00  0.00    +0.000 A 
ATOM      2  C   UNL     1       2.034   4.835  20.831  0.00  0.00    +0.000 A 
ATOM      3  C   UNL     1       1.476   6.084  21.061  0.00  0.00    +0.000 A 
ATOM      4  C   UNL     1       1.920   7.156  20.301  0.00  0.00    +0.000 A 
ATOM      5  N   UNL     1       2.853   7.048  19.315  0.00  0.00    +0.000 NA
ATOM      6  C   UNL     1       3.406   5.817  19.094  0.00  0.00    +0.000 A 
ENDROOT
BRANCH   6   7
ATOM      7  C   UNL     1       4.435   5.762  18.017  0.00  0.00    +0.000 A 
ATOM      8  C   UNL     1       4.103   5.932  16.654  0.00  0.00    +0.000 A 
ATOM      9  C   UNL     1       5.050   5.787  15.632  0.00  0.00    +0.000 A 
ATOM     10  C   UNL     1       6.380   5.508  15.944  0.00  0.00    +0.000 A 
ATOM     11  C   UNL     1       6.753   5.395  17.282  0.00  0.00    +0.000 A 
ATOM     12  C   UNL     1       5.791   5.516  18.293  0.00  0.00    +0.000 A 
ATOM     13  F   UNL     1       6.212   5.351  19.556  0.00  0.00    +0.000 F 
BRANCH  10  14
ATOM     14  C   UNL     1       7.342   5.326  14.895  0.00  0.00    +0.000 C 
ATOM     15  N   UNL     1       8.130   5.195  14.054  0.00  0.00    +0.000 NA
ENDBRANCH  10  14
ENDBRANCH   6   7
BRANCH   4  16
ATOM     16  C   UNL     1       1.367   8.519  20.603  0.00  0.00    +0.000 C 
ATOM     17  O   UNL     1       1.279   8.913  21.762  0.00  0.00    +0.000 OA
ATOM     18  N   UNL     1       0.996   9.276  19.514  0.00  0.00    +0.000 N 
ATOM     19  H   UNL     1       1.140   8.865  18.593  0.00  0.00    +0.000 HD
BRANCH  18  20
ATOM     20  C   UNL     1       0.339  10.578  19.633  0.00  0.00    +0.000 C 
BRANCH  20  21
ATOM     21  C   UNL     1      -0.938  10.675  18.802  0.00  0.00    +0.000 A 
ATOM     22  C   UNL     1      -1.100   9.876  17.652  0.00  0.00    +0.000 A 
ATOM     23  C   UNL     1      -2.274   9.917  16.895  0.00  0.00    +0.000 A 
ATOM     24  C   UNL     1      -3.313  10.760  17.266  0.00  0.00    +0.000 A 
ATOM     25  C   UNL     1      -3.168  11.583  18.380  0.00  0.00    +0.000 A 
ATOM     26  C   UNL     1      -1.990  11.549  19.137  0.00  0.00    +0.000 A 
ATOM     27 CL   UNL     1      -1.895  12.642  20.476  0.00  0.00    +0.000 Cl
ENDBRANCH  20  21
BRANCH  20  28
ATOM     28  C   UNL     1       1.316  11.742  19.411  0.00  0.00    +0.000 C 
BRANCH  28  29
ATOM     29  C   UNL     1       2.082  11.664  18.116  0.00  0.00    +0.000 C 
ATOM     30  O   UNL     1       2.530  10.643  17.617  0.00  0.00    +0.000 OA
BRANCH  29  31
ATOM     31  O   UNL     1       2.293  12.881  17.561  0.00  0.00    +0.000 OA
ATOM     32  H   UNL     1       3.228  13.080  17.360  0.00  0.00    +0.000 HD
ENDBRANCH  29  31
ENDBRANCH  28  29
ENDBRANCH  20  28
ENDBRANCH  18  20
ENDBRANCH   4  16
BRANCH   1  34
ATOM     33  C   UNL     1       2.869   2.320  19.684  0.00  0.00    +0.000 C 
ATOM     34  O   UNL     1       3.674   3.495  19.661  0.00  0.00    +0.000 OA
ENDBRANCH   1  34
TORSDOF 9
ENDMDL
MODEL 4
REMARK VINA RESULT:      -7.6      3.522      9.322
REMARK  Name = 
REMARK  10 active torsions:
REMARK  status: ('A' for Active; 'I' for Inactive)
REMARK    1  A    between atoms: C_1  and  O_2
REMARK    2  A    between atoms: O_2  and  C_3
REMARK    3  A    between atoms: C_6  and  C_7
REMARK    4  A    between atoms: N_9  and  C_10
REMARK    5  A    between atoms: C_10  and  C_11
REMARK    6  A    between atoms: C_10  and  C_15
REMARK    7  A    between atoms: C_11  and  C_12
REMARK    8  A    between atoms: C_12  and  O_14
REMARK    9  A    between atoms: C_23  and  C_24
REMARK   10  A    between atoms: C_27  and  C_28
REMARK                            x       y       z     vdW  Elec       q    Type
REMARK                         _______ _______ _______ _____ _____    ______ ____
ROOT
ATOM      1  C   UNL     1       1.378  11.072  18.687  0.00  0.00    +0.000 A 
ATOM      2  C   UNL     1       2.253  10.448  17.795  0.00  0.00    +0.000 A 
ATOM      3  C   UNL     1       2.516   9.092  17.924  0.00  0.00    +0.000 A 
ATOM      4  C   UNL     1       1.898   8.394  18.951  0.00  0.00    +0.000 A 
ATOM      5  N   UNL     1       1.018   8.958  19.824  0.00  0.00    +0.000 NA
ATOM      6  C   UNL     1       0.765  10.296  19.699  0.00  0.00    +0.000 A 
ENDROOT
BRANCH   6   7
ATOM      7  C   UNL     1      -0.190  10.862  20.694  0.00  0.00    +0.000 A 
ATOM      8  C   UNL     1      -0.014  10.687  22.085  0.00  0.00    +0.000 A 
ATOM      9  C   UNL     1      -0.958  11.135  23.018  0.00  0.00    +0.000 A 
ATOM     10  C   UNL     1      -2.096  11.818  22.591  0.00  0.00    +0.000 A 
ATOM     11  C   UNL     1      -2.269  12.061  21.229  0.00  0.00    +0.000 A 
ATOM     12  C   UNL     1      -1.331  11.584  20.305  0.00  0.00    +0.000 A 
ATOM     13  F   UNL     1      -1.584  11.816  19.008  0.00  0.00    +0.000 F 
BRANCH  10  14
ATOM     14  C   UNL     1      -3.079  12.246  23.544  0.00  0.00    +0.000 C 
ATOM     15  N   UNL     1      -3.882  12.575  24.315  0.00  0.00    +0.000 NA
ENDBRANCH  10  14
ENDBRANCH   6   7
BRANCH   4  16
ATOM     16  C   UNL     1       2.241   6.944  19.132  0.00  0.00    +0.000 C 
ATOM     17  O   UNL     1       2.015   6.379  20.198  0.00  0.00    +0.000 OA
ATOM     18  N   UNL     1       2.791   6.312  18.039  0.00  0.00    +0.000 N 
ATOM     19  H   UNL     1       2.908   6.867  17.192  0.00  0.00    +0.000 HD
BRANCH  18  20
ATOM     20  C   UNL     1       3.283   4.934  18.078  0.00  0.00    +0.000 C 
BRANCH  20  21
ATOM     21  C   UNL     1       4.579   4.746  17.292  0.00  0.00    +0.000 A 
ATOM     22  C   UNL     1       4.541   4.339  15.944  0.00  0.00    +0.000 A 
ATOM     23  C   UNL     1       5.709   4.196  15.191  0.00  0.00    +0.000 A 
ATOM     24  C   UNL     1       6.946   4.453  15.769  0.00  0.00    +0.000 A 
ATOM     25  C   UNL     1       7.016   4.827  17.108  0.00  0.00    +0.000 A 
ATOM     26  C   UNL     1       5.846   4.965  17.867  0.00  0.00    +0.000 A 
ATOM     27 CL   UNL     1       6.047   5.393  19.532  0.00  0.00    +0.000 Cl
ENDBRANCH  20  21
BRANCH  20  28
ATOM     28  C   UNL     1       2.187   3.918  17.724  0.00  0.00    +0.000 C 
BRANCH  28  29
ATOM     29  C   UNL     1       1.751   3.056  18.881  0.00  0.00    +0.000 C 
ATOM     30  O   UNL     1       2.061   1.887  19.050  0.00  0.00    +0.000 OA
BRANCH  29  31
ATOM     31  O   UNL     1       0.901   3.697  19.717  0.00  0.00    +0.000 OA
ATOM     32  H   UNL     1      -0.031   3.412  19.647  0.00  0.00    +0.000 HD
ENDBRANCH  29  31
ENDBRANCH  28  29
ENDBRANCH  20  28
ENDBRANCH  18  20
ENDBRANCH   4  16
BRANCH   1  34
ATOM     33  C   UNL     1       2.293  13.228  18.290  0.00  0.00    +0.000 C 
ATOM     34  O   UNL     1       1.175  12.430  18.669  0.00  0.00    +0.000 OA
ENDBRANCH   1  34
TORSDOF 9
ENDMDL
MODEL 5
REMARK VINA RESULT:      -7.5      3.437      9.338
REMARK  Name = 
REMARK  10 active torsions:
REMARK  status: ('A' for Active; 'I' for Inactive)
REMARK    1  A    between atoms: C_1  and  O_2
REMARK    2  A    between atoms: O_2  and  C_3
REMARK    3  A    between atoms: C_6  and  C_7
REMARK    4  A    between atoms: N_9  and  C_10
REMARK    5  A    between atoms: C_10  and  C_11
REMARK    6  A    between atoms: C_10  and  C_15
REMARK    7  A    between atoms: C_11  and  C_12
REMARK    8  A    between atoms: C_12  and  O_14
REMARK    9  A    between atoms: C_23  and  C_24
REMARK   10  A    between atoms: C_27  and  C_28
REMARK                            x       y       z     vdW  Elec       q    Type
REMARK                         _______ _______ _______ _____ _____    ______ ____
ROOT
ATOM      1  C   UNL     1       1.373  10.865  18.659  0.00  0.00    +0.000 A 
ATOM      2  C   UNL     1       2.274  10.263  17.777  0.00  0.00    +0.000 A 
ATOM      3  C   UNL     1       2.580   8.918  17.917  0.00  0.00    +0.000 A 
ATOM      4  C   UNL     1       1.979   8.207  18.946  0.00  0.00    +0.000 A 
ATOM      5  N   UNL     1       1.076   8.748  19.810  0.00  0.00    +0.000 NA
ATOM      6  C   UNL     1       0.780  10.076  19.674  0.00  0.00    +0.000 A 
ENDROOT
BRANCH   6   7
ATOM      7  C   UNL     1      -0.199  10.618  20.659  0.00  0.00    +0.000 A 
ATOM      8  C   UNL     1      -1.263  11.462  20.271  0.00  0.00    +0.000 A 
ATOM      9  C   UNL     1      -2.127  12.050  21.204  0.00  0.00    +0.000 A 
ATOM     10  C   UNL     1      -1.982  11.775  22.563  0.00  0.00    +0.000 A 
ATOM     11  C   UNL     1      -0.981  10.897  22.974  0.00  0.00    +0.000 A 
ATOM     12  C   UNL     1      -0.106  10.338  22.033  0.00  0.00    +0.000 A 
ATOM     13  F   UNL     1       0.862   9.537  22.504  0.00  0.00    +0.000 F 
BRANCH  10  14
ATOM     14  C   UNL     1      -2.847  12.404  23.520  0.00  0.00    +0.000 C 
ATOM     15  N   UNL     1      -3.533  12.907  24.309  0.00  0.00    +0.000 NA
ENDBRANCH  10  14
ENDBRANCH   6   7
BRANCH   4  16
ATOM     16  C   UNL     1       2.369   6.771  19.140  0.00  0.00    +0.000 C 
ATOM     17  O   UNL     1       2.196   6.219  20.223  0.00  0.00    +0.000 OA
ATOM     18  N   UNL     1       2.898   6.134  18.039  0.00  0.00    +0.000 N 
ATOM     19  H   UNL     1       2.970   6.676  17.180  0.00  0.00    +0.000 HD
BRANCH  18  20
ATOM     20  C   UNL     1       3.429   4.771  18.084  0.00  0.00    +0.000 C 
BRANCH  20  21
ATOM     21  C   UNL     1       4.722   4.614  17.288  0.00  0.00    +0.000 A 
ATOM     22  C   UNL     1       4.684   4.183  15.947  0.00  0.00    +0.000 A 
ATOM     23  C   UNL     1       5.849   4.067  15.184  0.00  0.00    +0.000 A 
ATOM     24  C   UNL     1       7.082   4.374  15.744  0.00  0.00    +0.000 A 
ATOM     25  C   UNL     1       7.153   4.773  17.077  0.00  0.00    +0.000 A 
ATOM     26  C   UNL     1       5.987   4.884  17.846  0.00  0.00    +0.000 A 
ATOM     27 CL   UNL     1       6.191   5.346  19.502  0.00  0.00    +0.000 Cl
ENDBRANCH  20  21
BRANCH  20  28
ATOM     28  C   UNL     1       2.360   3.722  17.749  0.00  0.00    +0.000 C 
BRANCH  28  29
ATOM     29  C   UNL     1       2.103   2.729  18.854  0.00  0.00    +0.000 C 
ATOM     30  O   UNL     1       2.749   2.635  19.886  0.00  0.00    +0.000 OA
BRANCH  29  31
ATOM     31  O   UNL     1       1.092   1.876  18.565  0.00  0.00    +0.000 OA
ATOM     32  H   UNL     1       0.291   1.995  19.112  0.00  0.00    +0.000 HD
ENDBRANCH  29  31
ENDBRANCH  28  29
ENDBRANCH  20  28
ENDBRANCH  18  20
ENDBRANCH   4  16
BRANCH   1  34
ATOM     33  C   UNL     1       2.163  13.056  19.126  0.00  0.00    +0.000 C 
ATOM     34  O   UNL     1       1.126  12.215  18.630  0.00  0.00    +0.000 OA
ENDBRANCH   1  34
TORSDOF 9
ENDMDL
MODEL 6
REMARK VINA RESULT:      -7.5      1.231      1.568
REMARK  Name = 
REMARK  10 active torsions:
REMARK  status: ('A' for Active; 'I' for Inactive)
REMARK    1  A    between atoms: C_1  and  O_2
REMARK    2  A    between atoms: O_2  and  C_3
REMARK    3  A    between atoms: C_6  and  C_7
REMARK    4  A    between atoms: N_9  and  C_10
REMARK    5  A    between atoms: C_10  and  C_11
REMARK    6  A    between atoms: C_10  and  C_15
REMARK    7  A    between atoms: C_11  and  C_12
REMARK    8  A    between atoms: C_12  and  O_14
REMARK    9  A    between atoms: C_23  and  C_24
REMARK   10  A    between atoms: C_27  and  C_28
REMARK                            x       y       z     vdW  Elec       q    Type
REMARK                         _______ _______ _______ _____ _____    ______ ____
ROOT
ATOM      1  C   UNL     1       2.729   4.486  19.705  0.00  0.00    +0.000 A 
ATOM      2  C   UNL     1       1.911   4.726  20.811  0.00  0.00    +0.000 A 
ATOM      3  C   UNL     1       1.440   6.009  21.053  0.00  0.00    +0.000 A 
ATOM      4  C   UNL     1       1.810   7.023  20.183  0.00  0.00    +0.000 A 
ATOM      5  N   UNL     1       2.584   6.827  19.079  0.00  0.00    +0.000 NA
ATOM      6  C   UNL     1       3.050   5.563  18.845  0.00  0.00    +0.000 A 
ENDROOT
BRANCH   6   7
ATOM      7  C   UNL     1       3.908   5.411  17.635  0.00  0.00    +0.000 A 
ATOM      8  C   UNL     1       4.130   4.156  17.027  0.00  0.00    +0.000 A 
ATOM      9  C   UNL     1       5.010   3.995  15.948  0.00  0.00    +0.000 A 
ATOM     10  C   UNL     1       5.668   5.099  15.410  0.00  0.00    +0.000 A 
ATOM     11  C   UNL     1       5.424   6.362  15.947  0.00  0.00    +0.000 A 
ATOM     12  C   UNL     1       4.562   6.505  17.043  0.00  0.00    +0.000 A 
ATOM     13  F   UNL     1       4.408   7.743  17.537  0.00  0.00    +0.000 F 
BRANCH  10  14
ATOM     14  C   UNL     1       6.594   4.928  14.328  0.00  0.00    +0.000 C 
ATOM     15  N   UNL     1       7.356   4.781  13.465  0.00  0.00    +0.000 NA
ENDBRANCH  10  14
ENDBRANCH   6   7
BRANCH   4  16
ATOM     16  C   UNL     1       1.360   8.422  20.489  0.00  0.00    +0.000 C 
ATOM     17  O   UNL     1       1.419   8.858  21.635  0.00  0.00    +0.000 OA
ATOM     18  N   UNL     1       0.911   9.162  19.418  0.00  0.00    +0.000 N 
ATOM     19  H   UNL     1       0.933   8.713  18.503  0.00  0.00    +0.000 HD
BRANCH  18  20
ATOM     20  C   UNL     1       0.335  10.500  19.557  0.00  0.00    +0.000 C 
BRANCH  20  21
ATOM     21  C   UNL     1      -0.971  10.665  18.783  0.00  0.00    +0.000 A 
ATOM     22  C   UNL     1      -1.203   9.917  17.612  0.00  0.00    +0.000 A 
ATOM     23  C   UNL     1      -2.405  10.020  16.906  0.00  0.00    +0.000 A 
ATOM     24  C   UNL     1      -3.403  10.878  17.351  0.00  0.00    +0.000 A 
ATOM     25  C   UNL     1      -3.188  11.653  18.489  0.00  0.00    +0.000 A 
ATOM     26  C   UNL     1      -1.981  11.555  19.195  0.00  0.00    +0.000 A 
ATOM     27 CL   UNL     1      -1.800  12.593  20.569  0.00  0.00    +0.000 Cl
ENDBRANCH  20  21
BRANCH  20  28
ATOM     28  C   UNL     1       1.366  11.604  19.282  0.00  0.00    +0.000 C 
BRANCH  28  29
ATOM     29  C   UNL     1       2.161  11.404  18.018  0.00  0.00    +0.000 C 
ATOM     30  O   UNL     1       2.462  10.325  17.533  0.00  0.00    +0.000 OA
BRANCH  29  31
ATOM     31  O   UNL     1       2.583  12.572  17.476  0.00  0.00    +0.000 OA
ATOM     32  H   UNL     1       3.340  12.983  17.937  0.00  0.00    +0.000 HD
ENDBRANCH  29  31
ENDBRANCH  28  29
ENDBRANCH  20  28
ENDBRANCH  18  20
ENDBRANCH   4  16
BRANCH   1  34
ATOM     33  C   UNL     1       2.428   2.139  19.495  0.00  0.00    +0.000 C 
ATOM     34  O   UNL     1       3.308   3.260  19.488  0.00  0.00    +0.000 OA
ENDBRANCH   1  34
TORSDOF 9
ENDMDL
MODEL 7
REMARK VINA RESULT:      -7.5      0.910      1.140
REMARK  Name = 
REMARK  10 active torsions:
REMARK  status: ('A' for Active; 'I' for Inactive)
REMARK    1  A    between atoms: C_1  and  O_2
REMARK    2  A    between atoms: O_2  and  C_3
REMARK    3  A    between atoms: C_6  and  C_7
REMARK    4  A    between atoms: N_9  and  C_10
REMARK    5  A    between atoms: C_10  and  C_11
REMARK    6  A    between atoms: C_10  and  C_15
REMARK    7  A    between atoms: C_11  and  C_12
REMARK    8  A    between atoms: C_12  and  O_14
REMARK    9  A    between atoms: C_23  and  C_24
REMARK   10  A    between atoms: C_27  and  C_28
REMARK                            x       y       z     vdW  Elec       q    Type
REMARK                         _______ _______ _______ _____ _____    ______ ____
ROOT
ATOM      1  C   UNL     1       3.049   4.709  19.840  0.00  0.00    +0.000 A 
ATOM      2  C   UNL     1       2.065   4.865  20.819  0.00  0.00    +0.000 A 
ATOM      3  C   UNL     1       1.477   6.106  21.012  0.00  0.00    +0.000 A 
ATOM      4  C   UNL     1       1.896   7.166  20.221  0.00  0.00    +0.000 A 
ATOM      5  N   UNL     1       2.831   7.051  19.238  0.00  0.00    +0.000 NA
ATOM      6  C   UNL     1       3.414   5.828  19.053  0.00  0.00    +0.000 A 
ENDROOT
BRANCH   6   7
ATOM      7  C   UNL     1       4.444   5.766  17.978  0.00  0.00    +0.000 A 
ATOM      8  C   UNL     1       4.106   5.864  16.610  0.00  0.00    +0.000 A 
ATOM      9  C   UNL     1       5.058   5.710  15.593  0.00  0.00    +0.000 A 
ATOM     10  C   UNL     1       6.398   5.497  15.915  0.00  0.00    +0.000 A 
ATOM     11  C   UNL     1       6.775   5.457  17.256  0.00  0.00    +0.000 A 
ATOM     12  C   UNL     1       5.809   5.585  18.262  0.00  0.00    +0.000 A 
ATOM     13  F   UNL     1       6.236   5.491  19.530  0.00  0.00    +0.000 F 
BRANCH  10  14
ATOM     14  C   UNL     1       7.366   5.307  14.873  0.00  0.00    +0.000 C 
ATOM     15  N   UNL     1       8.164   5.151  14.045  0.00  0.00    +0.000 NA
ENDBRANCH  10  14
ENDBRANCH   6   7
BRANCH   4  16
ATOM     16  C   UNL     1       1.310   8.523  20.483  0.00  0.00    +0.000 C 
ATOM     17  O   UNL     1       1.131   8.913  21.633  0.00  0.00    +0.000 OA
ATOM     18  N   UNL     1       1.018   9.281  19.370  0.00  0.00    +0.000 N 
ATOM     19  H   UNL     1       1.234   8.873  18.462  0.00  0.00    +0.000 HD
BRANCH  18  20
ATOM     20  C   UNL     1       0.343  10.577  19.442  0.00  0.00    +0.000 C 
BRANCH  20  21
ATOM     21  C   UNL     1      -0.961  10.610  18.649  0.00  0.00    +0.000 A 
ATOM     22  C   UNL     1      -1.124   9.790  17.514  0.00  0.00    +0.000 A 
ATOM     23  C   UNL     1      -2.320   9.772  16.793  0.00  0.00    +0.000 A 
ATOM     24  C   UNL     1      -3.382  10.578  17.183  0.00  0.00    +0.000 A 
ATOM     25  C   UNL     1      -3.238  11.422  18.282  0.00  0.00    +0.000 A 
ATOM     26  C   UNL     1      -2.037  11.446  19.004  0.00  0.00    +0.000 A 
ATOM     27 CL   UNL     1      -1.949  12.560  20.325  0.00  0.00    +0.000 Cl
ENDBRANCH  20  21
BRANCH  20  28
ATOM     28  C   UNL     1       1.293  11.742  19.128  0.00  0.00    +0.000 C 
BRANCH  28  29
ATOM     29  C   UNL     1       1.794  12.473  20.347  0.00  0.00    +0.000 C 
ATOM     30  O   UNL     1       2.581  13.407  20.341  0.00  0.00    +0.000 OA
BRANCH  29  31
ATOM     31  O   UNL     1       1.326  11.943  21.503  0.00  0.00    +0.000 OA
ATOM     32  H   UNL     1       0.394  11.655  21.469  0.00  0.00    +0.000 HD
ENDBRANCH  29  31
ENDBRANCH  28  29
ENDBRANCH  20  28
ENDBRANCH  18  20
ENDBRANCH   4  16
BRANCH   1  34
ATOM     33  C   UNL     1       3.034   2.470  19.047  0.00  0.00    +0.000 C 
ATOM     34  O   UNL     1       3.737   3.531  19.688  0.00  0.00    +0.000 OA
ENDBRANCH   1  34
TORSDOF 9
ENDMDL
MODEL 8
REMARK VINA RESULT:      -7.3      2.421      3.455
REMARK  Name = 
REMARK  10 active torsions:
REMARK  status: ('A' for Active; 'I' for Inactive)
REMARK    1  A    between atoms: C_1  and  O_2
REMARK    2  A    between atoms: O_2  and  C_3
REMARK    3  A    between atoms: C_6  and  C_7
REMARK    4  A    between atoms: N_9  and  C_10
REMARK    5  A    between atoms: C_10  and  C_11
REMARK    6  A    between atoms: C_10  and  C_15
REMARK    7  A    between atoms: C_11  and  C_12
REMARK    8  A    between atoms: C_12  and  O_14
REMARK    9  A    between atoms: C_23  and  C_24
REMARK   10  A    between atoms: C_27  and  C_28
REMARK                            x       y       z     vdW  Elec       q    Type
REMARK                         _______ _______ _______ _____ _____    ______ ____
ROOT
ATOM      1  C   UNL     1       2.338   6.227  20.200  0.00  0.00    +0.000 A 
ATOM      2  C   UNL     1       1.503   6.922  21.079  0.00  0.00    +0.000 A 
ATOM      3  C   UNL     1       1.010   8.168  20.720  0.00  0.00    +0.000 A 
ATOM      4  C   UNL     1       1.374   8.693  19.489  0.00  0.00    +0.000 A 
ATOM      5  N   UNL     1       2.162   8.038  18.592  0.00  0.00    +0.000 NA
ATOM      6  C   UNL     1       2.651   6.812  18.950  0.00  0.00    +0.000 A 
ENDROOT
BRANCH   6   7
ATOM      7  C   UNL     1       3.524   6.151  17.938  0.00  0.00    +0.000 A 
ATOM      8  C   UNL     1       4.673   6.783  17.413  0.00  0.00    +0.000 A 
ATOM      9  C   UNL     1       5.442   6.206  16.394  0.00  0.00    +0.000 A 
ATOM     10  C   UNL     1       5.110   4.948  15.893  0.00  0.00    +0.000 A 
ATOM     11  C   UNL     1       4.018   4.271  16.432  0.00  0.00    +0.000 A 
ATOM     12  C   UNL     1       3.242   4.871  17.432  0.00  0.00    +0.000 A 
ATOM     13  F   UNL     1       2.179   4.181  17.873  0.00  0.00    +0.000 F 
BRANCH  10  14
ATOM     14  C   UNL     1       5.877   4.373  14.826  0.00  0.00    +0.000 C 
ATOM     15  N   UNL     1       6.513   3.905  13.976  0.00  0.00    +0.000 NA
ENDBRANCH  10  14
ENDBRANCH   6   7
BRANCH   4  16
ATOM     16  C   UNL     1       0.899  10.072  19.136  0.00  0.00    +0.000 C 
ATOM     17  O   UNL     1       1.609  10.826  18.477  0.00  0.00    +0.000 OA
ATOM     18  N   UNL     1      -0.362  10.409  19.576  0.00  0.00    +0.000 N 
ATOM     19  H   UNL     1      -0.879   9.697  20.090  0.00  0.00    +0.000 HD
BRANCH  18  20
ATOM     20  C   UNL     1      -0.933  11.746  19.415  0.00  0.00    +0.000 C 
BRANCH  20  21
ATOM     21  C   UNL     1      -0.930  12.552  20.711  0.00  0.00    +0.000 A 
ATOM     22  C   UNL     1      -1.894  12.301  21.707  0.00  0.00    +0.000 A 
ATOM     23  C   UNL     1      -1.891  12.997  22.918  0.00  0.00    +0.000 A 
ATOM     24  C   UNL     1      -0.925  13.965  23.164  0.00  0.00    +0.000 A 
ATOM     25  C   UNL     1       0.022  14.255  22.185  0.00  0.00    +0.000 A 
ATOM     26  C   UNL     1       0.017  13.563  20.966  0.00  0.00    +0.000 A 
ATOM     27 CL   UNL     1       1.210  14.031  19.803  0.00  0.00    +0.000 Cl
ENDBRANCH  20  21
BRANCH  20  28
ATOM     28  C   UNL     1      -2.295  11.712  18.706  0.00  0.00    +0.000 C 
BRANCH  28  29
ATOM     29  C   UNL     1      -2.309  10.899  17.437  0.00  0.00    +0.000 C 
ATOM     30  O   UNL     1      -2.499   9.695  17.368  0.00  0.00    +0.000 OA
BRANCH  29  31
ATOM     31  O   UNL     1      -2.019  11.639  16.340  0.00  0.00    +0.000 OA
ATOM     32  H   UNL     1      -1.248  11.326  15.831  0.00  0.00    +0.000 HD
ENDBRANCH  29  31
ENDBRANCH  28  29
ENDBRANCH  20  28
ENDBRANCH  18  20
ENDBRANCH   4  16
BRANCH   1  34
ATOM     33  C   UNL     1       2.107   4.090  21.210  0.00  0.00    +0.000 C 
ATOM     34  O   UNL     1       2.938   5.045  20.556  0.00  0.00    +0.000 OA
ENDBRANCH   1  34
TORSDOF 9
ENDMDL
MODEL 9
REMARK VINA RESULT:      -7.3      3.704      9.479
REMARK  Name = 
REMARK  10 active torsions:
REMARK  status: ('A' for Active; 'I' for Inactive)
REMARK    1  A    between atoms: C_1  and  O_2
REMARK    2  A    between atoms: O_2  and  C_3
REMARK    3  A    between atoms: C_6  and  C_7
REMARK    4  A    between atoms: N_9  and  C_10
REMARK    5  A    between atoms: C_10  and  C_11
REMARK    6  A    between atoms: C_10  and  C_15
REMARK    7  A    between atoms: C_11  and  C_12
REMARK    8  A    between atoms: C_12  and  O_14
REMARK    9  A    between atoms: C_23  and  C_24
REMARK   10  A    between atoms: C_27  and  C_28
REMARK                            x       y       z     vdW  Elec       q    Type
REMARK                         _______ _______ _______ _____ _____    ______ ____
ROOT
ATOM      1  C   UNL     1       1.066  11.592  18.845  0.00  0.00    +0.000 A 
ATOM      2  C   UNL     1       1.987  10.975  17.996  0.00  0.00    +0.000 A 
ATOM      3  C   UNL     1       2.262   9.624  18.145  0.00  0.00    +0.000 A 
ATOM      4  C   UNL     1       1.611   8.924  19.149  0.00  0.00    +0.000 A 
ATOM      5  N   UNL     1       0.686   9.480  19.980  0.00  0.00    +0.000 NA
ATOM      6  C   UNL     1       0.421  10.813  19.835  0.00  0.00    +0.000 A 
ENDROOT
BRANCH   6   7
ATOM      7  C   UNL     1      -0.584  11.373  20.784  0.00  0.00    +0.000 A 
ATOM      8  C   UNL     1      -0.387  11.349  22.183  0.00  0.00    +0.000 A 
ATOM      9  C   UNL     1      -1.370  11.787  23.081  0.00  0.00    +0.000 A 
ATOM     10  C   UNL     1      -2.572  12.306  22.606  0.00  0.00    +0.000 A 
ATOM     11  C   UNL     1      -2.774  12.400  21.230  0.00  0.00    +0.000 A 
ATOM     12  C   UNL     1      -1.794  11.935  20.343  0.00  0.00    +0.000 A 
ATOM     13  F   UNL     1      -2.073  12.015  19.033  0.00  0.00    +0.000 F 
BRANCH  10  14
ATOM     14  C   UNL     1      -3.590  12.723  23.527  0.00  0.00    +0.000 C 
ATOM     15  N   UNL     1      -4.425  13.065  24.257  0.00  0.00    +0.000 NA
ENDBRANCH  10  14
ENDBRANCH   6   7
BRANCH   4  16
ATOM     16  C   UNL     1       1.965   7.479  19.354  0.00  0.00    +0.000 C 
ATOM     17  O   UNL     1       1.848   6.960  20.460  0.00  0.00    +0.000 OA
ATOM     18  N   UNL     1       2.399   6.798  18.239  0.00  0.00    +0.000 N 
ATOM     19  H   UNL     1       2.430   7.317  17.362  0.00  0.00    +0.000 HD
BRANCH  18  20
ATOM     20  C   UNL     1       2.887   5.420  18.284  0.00  0.00    +0.000 C 
BRANCH  20  21
ATOM     21  C   UNL     1       4.294   5.272  17.710  0.00  0.00    +0.000 A 
ATOM     22  C   UNL     1       4.706   6.066  16.622  0.00  0.00    +0.000 A 
ATOM     23  C   UNL     1       6.000   5.979  16.102  0.00  0.00    +0.000 A 
ATOM     24  C   UNL     1       6.914   5.089  16.654  0.00  0.00    +0.000 A 
ATOM     25  C   UNL     1       6.525   4.269  17.710  0.00  0.00    +0.000 A 
ATOM     26  C   UNL     1       5.225   4.351  18.229  0.00  0.00    +0.000 A 
ATOM     27 CL   UNL     1       4.832   3.258  19.512  0.00  0.00    +0.000 Cl
ENDBRANCH  20  21
BRANCH  20  28
ATOM     28  C   UNL     1       1.870   4.426  17.705  0.00  0.00    +0.000 C 
BRANCH  28  29
ATOM     29  C   UNL     1       1.340   3.433  18.708  0.00  0.00    +0.000 C 
ATOM     30  O   UNL     1       0.853   3.712  19.792  0.00  0.00    +0.000 OA
BRANCH  29  31
ATOM     31  O   UNL     1       1.513   2.150  18.312  0.00  0.00    +0.000 OA
ATOM     32  H   UNL     1       1.872   1.557  19.001  0.00  0.00    +0.000 HD
ENDBRANCH  29  31
ENDBRANCH  28  29
ENDBRANCH  20  28
ENDBRANCH  18  20
ENDBRANCH   4  16
BRANCH   1  34
ATOM     33  C   UNL     1       1.942  13.752  18.384  0.00  0.00    +0.000 C 
ATOM     34  O   UNL     1       0.845  12.947  18.808  0.00  0.00    +0.000 OA
ENDBRANCH   1  34
TORSDOF 9
ENDMDL
