MODEL 1
REMARK VINA RESULT:      -7.6      0.000      0.000
REMARK  Name = 
REMARK  4 active torsions:
REMARK  status: ('A' for Active; 'I' for Inactive)
REMARK    1  A    between atoms: C_2  and  C_3
REMARK    2  A    between atoms: C_3  and  N_4
REMARK    3  A    between atoms: N_18  and  S_19
REMARK    4  A    between atoms: S_19  and  C_22
REMARK                            x       y       z     vdW  Elec       q    Type
REMARK                         _______ _______ _______ _____ _____    ______ ____
ROOT
ATOM      1  O   UNL     1       2.348   6.482  20.359  0.00  0.00    +0.000 OA
ATOM      2  C   UNL     1       2.000   7.241  19.451  0.00  0.00    +0.000 C 
ATOM      3  N   UNL     1       1.510   8.508  19.728  0.00  0.00    +0.000 N 
ATOM      4  C   UNL     1       1.075   9.499  18.740  0.00  0.00    +0.000 C 
ATOM      5  C   UNL     1      -0.327  10.032  19.079  0.00  0.00    +0.000 C 
ATOM      6  N   UNL     1      -0.381  10.584  20.470  0.00  0.00    +0.000 NA
ATOM      7  C   UNL     1       0.055   9.533  21.457  0.00  0.00    +0.000 C 
ATOM      8  C   UNL     1       1.449   8.979  21.122  0.00  0.00    +0.000 C 
ENDROOT
BRANCH   6   9
ATOM      9  S   UNL     1       0.329  12.119  20.717  0.00  0.00    +0.000 S 
ATOM     10  O   UNL     1       1.607  11.917  21.362  0.00  0.00    +0.000 OA
ATOM     11  O   UNL     1       0.236  12.876  19.486  0.00  0.00    +0.000 OA
BRANCH   9  12
ATOM     12  C   UNL     1      -0.734  12.887  21.913  0.00  0.00    +0.000 A 
ATOM     13  C   UNL     1      -1.921  12.241  22.269  0.00  0.00    +0.000 A 
ATOM     14  C   UNL     1      -2.721  12.784  23.278  0.00  0.00    +0.000 A 
ATOM     15  C   UNL     1      -2.330  13.959  23.918  0.00  0.00    +0.000 A 
ATOM     16 CL   UNL     1      -3.302  14.603  25.183  0.00  0.00    +0.000 Cl
ATOM     17  C   UNL     1      -1.149  14.606  23.556  0.00  0.00    +0.000 A 
ATOM     18  C   UNL     1      -0.343  14.072  22.547  0.00  0.00    +0.000 A 
ENDBRANCH   9  12
ENDBRANCH   6   9
BRANCH   2  19
ATOM     19  C   UNL     1       2.024   6.751  17.998  0.00  0.00    +0.000 C 
BRANCH  19  20
ATOM     20  N   UNL     1       3.116   5.818  17.795  0.00  0.00    +0.000 N 
ATOM     21  C   UNL     1       3.008   4.480  18.012  0.00  0.00    +0.000 C 
ATOM     22  O   UNL     1       2.036   3.863  18.416  0.00  0.00    +0.000 OA
ATOM     23  N   UNL     1       4.219   3.890  17.751  0.00  0.00    +0.000 N 
ATOM     24  C   UNL     1       5.238   4.847  17.424  0.00  0.00    +0.000 C 
ATOM     25  C   UNL     1       6.393   4.884  18.432  0.00  0.00    +0.000 C 
ATOM     26  C   UNL     1       7.628   4.489  17.629  0.00  0.00    +0.000 C 
ATOM     27  C   UNL     1       7.324   4.970  16.221  0.00  0.00    +0.000 C 
ATOM     28  C   UNL     1       5.850   4.622  16.041  0.00  0.00    +0.000 C 
ATOM     29  C   UNL     1       4.407   6.134  17.480  0.00  0.00    +0.000 C 
ATOM     30  O   UNL     1       4.865   7.253  17.284  0.00  0.00    +0.000 OA
ATOM     31  H   UNL     1       4.354   2.898  17.912  0.00  0.00    +0.000 HD
ENDBRANCH  19  20
ENDBRANCH   2  19
TORSDOF 4
ENDMDL
MODEL 2
REMARK VINA RESULT:      -7.4      1.056      1.228
REMARK  Name = 
REMARK  4 active torsions:
REMARK  status: ('A' for Active; 'I' for Inactive)
REMARK    1  A    between atoms: C_2  and  C_3
REMARK    2  A    between atoms: C_3  and  N_4
REMARK    3  A    between atoms: N_18  and  S_19
REMARK    4  A    between atoms: S_19  and  C_22
REMARK                            x       y       z     vdW  Elec       q    Type
REMARK                         _______ _______ _______ _____ _____    ______ ____
ROOT
ATOM      1  O   UNL     1       2.552   6.871  20.102  0.00  0.00    +0.000 OA
ATOM      2  C   UNL     1       2.128   7.675  19.267  0.00  0.00    +0.000 C 
ATOM      3  N   UNL     1       1.386   8.779  19.654  0.00  0.00    +0.000 N 
ATOM      4  C   UNL     1       0.839   9.806  18.762  0.00  0.00    +0.000 C 
ATOM      5  C   UNL     1      -0.659  10.023  19.031  0.00  0.00    +0.000 C 
ATOM      6  N   UNL     1      -0.915  10.354  20.469  0.00  0.00    +0.000 NA
ATOM      7  C   UNL     1      -0.356   9.270  21.353  0.00  0.00    +0.000 C 
ATOM      8  C   UNL     1       1.139   9.030  21.085  0.00  0.00    +0.000 C 
ENDROOT
BRANCH   6   9
ATOM      9  S   UNL     1      -0.531  11.941  20.973  0.00  0.00    +0.000 S 
ATOM     10  O   UNL     1       0.451  11.845  22.028  0.00  0.00    +0.000 OA
ATOM     11  O   UNL     1      -0.277  12.751  19.800  0.00  0.00    +0.000 OA
BRANCH   9  12
ATOM     12  C   UNL     1      -2.033  12.519  21.721  0.00  0.00    +0.000 A 
ATOM     13  C   UNL     1      -2.268  12.230  23.068  0.00  0.00    +0.000 A 
ATOM     14  C   UNL     1      -3.398  12.758  23.697  0.00  0.00    +0.000 A 
ATOM     15  C   UNL     1      -4.277  13.568  22.980  0.00  0.00    +0.000 A 
ATOM     16 CL   UNL     1      -5.648  14.245  23.770  0.00  0.00    +0.000 Cl
ATOM     17  C   UNL     1      -4.045  13.850  21.634  0.00  0.00    +0.000 A 
ATOM     18  C   UNL     1      -2.919  13.324  20.996  0.00  0.00    +0.000 A 
ENDBRANCH   9  12
ENDBRANCH   6   9
BRANCH   2  19
ATOM     19  C   UNL     1       2.347   7.408  17.773  0.00  0.00    +0.000 C 
BRANCH  19  20
ATOM     20  N   UNL     1       3.305   6.334  17.585  0.00  0.00    +0.000 N 
ATOM     21  C   UNL     1       2.990   5.018  17.714  0.00  0.00    +0.000 C 
ATOM     22  O   UNL     1       1.912   4.532  18.017  0.00  0.00    +0.000 OA
ATOM     23  N   UNL     1       4.118   4.268  17.495  0.00  0.00    +0.000 N 
ATOM     24  C   UNL     1       5.286   5.079  17.292  0.00  0.00    +0.000 C 
ATOM     25  C   UNL     1       6.358   4.894  18.371  0.00  0.00    +0.000 C 
ATOM     26  C   UNL     1       7.578   4.361  17.625  0.00  0.00    +0.000 C 
ATOM     27  C   UNL     1       7.447   4.952  16.232  0.00  0.00    +0.000 C 
ATOM     28  C   UNL     1       5.956   4.836  15.938  0.00  0.00    +0.000 C 
ATOM     29  C   UNL     1       4.647   6.471  17.371  0.00  0.00    +0.000 C 
ATOM     30  O   UNL     1       5.274   7.518  17.272  0.00  0.00    +0.000 OA
ATOM     31  H   UNL     1       4.096   3.261  17.604  0.00  0.00    +0.000 HD
ENDBRANCH  19  20
ENDBRANCH   2  19
TORSDOF 4
ENDMDL
MODEL 3
REMARK VINA RESULT:      -7.3      4.189      9.914
REMARK  Name = 
REMARK  4 active torsions:
REMARK  status: ('A' for Active; 'I' for Inactive)
REMARK    1  A    between atoms: C_2  and  C_3
REMARK    2  A    between atoms: C_3  and  N_4
REMARK    3  A    between atoms: N_18  and  S_19
REMARK    4  A    between atoms: S_19  and  C_22
REMARK                            x       y       z     vdW  Elec       q    Type
REMARK                         _______ _______ _______ _____ _____    ______ ____
ROOT
ATOM      1  O   UNL     1       1.707   9.704  18.109  0.00  0.00    +0.000 OA
ATOM      2  C   UNL     1       1.623   8.929  19.066  0.00  0.00    +0.000 C 
ATOM      3  N   UNL     1       2.318   7.730  19.074  0.00  0.00    +0.000 N 
ATOM      4  C   UNL     1       2.308   6.736  20.152  0.00  0.00    +0.000 C 
ATOM      5  C   UNL     1       1.993   5.335  19.602  0.00  0.00    +0.000 C 
ATOM      6  N   UNL     1       2.942   4.950  18.509  0.00  0.00    +0.000 NA
ATOM      7  C   UNL     1       2.911   5.984  17.413  0.00  0.00    +0.000 C 
ATOM      8  C   UNL     1       3.210   7.393  17.951  0.00  0.00    +0.000 C 
ENDROOT
BRANCH   6   9
ATOM      9  S   UNL     1       4.513   4.476  18.986  0.00  0.00    +0.000 S 
ATOM     10  O   UNL     1       5.032   5.493  19.872  0.00  0.00    +0.000 OA
ATOM     11  O   UNL     1       4.473   3.088  19.398  0.00  0.00    +0.000 OA
BRANCH   9  12
ATOM     12  C   UNL     1       5.456   4.573  17.485  0.00  0.00    +0.000 A 
ATOM     13  C   UNL     1       5.084   3.768  16.405  0.00  0.00    +0.000 A 
ATOM     14  C   UNL     1       5.755   3.902  15.186  0.00  0.00    +0.000 A 
ATOM     15  C   UNL     1       6.784   4.833  15.059  0.00  0.00    +0.000 A 
ATOM     16 CL   UNL     1       7.582   5.018  13.546  0.00  0.00    +0.000 Cl
ATOM     17  C   UNL     1       7.158   5.632  16.140  0.00  0.00    +0.000 A 
ATOM     18  C   UNL     1       6.494   5.503  17.363  0.00  0.00    +0.000 A 
ENDBRANCH   9  12
ENDBRANCH   6   9
BRANCH   2  19
ATOM     19  C   UNL     1       0.672   9.250  20.225  0.00  0.00    +0.000 C 
BRANCH  19  20
ATOM     20  N   UNL     1       0.026  10.531  20.012  0.00  0.00    +0.000 N 
ATOM     21  C   UNL     1      -1.063  10.697  19.215  0.00  0.00    +0.000 C 
ATOM     22  O   UNL     1      -1.645   9.851  18.556  0.00  0.00    +0.000 OA
ATOM     23  N   UNL     1      -1.410  12.025  19.210  0.00  0.00    +0.000 N 
ATOM     24  C   UNL     1      -0.489  12.837  19.954  0.00  0.00    +0.000 C 
ATOM     25  C   UNL     1       0.255  13.867  19.096  0.00  0.00    +0.000 C 
ATOM     26  C   UNL     1      -0.157  15.221  19.663  0.00  0.00    +0.000 C 
ATOM     27  C   UNL     1      -0.431  14.940  21.131  0.00  0.00    +0.000 C 
ATOM     28  C   UNL     1      -1.153  13.598  21.103  0.00  0.00    +0.000 C 
ATOM     29  C   UNL     1       0.460  11.745  20.464  0.00  0.00    +0.000 C 
ATOM     30  O   UNL     1       1.449  11.965  21.151  0.00  0.00    +0.000 OA
ATOM     31  H   UNL     1      -2.168  12.357  18.624  0.00  0.00    +0.000 HD
ENDBRANCH  19  20
ENDBRANCH   2  19
TORSDOF 4
ENDMDL
MODEL 4
REMARK VINA RESULT:      -7.3      1.402      2.396
REMARK  Name = 
REMARK  4 active torsions:
REMARK  status: ('A' for Active; 'I' for Inactive)
REMARK    1  A    between atoms: C_2  and  C_3
REMARK    2  A    between atoms: C_3  and  N_4
REMARK    3  A    between atoms: N_18  and  S_19
REMARK    4  A    between atoms: S_19  and  C_22
REMARK                            x       y       z     vdW  Elec       q    Type
REMARK                         _______ _______ _______ _____ _____    ______ ____
ROOT
ATOM      1  O   UNL     1       2.278   7.250  20.292  0.00  0.00    +0.000 OA
ATOM      2  C   UNL     1       2.041   7.885  19.261  0.00  0.00    +0.000 C 
ATOM      3  N   UNL     1       1.379   9.101  19.310  0.00  0.00    +0.000 N 
ATOM      4  C   UNL     1       1.049   9.950  18.160  0.00  0.00    +0.000 C 
ATOM      5  C   UNL     1      -0.439  10.335  18.174  0.00  0.00    +0.000 C 
ATOM      6  N   UNL     1      -0.824  10.988  19.466  0.00  0.00    +0.000 NA
ATOM      7  C   UNL     1      -0.487  10.081  20.620  0.00  0.00    +0.000 C 
ATOM      8  C   UNL     1       0.995   9.674  20.612  0.00  0.00    +0.000 C 
ENDROOT
BRANCH   6   9
ATOM      9  S   UNL     1      -0.338  12.612  19.682  0.00  0.00    +0.000 S 
ATOM     10  O   UNL     1       1.065  12.612  20.028  0.00  0.00    +0.000 OA
ATOM     11  O   UNL     1      -0.821  13.393  18.562  0.00  0.00    +0.000 OA
BRANCH   9  12
ATOM     12  C   UNL     1      -1.224  13.128  21.130  0.00  0.00    +0.000 A 
ATOM     13  C   UNL     1      -2.621  13.073  21.119  0.00  0.00    +0.000 A 
ATOM     14  C   UNL     1      -3.330  13.384  22.282  0.00  0.00    +0.000 A 
ATOM     15  C   UNL     1      -2.642  13.742  23.440  0.00  0.00    +0.000 A 
ATOM     16 CL   UNL     1      -3.519  14.089  24.878  0.00  0.00    +0.000 Cl
ATOM     17  C   UNL     1      -1.248  13.803  23.448  0.00  0.00    +0.000 A 
ATOM     18  C   UNL     1      -0.531  13.497  22.288  0.00  0.00    +0.000 A 
ENDBRANCH   9  12
ENDBRANCH   6   9
BRANCH   2  19
ATOM     19  C   UNL     1       2.403   7.285  17.897  0.00  0.00    +0.000 C 
BRANCH  19  20
ATOM     20  N   UNL     1       3.157   6.057  18.066  0.00  0.00    +0.000 N 
ATOM     21  C   UNL     1       4.494   5.963  17.843  0.00  0.00    +0.000 C 
ATOM     22  O   UNL     1       5.253   6.839  17.459  0.00  0.00    +0.000 OA
ATOM     23  N   UNL     1       4.892   4.670  18.069  0.00  0.00    +0.000 N 
ATOM     24  C   UNL     1       3.790   3.802  18.377  0.00  0.00    +0.000 C 
ATOM     25  C   UNL     1       3.573   2.693  17.341  0.00  0.00    +0.000 C 
ATOM     26  C   UNL     1       3.776   1.392  18.111  0.00  0.00    +0.000 C 
ATOM     27  C   UNL     1       3.351   1.731  19.529  0.00  0.00    +0.000 C 
ATOM     28  C   UNL     1       3.922   3.127  19.743  0.00  0.00    +0.000 C 
ATOM     29  C   UNL     1       2.647   4.823  18.351  0.00  0.00    +0.000 C 
ATOM     30  O   UNL     1       1.471   4.538  18.543  0.00  0.00    +0.000 OA
ATOM     31  H   UNL     1       5.851   4.388  17.898  0.00  0.00    +0.000 HD
ENDBRANCH  19  20
ENDBRANCH   2  19
TORSDOF 4
ENDMDL
MODEL 5
REMARK VINA RESULT:      -7.2      1.789      2.009
REMARK  Name = 
REMARK  4 active torsions:
REMARK  status: ('A' for Active; 'I' for Inactive)
REMARK    1  A    between atoms: C_2  and  C_3
REMARK    2  A    between atoms: C_3  and  N_4
REMARK    3  A    between atoms: N_18  and  S_19
REMARK    4  A    between atoms: S_19  and  C_22
REMARK                            x       y       z     vdW  Elec       q    Type
REMARK                         _______ _______ _______ _____ _____    ______ ____
ROOT
ATOM      1  O   UNL     1       1.924   6.098  20.657  0.00  0.00    +0.000 OA
ATOM      2  C   UNL     1       1.855   6.745  19.608  0.00  0.00    +0.000 C 
ATOM      3  N   UNL     1       1.669   8.119  19.629  0.00  0.00    +0.000 N 
ATOM      4  C   UNL     1       1.582   8.995  18.457  0.00  0.00    +0.000 C 
ATOM      5  C   UNL     1       0.330   9.884  18.531  0.00  0.00    +0.000 C 
ATOM      6  N   UNL     1       0.290  10.669  19.806  0.00  0.00    +0.000 NA
ATOM      7  C   UNL     1       0.363   9.735  20.986  0.00  0.00    +0.000 C 
ATOM      8  C   UNL     1       1.603   8.828  20.919  0.00  0.00    +0.000 C 
ENDROOT
BRANCH   6   9
ATOM      9  S   UNL     1       1.331  12.019  19.911  0.00  0.00    +0.000 S 
ATOM     10  O   UNL     1       1.940  12.009  21.221  0.00  0.00    +0.000 OA
ATOM     11  O   UNL     1       2.150  12.067  18.717  0.00  0.00    +0.000 OA
BRANCH   9  12
ATOM     12  C   UNL     1       0.225  13.407  19.870  0.00  0.00    +0.000 A 
ATOM     13  C   UNL     1      -0.911  13.385  20.684  0.00  0.00    +0.000 A 
ATOM     14  C   UNL     1      -1.741  14.508  20.736  0.00  0.00    +0.000 A 
ATOM     15  C   UNL     1      -1.428  15.637  19.981  0.00  0.00    +0.000 A 
ATOM     16 CL   UNL     1      -2.434  17.030  20.077  0.00  0.00    +0.000 Cl
ATOM     17  C   UNL     1      -0.297  15.656  19.164  0.00  0.00    +0.000 A 
ATOM     18  C   UNL     1       0.536  14.536  19.104  0.00  0.00    +0.000 A 
ENDBRANCH   9  12
ENDBRANCH   6   9
BRANCH   2  19
ATOM     19  C   UNL     1       1.887   6.016  18.260  0.00  0.00    +0.000 C 
BRANCH  19  20
ATOM     20  N   UNL     1       3.110   5.248  18.127  0.00  0.00    +0.000 N 
ATOM     21  C   UNL     1       3.246   3.972  18.576  0.00  0.00    +0.000 C 
ATOM     22  O   UNL     1       2.419   3.291  19.160  0.00  0.00    +0.000 OA
ATOM     23  N   UNL     1       4.524   3.545  18.318  0.00  0.00    +0.000 N 
ATOM     24  C   UNL     1       5.344   4.577  17.749  0.00  0.00    +0.000 C 
ATOM     25  C   UNL     1       6.529   4.980  18.634  0.00  0.00    +0.000 C 
ATOM     26  C   UNL     1       7.768   4.647  17.808  0.00  0.00    +0.000 C 
ATOM     27  C   UNL     1       7.308   4.810  16.370  0.00  0.00    +0.000 C 
ATOM     28  C   UNL     1       5.909   4.205  16.377  0.00  0.00    +0.000 C 
ATOM     29  C   UNL     1       4.309   5.703  17.655  0.00  0.00    +0.000 C 
ATOM     30  O   UNL     1       4.556   6.826  17.234  0.00  0.00    +0.000 OA
ATOM     31  H   UNL     1       4.837   2.633  18.633  0.00  0.00    +0.000 HD
ENDBRANCH  19  20
ENDBRANCH   2  19
TORSDOF 4
ENDMDL
MODEL 6
REMARK VINA RESULT:      -7.2      4.216     10.106
REMARK  Name = 
REMARK  4 active torsions:
REMARK  status: ('A' for Active; 'I' for Inactive)
REMARK    1  A    between atoms: C_2  and  C_3
REMARK    2  A    between atoms: C_3  and  N_4
REMARK    3  A    between atoms: N_18  and  S_19
REMARK    4  A    between atoms: S_19  and  C_22
REMARK                            x       y       z     vdW  Elec       q    Type
REMARK                         _______ _______ _______ _____ _____    ______ ____
ROOT
ATOM      1  O   UNL     1       0.878   8.264  20.682  0.00  0.00    +0.000 OA
ATOM      2  C   UNL     1       1.492   8.365  19.616  0.00  0.00    +0.000 C 
ATOM      3  N   UNL     1       2.228   7.303  19.115  0.00  0.00    +0.000 N 
ATOM      4  C   UNL     1       2.988   7.296  17.861  0.00  0.00    +0.000 C 
ATOM      5  C   UNL     1       4.428   6.813  18.096  0.00  0.00    +0.000 C 
ATOM      6  N   UNL     1       4.453   5.470  18.759  0.00  0.00    +0.000 NA
ATOM      7  C   UNL     1       3.679   5.520  20.051  0.00  0.00    +0.000 C 
ATOM      8  C   UNL     1       2.240   6.017  19.834  0.00  0.00    +0.000 C 
ENDROOT
BRANCH   6   9
ATOM      9  S   UNL     1       4.095   4.119  17.776  0.00  0.00    +0.000 S 
ATOM     10  O   UNL     1       4.503   2.931  18.490  0.00  0.00    +0.000 OA
ATOM     11  O   UNL     1       2.741   4.253  17.280  0.00  0.00    +0.000 OA
BRANCH   9  12
ATOM     12  C   UNL     1       5.201   4.296  16.399  0.00  0.00    +0.000 A 
ATOM     13  C   UNL     1       4.677   4.240  15.105  0.00  0.00    +0.000 A 
ATOM     14  C   UNL     1       5.517   4.472  14.013  0.00  0.00    +0.000 A 
ATOM     15  C   UNL     1       6.865   4.758  14.223  0.00  0.00    +0.000 A 
ATOM     16 CL   UNL     1       7.887   5.079  12.876  0.00  0.00    +0.000 Cl
ATOM     17  C   UNL     1       7.388   4.807  15.515  0.00  0.00    +0.000 A 
ATOM     18  C   UNL     1       6.556   4.574  16.613  0.00  0.00    +0.000 A 
ENDBRANCH   9  12
ENDBRANCH   6   9
BRANCH   2  19
ATOM     19  C   UNL     1       1.517   9.707  18.875  0.00  0.00    +0.000 C 
BRANCH  19  20
ATOM     20  N   UNL     1       0.407  10.540  19.297  0.00  0.00    +0.000 N 
ATOM     21  C   UNL     1      -0.779  10.600  18.635  0.00  0.00    +0.000 C 
ATOM     22  O   UNL     1      -1.096  10.015  17.612  0.00  0.00    +0.000 OA
ATOM     23  N   UNL     1      -1.600  11.494  19.275  0.00  0.00    +0.000 N 
ATOM     24  C   UNL     1      -0.947  12.152  20.372  0.00  0.00    +0.000 C 
ATOM     25  C   UNL     1      -0.803  13.666  20.182  0.00  0.00    +0.000 C 
ATOM     26  C   UNL     1      -1.598  14.283  21.328  0.00  0.00    +0.000 C 
ATOM     27  C   UNL     1      -1.499  13.255  22.443  0.00  0.00    +0.000 C 
ATOM     28  C   UNL     1      -1.651  11.927  21.711  0.00  0.00    +0.000 C 
ATOM     29  C   UNL     1       0.415  11.450  20.317  0.00  0.00    +0.000 C 
ATOM     30  O   UNL     1       1.345  11.702  21.071  0.00  0.00    +0.000 OA
ATOM     31  H   UNL     1      -2.513  11.719  18.895  0.00  0.00    +0.000 HD
ENDBRANCH  19  20
ENDBRANCH   2  19
TORSDOF 4
ENDMDL
MODEL 7
REMARK VINA RESULT:      -7.1      2.478      3.942
REMARK  Name = 
REMARK  4 active torsions:
REMARK  status: ('A' for Active; 'I' for Inactive)
REMARK    1  A    between atoms: C_2  and  C_3
REMARK    2  A    between atoms: C_3  and  N_4
REMARK    3  A    between atoms: N_18  and  S_19
REMARK    4  A    between atoms: S_19  and  C_22
REMARK                            x       y       z     vdW  Elec       q    Type
REMARK                         _______ _______ _______ _____ _____    ______ ____
ROOT
ATOM      1  O   UNL     1      -0.295   9.912  17.936  0.00  0.00    +0.000 OA
ATOM      2  C   UNL     1       0.156  10.209  19.045  0.00  0.00    +0.000 C 
ATOM      3  N   UNL     1      -0.626  10.869  19.980  0.00  0.00    +0.000 N 
ATOM      4  C   UNL     1      -0.209  11.264  21.328  0.00  0.00    +0.000 C 
ATOM      5  C   UNL     1      -0.513  12.750  21.581  0.00  0.00    +0.000 C 
ATOM      6  N   UNL     1      -1.958  13.062  21.341  0.00  0.00    +0.000 NA
ATOM      7  C   UNL     1      -2.345  12.659  19.942  0.00  0.00    +0.000 C 
ATOM      8  C   UNL     1      -2.032  11.178  19.668  0.00  0.00    +0.000 C 
ENDROOT
BRANCH   6   9
ATOM      9  S   UNL     1      -3.062  12.566  22.547  0.00  0.00    +0.000 S 
ATOM     10  O   UNL     1      -4.296  12.196  21.893  0.00  0.00    +0.000 OA
ATOM     11  O   UNL     1      -2.393  11.640  23.437  0.00  0.00    +0.000 OA
BRANCH   9  12
ATOM     12  C   UNL     1      -3.390  14.056  23.455  0.00  0.00    +0.000 A 
ATOM     13  C   UNL     1      -2.324  14.710  24.080  0.00  0.00    +0.000 A 
ATOM     14  C   UNL     1      -2.548  15.934  24.717  0.00  0.00    +0.000 A 
ATOM     15  C   UNL     1      -3.826  16.489  24.723  0.00  0.00    +0.000 A 
ATOM     16 CL   UNL     1      -4.088  18.012  25.479  0.00  0.00    +0.000 Cl
ATOM     17  C   UNL     1      -4.890  15.831  24.106  0.00  0.00    +0.000 A 
ATOM     18  C   UNL     1      -4.676  14.606  23.469  0.00  0.00    +0.000 A 
ENDBRANCH   9  12
ENDBRANCH   6   9
BRANCH   2  19
ATOM     19  C   UNL     1       1.628   9.924  19.370  0.00  0.00    +0.000 C 
BRANCH  19  20
ATOM     20  N   UNL     1       1.850   8.498  19.510  0.00  0.00    +0.000 N 
ATOM     21  C   UNL     1       1.564   7.803  20.643  0.00  0.00    +0.000 C 
ATOM     22  O   UNL     1       1.117   8.234  21.694  0.00  0.00    +0.000 OA
ATOM     23  N   UNL     1       1.912   6.488  20.458  0.00  0.00    +0.000 N 
ATOM     24  C   UNL     1       2.543   6.261  19.188  0.00  0.00    +0.000 C 
ATOM     25  C   UNL     1       3.994   5.782  19.300  0.00  0.00    +0.000 C 
ATOM     26  C   UNL     1       4.003   4.401  18.652  0.00  0.00    +0.000 C 
ATOM     27  C   UNL     1       2.901   4.475  17.609  0.00  0.00    +0.000 C 
ATOM     28  C   UNL     1       1.796   5.247  18.320  0.00  0.00    +0.000 C 
ATOM     29  C   UNL     1       2.465   7.678  18.607  0.00  0.00    +0.000 C 
ATOM     30  O   UNL     1       2.910   7.993  17.511  0.00  0.00    +0.000 OA
ATOM     31  H   UNL     1       1.826   5.821  21.216  0.00  0.00    +0.000 HD
ENDBRANCH  19  20
ENDBRANCH   2  19
TORSDOF 4
ENDMDL
MODEL 8
REMARK VINA RESULT:      -7.1      2.456      3.692
REMARK  Name = 
REMARK  4 active torsions:
REMARK  status: ('A' for Active; 'I' for Inactive)
REMARK    1  A    between atoms: C_2  and  C_3
REMARK    2  A    between atoms: C_3  and  N_4
REMARK    3  A    between atoms: N_18  and  S_19
REMARK    4  A    between atoms: S_19  and  C_22
REMARK                            x       y       z     vdW  Elec       q    Type
REMARK                         _______ _______ _______ _____ _____    ______ ____
ROOT
ATOM      1  O   UNL     1      -0.799   9.737  18.443  0.00  0.00    +0.000 OA
ATOM      2  C   UNL     1       0.092  10.252  19.123  0.00  0.00    +0.000 C 
ATOM      3  N   UNL     1      -0.212  11.143  20.140  0.00  0.00    +0.000 N 
ATOM      4  C   UNL     1       0.753  11.810  21.020  0.00  0.00    +0.000 C 
ATOM      5  C   UNL     1       0.509  13.328  21.048  0.00  0.00    +0.000 C 
ATOM      6  N   UNL     1      -0.901  13.649  21.438  0.00  0.00    +0.000 NA
ATOM      7  C   UNL     1      -1.861  12.962  20.503  0.00  0.00    +0.000 C 
ATOM      8  C   UNL     1      -1.620  11.444  20.451  0.00  0.00    +0.000 C 
ENDROOT
BRANCH   6   9
ATOM      9  S   UNL     1      -1.296  13.492  23.093  0.00  0.00    +0.000 S 
ATOM     10  O   UNL     1      -1.143  12.102  23.455  0.00  0.00    +0.000 OA
ATOM     11  O   UNL     1      -0.606  14.527  23.834  0.00  0.00    +0.000 OA
BRANCH   9  12
ATOM     12  C   UNL     1      -3.034  13.849  23.146  0.00  0.00    +0.000 A 
ATOM     13  C   UNL     1      -3.920  12.821  23.482  0.00  0.00    +0.000 A 
ATOM     14  C   UNL     1      -5.281  13.107  23.623  0.00  0.00    +0.000 A 
ATOM     15  C   UNL     1      -5.740  14.408  23.428  0.00  0.00    +0.000 A 
ATOM     16 CL   UNL     1      -7.412  14.761  23.637  0.00  0.00    +0.000 Cl
ATOM     17  C   UNL     1      -4.855  15.431  23.086  0.00  0.00    +0.000 A 
ATOM     18  C   UNL     1      -3.494  15.154  22.941  0.00  0.00    +0.000 A 
ENDBRANCH   9  12
ENDBRANCH   6   9
BRANCH   2  19
ATOM     19  C   UNL     1       1.562   9.975  18.788  0.00  0.00    +0.000 C 
BRANCH  19  20
ATOM     20  N   UNL     1       1.891   8.587  19.053  0.00  0.00    +0.000 N 
ATOM     21  C   UNL     1       1.745   8.003  20.272  0.00  0.00    +0.000 C 
ATOM     22  O   UNL     1       1.356   8.517  21.308  0.00  0.00    +0.000 OA
ATOM     23  N   UNL     1       2.164   6.698  20.191  0.00  0.00    +0.000 N 
ATOM     24  C   UNL     1       2.704   6.374  18.901  0.00  0.00    +0.000 C 
ATOM     25  C   UNL     1       4.189   5.995  18.933  0.00  0.00    +0.000 C 
ATOM     26  C   UNL     1       4.238   4.555  18.431  0.00  0.00    +0.000 C 
ATOM     27  C   UNL     1       3.052   4.452  17.487  0.00  0.00    +0.000 C 
ATOM     28  C   UNL     1       1.958   5.230  18.210  0.00  0.00    +0.000 C 
ATOM     29  C   UNL     1       2.484   7.713  18.187  0.00  0.00    +0.000 C 
ATOM     30  O   UNL     1       2.817   7.934  17.030  0.00  0.00    +0.000 OA
ATOM     31  H   UNL     1       2.186   6.112  21.018  0.00  0.00    +0.000 HD
ENDBRANCH  19  20
ENDBRANCH   2  19
TORSDOF 4
ENDMDL
MODEL 9
REMARK VINA RESULT:      -7.1      2.500      3.604
REMARK  Name = 
REMARK  4 active torsions:
REMARK  status: ('A' for Active; 'I' for Inactive)
REMARK    1  A    between atoms: C_2  and  C_3
REMARK    2  A    between atoms: C_3  and  N_4
REMARK    3  A    between atoms: N_18  and  S_19
REMARK    4  A    between atoms: S_19  and  C_22
REMARK                            x       y       z     vdW  Elec       q    Type
REMARK                         _______ _______ _______ _____ _____    ______ ____
ROOT
ATOM      1  O   UNL     1      -0.357   9.610  18.090  0.00  0.00    +0.000 OA
ATOM      2  C   UNL     1       0.486  10.055  18.874  0.00  0.00    +0.000 C 
ATOM      3  N   UNL     1       0.133  10.963  19.860  0.00  0.00    +0.000 N 
ATOM      4  C   UNL     1       1.037  11.553  20.852  0.00  0.00    +0.000 C 
ATOM      5  C   UNL     1       0.905  13.085  20.870  0.00  0.00    +0.000 C 
ATOM      6  N   UNL     1      -0.513  13.510  21.099  0.00  0.00    +0.000 NA
ATOM      7  C   UNL     1      -1.407  12.900  20.051  0.00  0.00    +0.000 C 
ATOM      8  C   UNL     1      -1.275  11.368  20.011  0.00  0.00    +0.000 C 
ENDROOT
BRANCH   6   9
ATOM      9  S   UNL     1      -1.107  13.378  22.695  0.00  0.00    +0.000 S 
ATOM     10  O   UNL     1      -0.982  11.997  23.102  0.00  0.00    +0.000 OA
ATOM     11  O   UNL     1      -0.526  14.438  23.495  0.00  0.00    +0.000 OA
BRANCH   9  12
ATOM     12  C   UNL     1      -2.842  13.709  22.528  0.00  0.00    +0.000 A 
ATOM     13  C   UNL     1      -3.249  14.994  22.157  0.00  0.00    +0.000 A 
ATOM     14  C   UNL     1      -4.604  15.246  21.928  0.00  0.00    +0.000 A 
ATOM     15  C   UNL     1      -5.535  14.218  22.068  0.00  0.00    +0.000 A 
ATOM     16 CL   UNL     1      -7.197  14.526  21.749  0.00  0.00    +0.000 Cl
ATOM     17  C   UNL     1      -5.128  12.938  22.444  0.00  0.00    +0.000 A 
ATOM     18  C   UNL     1      -3.776  12.677  22.678  0.00  0.00    +0.000 A 
ENDBRANCH   9  12
ENDBRANCH   6   9
BRANCH   2  19
ATOM     19  C   UNL     1       1.961   9.670  18.706  0.00  0.00    +0.000 C 
BRANCH  19  20
ATOM     20  N   UNL     1       2.153   8.261  18.993  0.00  0.00    +0.000 N 
ATOM     21  C   UNL     1       1.831   7.688  20.183  0.00  0.00    +0.000 C 
ATOM     22  O   UNL     1       1.371   8.229  21.175  0.00  0.00    +0.000 OA
ATOM     23  N   UNL     1       2.157   6.356  20.136  0.00  0.00    +0.000 N 
ATOM     24  C   UNL     1       2.809   5.992  18.910  0.00  0.00    +0.000 C 
ATOM     25  C   UNL     1       4.249   5.502  19.101  0.00  0.00    +0.000 C 
ATOM     26  C   UNL     1       4.245   4.064  18.593  0.00  0.00    +0.000 C 
ATOM     27  C   UNL     1       3.165   4.051  17.525  0.00  0.00    +0.000 C 
ATOM     28  C   UNL     1       2.061   4.909  18.131  0.00  0.00    +0.000 C 
ATOM     29  C   UNL     1       2.771   7.345  18.189  0.00  0.00    +0.000 C 
ATOM     30  O   UNL     1       3.244   7.541  17.077  0.00  0.00    +0.000 OA
ATOM     31  H   UNL     1       2.044   5.768  20.955  0.00  0.00    +0.000 HD
ENDBRANCH  19  20
ENDBRANCH   2  19
TORSDOF 4
ENDMDL
