MODEL 1
REMARK VINA RESULT:      -6.9      0.000      0.000
REMARK  Name = 
REMARK  5 active torsions:
REMARK  status: ('A' for Active; 'I' for Inactive)
REMARK    1  A    between atoms: C_2  and  C_3
REMARK    2  A    between atoms: C_2  and  C_4
REMARK    3  A    between atoms: C_17  and  N_18
REMARK    4  A    between atoms: N_18  and  C_19
REMARK    5  A    between atoms: C_19  and  C_20
REMARK                            x       y       z     vdW  Elec       q    Type
REMARK                         _______ _______ _______ _____ _____    ______ ____
ROOT
ATOM      1  C   UNL     1       5.650   6.013  17.054  0.00  0.00    +0.000 C 
ATOM      2  C   UNL     1       7.182   5.916  16.885  0.00  0.00    +0.000 C 
ATOM      3  C   UNL     1       7.732   5.275  15.614  0.00  0.00    +0.000 C 
ATOM      4  N   UNL     1       6.949   5.446  14.411  0.00  0.00    +0.000 NA
ATOM      5  C   UNL     1       7.646   4.990  13.182  0.00  0.00    +0.000 C 
ATOM      6  C   UNL     1       7.088   3.796  12.430  0.00  0.00    +0.000 A 
ATOM      7  C   UNL     1       7.861   3.048  11.527  0.00  0.00    +0.000 A 
ATOM      8  C   UNL     1       7.331   1.926  10.882  0.00  0.00    +0.000 A 
ATOM      9  C   UNL     1       6.003   1.536  11.096  0.00  0.00    +0.000 A 
ATOM     10  C   UNL     1       5.227   2.297  11.942  0.00  0.00    +0.000 A 
ATOM     11  C   UNL     1       5.770   3.410  12.608  0.00  0.00    +0.000 A 
ATOM     12  C   UNL     1       4.993   3.971  13.740  0.00  0.00    +0.000 C 
ATOM     13  C   UNL     1       5.506   5.202  14.519  0.00  0.00    +0.000 C 
ATOM     14  C   UNL     1       4.808   5.226  15.993  0.00  0.00    +0.000 C 
ENDROOT
BRANCH   1  16
ATOM     15  C   UNL     1       5.933   5.063  19.408  0.00  0.00    +0.000 C 
ATOM     16  C   UNL     1       5.215   5.792  18.527  0.00  0.00    +0.000 C 
ATOM     17  C   UNL     1       3.848   6.291  18.931  0.00  0.00    +0.000 C 
ENDBRANCH   1  16
BRANCH  14  18
ATOM     18  N   UNL     1       4.350   3.870  16.416  0.00  0.00    +0.000 NA
ATOM     19  H   UNL     1       4.644   3.200  15.712  0.00  0.00    +0.000 HD
BRANCH  18  20
ATOM     20  C   UNL     1       2.920   3.601  16.441  0.00  0.00    +0.000 C 
BRANCH  20  21
ATOM     21  C   UNL     1       2.514   3.254  17.849  0.00  0.00    +0.000 A 
ATOM     22  C   UNL     1       3.407   2.550  18.675  0.00  0.00    +0.000 A 
ATOM     23  C   UNL     1       3.087   2.288  19.996  0.00  0.00    +0.000 A 
ATOM     24  C   UNL     1       1.859   2.714  20.504  0.00  0.00    +0.000 A 
ATOM     25 CL   UNL     1       1.480   2.452  22.156  0.00  0.00    +0.000 Cl
ATOM     26  C   UNL     1       0.948   3.370  19.681  0.00  0.00    +0.000 A 
ATOM     27  C   UNL     1       1.266   3.634  18.351  0.00  0.00    +0.000 A 
ENDBRANCH  20  21
ENDBRANCH  18  20
ENDBRANCH  14  18
TORSDOF 4
ENDMDL
MODEL 2
REMARK VINA RESULT:      -6.8      8.051     10.968
REMARK  Name = 
REMARK  5 active torsions:
REMARK  status: ('A' for Active; 'I' for Inactive)
REMARK    1  A    between atoms: C_2  and  C_3
REMARK    2  A    between atoms: C_2  and  C_4
REMARK    3  A    between atoms: C_17  and  N_18
REMARK    4  A    between atoms: N_18  and  C_19
REMARK    5  A    between atoms: C_19  and  C_20
REMARK                            x       y       z     vdW  Elec       q    Type
REMARK                         _______ _______ _______ _____ _____    ______ ____
ROOT
ATOM      1  C   UNL     1      -1.526  12.900  22.292  0.00  0.00    +0.000 C 
ATOM      2  C   UNL     1      -1.688  11.585  23.087  0.00  0.00    +0.000 C 
ATOM      3  C   UNL     1      -0.888  10.365  22.641  0.00  0.00    +0.000 C 
ATOM      4  N   UNL     1       0.408  10.619  22.053  0.00  0.00    +0.000 NA
ATOM      5  C   UNL     1       1.216   9.390  21.847  0.00  0.00    +0.000 C 
ATOM      6  C   UNL     1       1.534   8.959  20.427  0.00  0.00    +0.000 A 
ATOM      7  C   UNL     1       1.919   7.646  20.109  0.00  0.00    +0.000 A 
ATOM      8  C   UNL     1       2.164   7.268  18.785  0.00  0.00    +0.000 A 
ATOM      9  C   UNL     1       2.060   8.197  17.743  0.00  0.00    +0.000 A 
ATOM     10  C   UNL     1       1.732   9.498  18.056  0.00  0.00    +0.000 A 
ATOM     11  C   UNL     1       1.463   9.870  19.386  0.00  0.00    +0.000 A 
ATOM     12  C   UNL     1       0.798  11.177  19.606  0.00  0.00    +0.000 C 
ATOM     13  C   UNL     1       0.478  11.672  21.033  0.00  0.00    +0.000 C 
ATOM     14  C   UNL     1      -0.718  12.779  20.955  0.00  0.00    +0.000 C 
ENDROOT
BRANCH   1  16
ATOM     15  C   UNL     1      -2.934  14.977  21.820  0.00  0.00    +0.000 C 
ATOM     16  C   UNL     1      -2.863  13.678  22.180  0.00  0.00    +0.000 C 
ATOM     17  C   UNL     1      -4.117  12.977  22.648  0.00  0.00    +0.000 C 
ENDBRANCH   1  16
BRANCH  14  18
ATOM     18  N   UNL     1      -1.543  12.623  19.722  0.00  0.00    +0.000 NA
ATOM     19  H   UNL     1      -2.064  13.483  19.576  0.00  0.00    +0.000 HD
BRANCH  18  20
ATOM     20  C   UNL     1      -2.638  11.664  19.739  0.00  0.00    +0.000 C 
BRANCH  20  21
ATOM     21  C   UNL     1      -2.889  11.187  18.334  0.00  0.00    +0.000 A 
ATOM     22  C   UNL     1      -4.037  11.620  17.648  0.00  0.00    +0.000 A 
ATOM     23  C   UNL     1      -4.249  11.256  16.330  0.00  0.00    +0.000 A 
ATOM     24  C   UNL     1      -3.321  10.438  15.683  0.00  0.00    +0.000 A 
ATOM     25 CL   UNL     1      -3.541  10.036  14.031  0.00  0.00    +0.000 Cl
ATOM     26  C   UNL     1      -2.205   9.965  16.368  0.00  0.00    +0.000 A 
ATOM     27  C   UNL     1      -1.990  10.328  17.695  0.00  0.00    +0.000 A 
ENDBRANCH  20  21
ENDBRANCH  18  20
ENDBRANCH  14  18
TORSDOF 4
ENDMDL
MODEL 3
REMARK VINA RESULT:      -6.8      0.123      1.175
REMARK  Name = 
REMARK  5 active torsions:
REMARK  status: ('A' for Active; 'I' for Inactive)
REMARK    1  A    between atoms: C_2  and  C_3
REMARK    2  A    between atoms: C_2  and  C_4
REMARK    3  A    between atoms: C_17  and  N_18
REMARK    4  A    between atoms: N_18  and  C_19
REMARK    5  A    between atoms: C_19  and  C_20
REMARK                            x       y       z     vdW  Elec       q    Type
REMARK                         _______ _______ _______ _____ _____    ______ ____
ROOT
ATOM      1  C   UNL     1       5.637   5.987  17.004  0.00  0.00    +0.000 C 
ATOM      2  C   UNL     1       7.169   5.918  16.824  0.00  0.00    +0.000 C 
ATOM      3  C   UNL     1       7.722   5.279  15.553  0.00  0.00    +0.000 C 
ATOM      4  N   UNL     1       6.928   5.428  14.355  0.00  0.00    +0.000 NA
ATOM      5  C   UNL     1       7.624   4.977  13.123  0.00  0.00    +0.000 C 
ATOM      6  C   UNL     1       7.084   3.768  12.383  0.00  0.00    +0.000 A 
ATOM      7  C   UNL     1       7.864   3.028  11.479  0.00  0.00    +0.000 A 
ATOM      8  C   UNL     1       7.351   1.893  10.845  0.00  0.00    +0.000 A 
ATOM      9  C   UNL     1       6.032   1.479  11.071  0.00  0.00    +0.000 A 
ATOM     10  C   UNL     1       5.248   2.231  11.918  0.00  0.00    +0.000 A 
ATOM     11  C   UNL     1       5.774   3.359  12.573  0.00  0.00    +0.000 A 
ATOM     12  C   UNL     1       4.995   3.912  13.707  0.00  0.00    +0.000 C 
ATOM     13  C   UNL     1       5.491   5.157  14.474  0.00  0.00    +0.000 C 
ATOM     14  C   UNL     1       4.802   5.178  15.953  0.00  0.00    +0.000 C 
ENDROOT
BRANCH   1  16
ATOM     15  C   UNL     1       4.074   6.260  19.005  0.00  0.00    +0.000 C 
ATOM     16  C   UNL     1       5.217   5.768  18.481  0.00  0.00    +0.000 C 
ATOM     17  C   UNL     1       6.218   5.106  19.398  0.00  0.00    +0.000 C 
ENDBRANCH   1  16
BRANCH  14  18
ATOM     18  N   UNL     1       4.373   3.817  16.388  0.00  0.00    +0.000 NA
ATOM     19  H   UNL     1       4.631   3.154  15.663  0.00  0.00    +0.000 HD
BRANCH  18  20
ATOM     20  C   UNL     1       2.947   3.541  16.488  0.00  0.00    +0.000 C 
BRANCH  20  21
ATOM     21  C   UNL     1       2.595   3.318  17.935  0.00  0.00    +0.000 A 
ATOM     22  C   UNL     1       1.389   3.831  18.443  0.00  0.00    +0.000 A 
ATOM     23  C   UNL     1       1.009   3.572  19.748  0.00  0.00    +0.000 A 
ATOM     24  C   UNL     1       1.839   2.809  20.570  0.00  0.00    +0.000 A 
ATOM     25 CL   UNL     1       1.347   2.428  22.167  0.00  0.00    +0.000 Cl
ATOM     26  C   UNL     1       3.058   2.337  20.091  0.00  0.00    +0.000 A 
ATOM     27  C   UNL     1       3.445   2.597  18.778  0.00  0.00    +0.000 A 
ENDBRANCH  20  21
ENDBRANCH  18  20
ENDBRANCH  14  18
TORSDOF 4
ENDMDL
MODEL 4
REMARK VINA RESULT:      -6.6      8.091     10.975
REMARK  Name = 
REMARK  5 active torsions:
REMARK  status: ('A' for Active; 'I' for Inactive)
REMARK    1  A    between atoms: C_2  and  C_3
REMARK    2  A    between atoms: C_2  and  C_4
REMARK    3  A    between atoms: C_17  and  N_18
REMARK    4  A    between atoms: N_18  and  C_19
REMARK    5  A    between atoms: C_19  and  C_20
REMARK                            x       y       z     vdW  Elec       q    Type
REMARK                         _______ _______ _______ _____ _____    ______ ____
ROOT
ATOM      1  C   UNL     1      -1.482  12.925  22.452  0.00  0.00    +0.000 C 
ATOM      2  C   UNL     1      -1.631  11.590  23.216  0.00  0.00    +0.000 C 
ATOM      3  C   UNL     1      -0.846  10.380  22.720  0.00  0.00    +0.000 C 
ATOM      4  N   UNL     1       0.437  10.645  22.110  0.00  0.00    +0.000 NA
ATOM      5  C   UNL     1       1.236   9.420  21.853  0.00  0.00    +0.000 C 
ATOM      6  C   UNL     1       1.519   9.024  20.416  0.00  0.00    +0.000 A 
ATOM      7  C   UNL     1       1.893   7.719  20.055  0.00  0.00    +0.000 A 
ATOM      8  C   UNL     1       2.106   7.374  18.717  0.00  0.00    +0.000 A 
ATOM      9  C   UNL     1       1.981   8.331  17.702  0.00  0.00    +0.000 A 
ATOM     10  C   UNL     1       1.665   9.623  18.056  0.00  0.00    +0.000 A 
ATOM     11  C   UNL     1       1.428   9.962  19.401  0.00  0.00    +0.000 A 
ATOM     12  C   UNL     1       0.773  11.265  19.670  0.00  0.00    +0.000 C 
ATOM     13  C   UNL     1       0.487  11.723  21.116  0.00  0.00    +0.000 C 
ATOM     14  C   UNL     1      -0.706  12.835  21.094  0.00  0.00    +0.000 C 
ENDROOT
BRANCH   1  16
ATOM     15  C   UNL     1      -4.019  13.143  22.639  0.00  0.00    +0.000 C 
ATOM     16  C   UNL     1      -2.819  13.709  22.391  0.00  0.00    +0.000 C 
ATOM     17  C   UNL     1      -2.770  15.128  21.875  0.00  0.00    +0.000 C 
ENDBRANCH   1  16
BRANCH  14  18
ATOM     18  N   UNL     1      -1.560  12.715  19.876  0.00  0.00    +0.000 NA
ATOM     19  H   UNL     1      -2.172  13.524  19.835  0.00  0.00    +0.000 HD
BRANCH  18  20
ATOM     20  C   UNL     1      -2.548  11.646  19.829  0.00  0.00    +0.000 C 
BRANCH  20  21
ATOM     21  C   UNL     1      -2.819  11.299  18.389  0.00  0.00    +0.000 A 
ATOM     22  C   UNL     1      -1.922  10.470  17.694  0.00  0.00    +0.000 A 
ATOM     23  C   UNL     1      -2.191  10.075  16.395  0.00  0.00    +0.000 A 
ATOM     24  C   UNL     1      -3.355  10.519  15.767  0.00  0.00    +0.000 A 
ATOM     25 CL   UNL     1      -3.730   9.982  14.182  0.00  0.00    +0.000 Cl
ATOM     26  C   UNL     1      -4.227  11.379  16.430  0.00  0.00    +0.000 A 
ATOM     27  C   UNL     1      -3.958  11.780  17.737  0.00  0.00    +0.000 A 
ENDBRANCH  20  21
ENDBRANCH  18  20
ENDBRANCH  14  18
TORSDOF 4
ENDMDL
MODEL 5
REMARK VINA RESULT:      -6.1      8.851     11.896
REMARK  Name = 
REMARK  5 active torsions:
REMARK  status: ('A' for Active; 'I' for Inactive)
REMARK    1  A    between atoms: C_2  and  C_3
REMARK    2  A    between atoms: C_2  and  C_4
REMARK    3  A    between atoms: C_17  and  N_18
REMARK    4  A    between atoms: N_18  and  C_19
REMARK    5  A    between atoms: C_19  and  C_20
REMARK                            x       y       z     vdW  Elec       q    Type
REMARK                         _______ _______ _______ _____ _____    ______ ____
ROOT
ATOM      1  C   UNL     1      -2.484  13.668  22.501  0.00  0.00    +0.000 C 
ATOM      2  C   UNL     1      -2.715  12.408  23.364  0.00  0.00    +0.000 C 
ATOM      3  C   UNL     1      -1.848  11.181  23.102  0.00  0.00    +0.000 C 
ATOM      4  N   UNL     1      -0.497  11.427  22.650  0.00  0.00    +0.000 NA
ATOM      5  C   UNL     1       0.351  10.207  22.626  0.00  0.00    +0.000 C 
ATOM      6  C   UNL     1       0.839   9.686  21.287  0.00  0.00    +0.000 A 
ATOM      7  C   UNL     1       1.281   8.365  21.110  0.00  0.00    +0.000 A 
ATOM      8  C   UNL     1       1.684   7.902  19.854  0.00  0.00    +0.000 A 
ATOM      9  C   UNL     1       1.686   8.754  18.743  0.00  0.00    +0.000 A 
ATOM     10  C   UNL     1       1.301  10.064  18.922  0.00  0.00    +0.000 A 
ATOM     11  C   UNL     1       0.873  10.520  20.182  0.00  0.00    +0.000 A 
ATOM     12  C   UNL     1       0.165  11.822  20.230  0.00  0.00    +0.000 C 
ATOM     13  C   UNL     1      -0.327  12.407  21.571  0.00  0.00    +0.000 C 
ATOM     14  C   UNL     1      -1.525  13.475  21.277  0.00  0.00    +0.000 C 
ENDROOT
BRANCH   1  16
ATOM     15  C   UNL     1      -5.020  13.800  22.231  0.00  0.00    +0.000 C 
ATOM     16  C   UNL     1      -3.812  14.402  22.180  0.00  0.00    +0.000 C 
ATOM     17  C   UNL     1      -3.717  15.808  21.636  0.00  0.00    +0.000 C 
ENDBRANCH   1  16
BRANCH  14  18
ATOM     18  N   UNL     1      -2.198  13.213  19.972  0.00  0.00    +0.000 NA
ATOM     19  H   UNL     1      -2.827  13.987  19.778  0.00  0.00    +0.000 HD
BRANCH  18  20
ATOM     20  C   UNL     1      -3.131  12.099  19.887  0.00  0.00    +0.000 C 
BRANCH  20  21
ATOM     21  C   UNL     1      -3.264  11.685  18.446  0.00  0.00    +0.000 A 
ATOM     22  C   UNL     1      -2.141  11.191  17.760  0.00  0.00    +0.000 A 
ATOM     23  C   UNL     1      -2.257  10.732  16.459  0.00  0.00    +0.000 A 
ATOM     24  C   UNL     1      -3.497  10.777  15.820  0.00  0.00    +0.000 A 
ATOM     25 CL   UNL     1      -3.666  10.151  14.233  0.00  0.00    +0.000 Cl
ATOM     26  C   UNL     1      -4.605  11.309  16.475  0.00  0.00    +0.000 A 
ATOM     27  C   UNL     1      -4.492  11.773  17.783  0.00  0.00    +0.000 A 
ENDBRANCH  20  21
ENDBRANCH  18  20
ENDBRANCH  14  18
TORSDOF 4
ENDMDL
MODEL 6
REMARK VINA RESULT:      -6.1      9.824     13.308
REMARK  Name = 
REMARK  5 active torsions:
REMARK  status: ('A' for Active; 'I' for Inactive)
REMARK    1  A    between atoms: C_2  and  C_3
REMARK    2  A    between atoms: C_2  and  C_4
REMARK    3  A    between atoms: C_17  and  N_18
REMARK    4  A    between atoms: N_18  and  C_19
REMARK    5  A    between atoms: C_19  and  C_20
REMARK                            x       y       z     vdW  Elec       q    Type
REMARK                         _______ _______ _______ _____ _____    ______ ____
ROOT
ATOM      1  C   UNL     1      -0.629  11.096  18.193  0.00  0.00    +0.000 C 
ATOM      2  C   UNL     1      -1.472   9.984  17.530  0.00  0.00    +0.000 C 
ATOM      3  C   UNL     1      -2.979   9.978  17.766  0.00  0.00    +0.000 C 
ATOM      4  N   UNL     1      -3.613  11.266  17.939  0.00  0.00    +0.000 NA
ATOM      5  C   UNL     1      -5.097  11.199  17.945  0.00  0.00    +0.000 C 
ATOM      6  C   UNL     1      -5.836  11.546  19.224  0.00  0.00    +0.000 A 
ATOM      7  C   UNL     1      -7.158  11.137  19.463  0.00  0.00    +0.000 A 
ATOM      8  C   UNL     1      -7.797  11.436  20.670  0.00  0.00    +0.000 A 
ATOM      9  C   UNL     1      -7.145  12.178  21.662  0.00  0.00    +0.000 A 
ATOM     10  C   UNL     1      -5.867  12.625  21.411  0.00  0.00    +0.000 A 
ATOM     11  C   UNL     1      -5.217  12.302  20.206  0.00  0.00    +0.000 A 
ATOM     12  C   UNL     1      -3.752  12.521  20.143  0.00  0.00    +0.000 C 
ATOM     13  C   UNL     1      -2.960  12.208  18.855  0.00  0.00    +0.000 C 
ATOM     14  C   UNL     1      -1.391  11.979  19.239  0.00  0.00    +0.000 C 
ENDROOT
BRANCH   1  16
ATOM     15  C   UNL     1       0.926   9.368  19.249  0.00  0.00    +0.000 C 
ATOM     16  C   UNL     1       0.753  10.572  18.664  0.00  0.00    +0.000 C 
ATOM     17  C   UNL     1       1.919  11.530  18.599  0.00  0.00    +0.000 C 
ENDBRANCH   1  16
BRANCH  14  18
ATOM     18  N   UNL     1      -1.219  11.575  20.664  0.00  0.00    +0.000 NA
ATOM     19  H   UNL     1      -2.076  11.793  21.163  0.00  0.00    +0.000 HD
BRANCH  18  20
ATOM     20  C   UNL     1      -0.259  12.307  21.479  0.00  0.00    +0.000 C 
BRANCH  20  21
ATOM     21  C   UNL     1      -1.008  13.136  22.486  0.00  0.00    +0.000 A 
ATOM     22  C   UNL     1      -0.555  14.431  22.794  0.00  0.00    +0.000 A 
ATOM     23  C   UNL     1      -1.271  15.240  23.659  0.00  0.00    +0.000 A 
ATOM     24  C   UNL     1      -2.444  14.758  24.242  0.00  0.00    +0.000 A 
ATOM     25 CL   UNL     1      -3.373  15.775  25.264  0.00  0.00    +0.000 Cl
ATOM     26  C   UNL     1      -2.875  13.460  23.981  0.00  0.00    +0.000 A 
ATOM     27  C   UNL     1      -2.156  12.642  23.113  0.00  0.00    +0.000 A 
ENDBRANCH  20  21
ENDBRANCH  18  20
ENDBRANCH  14  18
TORSDOF 4
ENDMDL
MODEL 7
REMARK VINA RESULT:      -6.1      6.797      9.493
REMARK  Name = 
REMARK  5 active torsions:
REMARK  status: ('A' for Active; 'I' for Inactive)
REMARK    1  A    between atoms: C_2  and  C_3
REMARK    2  A    between atoms: C_2  and  C_4
REMARK    3  A    between atoms: C_17  and  N_18
REMARK    4  A    between atoms: N_18  and  C_19
REMARK    5  A    between atoms: C_19  and  C_20
REMARK                            x       y       z     vdW  Elec       q    Type
REMARK                         _______ _______ _______ _____ _____    ______ ____
ROOT
ATOM      1  C   UNL     1       0.015  11.690  20.138  0.00  0.00    +0.000 C 
ATOM      2  C   UNL     1      -0.663  10.809  21.210  0.00  0.00    +0.000 C 
ATOM      3  C   UNL     1      -0.260   9.341  21.303  0.00  0.00    +0.000 C 
ATOM      4  N   UNL     1       1.108   9.022  20.963  0.00  0.00    +0.000 NA
ATOM      5  C   UNL     1       1.487   7.622  21.283  0.00  0.00    +0.000 C 
ATOM      6  C   UNL     1       1.813   6.676  20.142  0.00  0.00    +0.000 A 
ATOM      7  C   UNL     1       1.783   5.280  20.290  0.00  0.00    +0.000 A 
ATOM      8  C   UNL     1       2.046   4.435  19.208  0.00  0.00    +0.000 A 
ATOM      9  C   UNL     1       2.378   4.959  17.953  0.00  0.00    +0.000 A 
ATOM     10  C   UNL     1       2.459   6.327  17.816  0.00  0.00    +0.000 A 
ATOM     11  C   UNL     1       2.170   7.176  18.900  0.00  0.00    +0.000 A 
ATOM     12  C   UNL     1       1.949   8.611  18.601  0.00  0.00    +0.000 C 
ATOM     13  C   UNL     1       1.640   9.617  19.731  0.00  0.00    +0.000 C 
ATOM     14  C   UNL     1       0.892  10.918  19.094  0.00  0.00    +0.000 C 
ENDROOT
BRANCH   1  16
ATOM     15  C   UNL     1      -2.271  12.798  19.881  0.00  0.00    +0.000 C 
ATOM     16  C   UNL     1      -0.970  12.722  19.529  0.00  0.00    +0.000 C 
ATOM     17  C   UNL     1      -0.471  13.565  18.379  0.00  0.00    +0.000 C 
ENDBRANCH   1  16
BRANCH  14  18
ATOM     18  N   UNL     1       0.215  10.597  17.804  0.00  0.00    +0.000 NA
ATOM     19  H   UNL     1      -0.382  11.380  17.554  0.00  0.00    +0.000 HD
BRANCH  18  20
ATOM     20  C   UNL     1      -0.761   9.517  17.786  0.00  0.00    +0.000 C 
BRANCH  20  21
ATOM     21  C   UNL     1      -2.122  10.096  17.505  0.00  0.00    +0.000 A 
ATOM     22  C   UNL     1      -3.209   9.742  18.323  0.00  0.00    +0.000 A 
ATOM     23  C   UNL     1      -4.451  10.321  18.132  0.00  0.00    +0.000 A 
ATOM     24  C   UNL     1      -4.628  11.251  17.106  0.00  0.00    +0.000 A 
ATOM     25 CL   UNL     1      -6.146  12.022  16.902  0.00  0.00    +0.000 Cl
ATOM     26  C   UNL     1      -3.569  11.572  16.260  0.00  0.00    +0.000 A 
ATOM     27  C   UNL     1      -2.318  10.990  16.449  0.00  0.00    +0.000 A 
ENDBRANCH  20  21
ENDBRANCH  18  20
ENDBRANCH  14  18
TORSDOF 4
ENDMDL
MODEL 8
REMARK VINA RESULT:      -5.9     10.009     12.754
REMARK  Name = 
REMARK  5 active torsions:
REMARK  status: ('A' for Active; 'I' for Inactive)
REMARK    1  A    between atoms: C_2  and  C_3
REMARK    2  A    between atoms: C_2  and  C_4
REMARK    3  A    between atoms: C_17  and  N_18
REMARK    4  A    between atoms: N_18  and  C_19
REMARK    5  A    between atoms: C_19  and  C_20
REMARK                            x       y       z     vdW  Elec       q    Type
REMARK                         _______ _______ _______ _____ _____    ______ ____
ROOT
ATOM      1  C   UNL     1       0.740  11.687  19.727  0.00  0.00    +0.000 C 
ATOM      2  C   UNL     1       1.917  11.826  18.737  0.00  0.00    +0.000 C 
ATOM      3  C   UNL     1       2.198  13.199  18.132  0.00  0.00    +0.000 C 
ATOM      4  N   UNL     1       1.901  14.345  18.961  0.00  0.00    +0.000 NA
ATOM      5  C   UNL     1       2.400  15.626  18.401  0.00  0.00    +0.000 C 
ATOM      6  C   UNL     1       1.390  16.671  17.964  0.00  0.00    +0.000 A 
ATOM      7  C   UNL     1       1.717  17.708  17.075  0.00  0.00    +0.000 A 
ATOM      8  C   UNL     1       0.753  18.631  16.657  0.00  0.00    +0.000 A 
ATOM      9  C   UNL     1      -0.560  18.564  17.140  0.00  0.00    +0.000 A 
ATOM     10  C   UNL     1      -0.872  17.580  18.052  0.00  0.00    +0.000 A 
ATOM     11  C   UNL     1       0.094  16.638  18.451  0.00  0.00    +0.000 A 
ATOM     12  C   UNL     1      -0.388  15.427  19.159  0.00  0.00    +0.000 C 
ATOM     13  C   UNL     1       0.603  14.348  19.646  0.00  0.00    +0.000 C 
ATOM     14  C   UNL     1      -0.197  12.939  19.833  0.00  0.00    +0.000 C 
ENDROOT
BRANCH   1  16
ATOM     15  C   UNL     1      -0.398   9.848  18.368  0.00  0.00    +0.000 C 
ATOM     16  C   UNL     1       0.003  10.332  19.564  0.00  0.00    +0.000 C 
ATOM     17  C   UNL     1      -0.415   9.611  20.824  0.00  0.00    +0.000 C 
ENDBRANCH   1  16
BRANCH  14  18
ATOM     18  N   UNL     1      -1.434  12.884  19.002  0.00  0.00    +0.000 NA
ATOM     19  H   UNL     1      -1.685  13.834  18.741  0.00  0.00    +0.000 HD
BRANCH  18  20
ATOM     20  C   UNL     1      -2.674  12.459  19.635  0.00  0.00    +0.000 C 
BRANCH  20  21
ATOM     21  C   UNL     1      -2.764  13.089  21.000  0.00  0.00    +0.000 A 
ATOM     22  C   UNL     1      -3.237  14.407  21.125  0.00  0.00    +0.000 A 
ATOM     23  C   UNL     1      -3.400  14.979  22.375  0.00  0.00    +0.000 A 
ATOM     24  C   UNL     1      -3.077  14.245  23.517  0.00  0.00    +0.000 A 
ATOM     25 CL   UNL     1      -3.339  14.921  25.071  0.00  0.00    +0.000 Cl
ATOM     26  C   UNL     1      -2.563  12.956  23.401  0.00  0.00    +0.000 A 
ATOM     27  C   UNL     1      -2.395  12.378  22.145  0.00  0.00    +0.000 A 
ENDBRANCH  20  21
ENDBRANCH  18  20
ENDBRANCH  14  18
TORSDOF 4
ENDMDL
MODEL 9
REMARK VINA RESULT:      -5.9     11.059     13.775
REMARK  Name = 
REMARK  5 active torsions:
REMARK  status: ('A' for Active; 'I' for Inactive)
REMARK    1  A    between atoms: C_2  and  C_3
REMARK    2  A    between atoms: C_2  and  C_4
REMARK    3  A    between atoms: C_17  and  N_18
REMARK    4  A    between atoms: N_18  and  C_19
REMARK    5  A    between atoms: C_19  and  C_20
REMARK                            x       y       z     vdW  Elec       q    Type
REMARK                         _______ _______ _______ _____ _____    ______ ____
ROOT
ATOM      1  C   UNL     1      -6.219  15.160  20.518  0.00  0.00    +0.000 C 
ATOM      2  C   UNL     1      -6.831  15.281  19.105  0.00  0.00    +0.000 C 
ATOM      3  C   UNL     1      -6.420  14.260  18.048  0.00  0.00    +0.000 C 
ATOM      4  N   UNL     1      -6.114  12.928  18.518  0.00  0.00    +0.000 NA
ATOM      5  C   UNL     1      -5.938  11.940  17.423  0.00  0.00    +0.000 C 
ATOM      6  C   UNL     1      -4.566  11.327  17.210  0.00  0.00    +0.000 A 
ATOM      7  C   UNL     1      -4.193  10.721  16.000  0.00  0.00    +0.000 A 
ATOM      8  C   UNL     1      -2.907  10.203  15.819  0.00  0.00    +0.000 A 
ATOM      9  C   UNL     1      -1.964  10.249  16.853  0.00  0.00    +0.000 A 
ATOM     10  C   UNL     1      -2.342  10.797  18.059  0.00  0.00    +0.000 A 
ATOM     11  C   UNL     1      -3.629  11.338  18.230  0.00  0.00    +0.000 A 
ATOM     12  C   UNL     1      -3.853  12.199  19.416  0.00  0.00    +0.000 C 
ATOM     13  C   UNL     1      -5.238  12.824  19.690  0.00  0.00    +0.000 C 
ATOM     14  C   UNL     1      -5.051  14.126  20.656  0.00  0.00    +0.000 C 
ENDROOT
BRANCH   1  16
ATOM     15  C   UNL     1      -5.520  17.615  20.431  0.00  0.00    +0.000 C 
ATOM     16  C   UNL     1      -5.939  16.550  21.148  0.00  0.00    +0.000 C 
ATOM     17  C   UNL     1      -5.991  16.655  22.654  0.00  0.00    +0.000 C 
ENDBRANCH   1  16
BRANCH  14  18
ATOM     18  N   UNL     1      -3.676  14.697  20.564  0.00  0.00    +0.000 NA
ATOM     19  H   UNL     1      -3.089  14.035  20.064  0.00  0.00    +0.000 HD
BRANCH  18  20
ATOM     20  C   UNL     1      -2.905  14.843  21.790  0.00  0.00    +0.000 C 
BRANCH  20  21
ATOM     21  C   UNL     1      -2.264  13.522  22.122  0.00  0.00    +0.000 A 
ATOM     22  C   UNL     1      -1.033  13.181  21.534  0.00  0.00    +0.000 A 
ATOM     23  C   UNL     1      -0.389  12.007  21.883  0.00  0.00    +0.000 A 
ATOM     24  C   UNL     1      -0.975  11.149  22.814  0.00  0.00    +0.000 A 
ATOM     25 CL   UNL     1      -0.153   9.725  23.303  0.00  0.00    +0.000 Cl
ATOM     26  C   UNL     1      -2.216  11.455  23.367  0.00  0.00    +0.000 A 
ATOM     27  C   UNL     1      -2.869  12.635  23.016  0.00  0.00    +0.000 A 
ENDBRANCH  20  21
ENDBRANCH  18  20
ENDBRANCH  14  18
TORSDOF 4
ENDMDL
