MODEL 1
REMARK VINA RESULT:      -8.3      0.000      0.000
REMARK  Name = 
REMARK  6 active torsions:
REMARK  status: ('A' for Active; 'I' for Inactive)
REMARK    1  A    between atoms: C_1  and  C_2
REMARK    2  A    between atoms: C_2  and  C_3
REMARK    3  A    between atoms: C_6  and  N_7
REMARK    4  A    between atoms: C_8  and  C_10
REMARK    5  A    between atoms: C_10  and  C_11
REMARK    6  A    between atoms: C_11  and  C_12
REMARK                            x       y       z     vdW  Elec       q    Type
REMARK                         _______ _______ _______ _____ _____    ______ ____
ROOT
ATOM      1  N   UNL     1       7.399   5.362  16.184  0.00  0.00    +0.000 N 
ATOM      2  C   UNL     1       6.934   6.493  16.833  0.00  0.00    +0.000 C 
ATOM      3  O   UNL     1       5.981   7.193  16.500  0.00  0.00    +0.000 OA
ATOM      4  H   UNL     1       8.150   4.848  16.638  0.00  0.00    +0.000 HD
ENDROOT
BRANCH   1   8
ATOM      5  C   UNL     1       5.933   3.610  12.606  0.00  0.00    +0.000 A 
ATOM      6  C   UNL     1       5.226   3.458  13.800  0.00  0.00    +0.000 A 
ATOM      7  C   UNL     1       5.686   4.042  14.982  0.00  0.00    +0.000 A 
ATOM      8  C   UNL     1       6.866   4.788  15.006  0.00  0.00    +0.000 A 
ATOM      9  C   UNL     1       7.563   4.965  13.805  0.00  0.00    +0.000 A 
ATOM     10  C   UNL     1       7.097   4.386  12.612  0.00  0.00    +0.000 A 
BRANCH   5  12
ATOM     11  C   UNL     1       3.930   3.127  11.161  0.00  0.00    +0.000 C 
ATOM     12  C   UNL     1       5.428   2.951  11.349  0.00  0.00    +0.000 C 
ENDBRANCH   5  12
ENDBRANCH   1   8
BRANCH   2  13
ATOM     13  C   UNL     1       7.658   6.810  18.123  0.00  0.00    +0.000 C 
BRANCH  13  14
ATOM     14  C   UNL     1       7.598   5.605  19.059  0.00  0.00    +0.000 C 
BRANCH  14  15
ATOM     15  C   UNL     1       6.209   5.081  19.161  0.00  0.00    +0.000 A 
ATOM     16  N   UNL     1       5.156   5.759  19.564  0.00  0.00    +0.000 NA
ATOM     17  C   UNL     1       4.115   4.865  19.552  0.00  0.00    +0.000 A 
ATOM     18  C   UNL     1       2.765   5.064  19.875  0.00  0.00    +0.000 A 
ATOM     19  C   UNL     1       1.896   3.969  19.819  0.00  0.00    +0.000 A 
ATOM     20  C   UNL     1       2.362   2.705  19.446  0.00  0.00    +0.000 A 
ATOM     21  C   UNL     1       3.703   2.493  19.103  0.00  0.00    +0.000 A 
ATOM     22  C   UNL     1       4.547   3.603  19.165  0.00  0.00    +0.000 A 
ATOM     23  N   UNL     1       5.883   3.769  18.902  0.00  0.00    +0.000 N 
ATOM     24  H   UNL     1       6.521   3.048  18.597  0.00  0.00    +0.000 HD
ENDBRANCH  14  15
ENDBRANCH  13  14
ENDBRANCH   2  13
TORSDOF 5
ENDMDL
MODEL 2
REMARK VINA RESULT:      -8.3      1.207      1.661
REMARK  Name = 
REMARK  6 active torsions:
REMARK  status: ('A' for Active; 'I' for Inactive)
REMARK    1  A    between atoms: C_1  and  C_2
REMARK    2  A    between atoms: C_2  and  C_3
REMARK    3  A    between atoms: C_6  and  N_7
REMARK    4  A    between atoms: C_8  and  C_10
REMARK    5  A    between atoms: C_10  and  C_11
REMARK    6  A    between atoms: C_11  and  C_12
REMARK                            x       y       z     vdW  Elec       q    Type
REMARK                         _______ _______ _______ _____ _____    ______ ____
ROOT
ATOM      1  N   UNL     1       6.689   5.605  15.948  0.00  0.00    +0.000 N 
ATOM      2  C   UNL     1       7.455   5.225  17.037  0.00  0.00    +0.000 C 
ATOM      3  O   UNL     1       8.108   4.190  17.152  0.00  0.00    +0.000 OA
ATOM      4  H   UNL     1       6.277   6.534  15.979  0.00  0.00    +0.000 HD
ENDROOT
BRANCH   1   8
ATOM      5  C   UNL     1       5.998   3.442  12.362  0.00  0.00    +0.000 A 
ATOM      6  C   UNL     1       7.172   4.180  12.518  0.00  0.00    +0.000 A 
ATOM      7  C   UNL     1       7.422   4.885  13.698  0.00  0.00    +0.000 A 
ATOM      8  C   UNL     1       6.505   4.874  14.751  0.00  0.00    +0.000 A 
ATOM      9  C   UNL     1       5.340   4.112  14.609  0.00  0.00    +0.000 A 
ATOM     10  C   UNL     1       5.090   3.396  13.426  0.00  0.00    +0.000 A 
BRANCH   5  12
ATOM     11  C   UNL     1       6.409   1.345  11.033  0.00  0.00    +0.000 C 
ATOM     12  C   UNL     1       5.740   2.710  11.071  0.00  0.00    +0.000 C 
ENDBRANCH   5  12
ENDBRANCH   1   8
BRANCH   2  13
ATOM     13  C   UNL     1       7.529   6.262  18.136  0.00  0.00    +0.000 C 
BRANCH  13  14
ATOM     14  C   UNL     1       6.874   5.721  19.404  0.00  0.00    +0.000 C 
BRANCH  14  15
ATOM     15  C   UNL     1       5.591   5.036  19.089  0.00  0.00    +0.000 A 
ATOM     16  N   UNL     1       4.426   5.622  18.917  0.00  0.00    +0.000 NA
ATOM     17  C   UNL     1       3.529   4.606  18.708  0.00  0.00    +0.000 A 
ATOM     18  C   UNL     1       2.152   4.670  18.454  0.00  0.00    +0.000 A 
ATOM     19  C   UNL     1       1.442   3.472  18.310  0.00  0.00    +0.000 A 
ATOM     20  C   UNL     1       2.092   2.239  18.413  0.00  0.00    +0.000 A 
ATOM     21  C   UNL     1       3.470   2.157  18.648  0.00  0.00    +0.000 A 
ATOM     22  C   UNL     1       4.154   3.367  18.785  0.00  0.00    +0.000 A 
ATOM     23  N   UNL     1       5.473   3.667  19.009  0.00  0.00    +0.000 N 
ATOM     24  H   UNL     1       6.222   2.999  19.124  0.00  0.00    +0.000 HD
ENDBRANCH  14  15
ENDBRANCH  13  14
ENDBRANCH   2  13
TORSDOF 5
ENDMDL
MODEL 3
REMARK VINA RESULT:      -8.2      1.148      1.283
REMARK  Name = 
REMARK  6 active torsions:
REMARK  status: ('A' for Active; 'I' for Inactive)
REMARK    1  A    between atoms: C_1  and  C_2
REMARK    2  A    between atoms: C_2  and  C_3
REMARK    3  A    between atoms: C_6  and  N_7
REMARK    4  A    between atoms: C_8  and  C_10
REMARK    5  A    between atoms: C_10  and  C_11
REMARK    6  A    between atoms: C_11  and  C_12
REMARK                            x       y       z     vdW  Elec       q    Type
REMARK                         _______ _______ _______ _____ _____    ______ ____
ROOT
ATOM      1  N   UNL     1       6.648   5.661  15.974  0.00  0.00    +0.000 N 
ATOM      2  C   UNL     1       7.427   5.251  17.043  0.00  0.00    +0.000 C 
ATOM      3  O   UNL     1       8.060   4.202  17.133  0.00  0.00    +0.000 OA
ATOM      4  H   UNL     1       6.255   6.597  16.023  0.00  0.00    +0.000 HD
ENDROOT
BRANCH   1   8
ATOM      5  C   UNL     1       6.118   3.483  12.368  0.00  0.00    +0.000 A 
ATOM      6  C   UNL     1       5.097   3.520  13.320  0.00  0.00    +0.000 A 
ATOM      7  C   UNL     1       5.249   4.245  14.504  0.00  0.00    +0.000 A 
ATOM      8  C   UNL     1       6.426   4.948  14.772  0.00  0.00    +0.000 A 
ATOM      9  C   UNL     1       7.441   4.935  13.808  0.00  0.00    +0.000 A 
ATOM     10  C   UNL     1       7.286   4.214  12.612  0.00  0.00    +0.000 A 
BRANCH   5  12
ATOM     11  C   UNL     1       6.939   1.535  11.004  0.00  0.00    +0.000 C 
ATOM     12  C   UNL     1       5.939   2.675  11.110  0.00  0.00    +0.000 C 
ENDBRANCH   5  12
ENDBRANCH   1   8
BRANCH   2  13
ATOM     13  C   UNL     1       7.543   6.273  18.152  0.00  0.00    +0.000 C 
BRANCH  13  14
ATOM     14  C   UNL     1       6.991   5.692  19.452  0.00  0.00    +0.000 C 
BRANCH  14  15
ATOM     15  C   UNL     1       5.674   5.038  19.224  0.00  0.00    +0.000 A 
ATOM     16  N   UNL     1       4.518   5.655  19.100  0.00  0.00    +0.000 NA
ATOM     17  C   UNL     1       3.583   4.661  18.966  0.00  0.00    +0.000 A 
ATOM     18  C   UNL     1       2.196   4.760  18.786  0.00  0.00    +0.000 A 
ATOM     19  C   UNL     1       1.445   3.581  18.712  0.00  0.00    +0.000 A 
ATOM     20  C   UNL     1       2.064   2.332  18.813  0.00  0.00    +0.000 A 
ATOM     21  C   UNL     1       3.450   2.215  18.975  0.00  0.00    +0.000 A 
ATOM     22  C   UNL     1       4.175   3.406  19.042  0.00  0.00    +0.000 A 
ATOM     23  N   UNL     1       5.512   3.672  19.188  0.00  0.00    +0.000 N 
ATOM     24  H   UNL     1       6.247   2.985  19.280  0.00  0.00    +0.000 HD
ENDBRANCH  14  15
ENDBRANCH  13  14
ENDBRANCH   2  13
TORSDOF 5
ENDMDL
MODEL 4
REMARK VINA RESULT:      -8.2      0.844      1.324
REMARK  Name = 
REMARK  6 active torsions:
REMARK  status: ('A' for Active; 'I' for Inactive)
REMARK    1  A    between atoms: C_1  and  C_2
REMARK    2  A    between atoms: C_2  and  C_3
REMARK    3  A    between atoms: C_6  and  N_7
REMARK    4  A    between atoms: C_8  and  C_10
REMARK    5  A    between atoms: C_10  and  C_11
REMARK    6  A    between atoms: C_11  and  C_12
REMARK                            x       y       z     vdW  Elec       q    Type
REMARK                         _______ _______ _______ _____ _____    ______ ____
ROOT
ATOM      1  N   UNL     1       7.479   5.231  16.594  0.00  0.00    +0.000 N 
ATOM      2  C   UNL     1       7.225   6.492  17.105  0.00  0.00    +0.000 C 
ATOM      3  O   UNL     1       6.590   7.393  16.560  0.00  0.00    +0.000 OA
ATOM      4  H   UNL     1       7.951   4.573  17.209  0.00  0.00    +0.000 HD
ENDROOT
BRANCH   1   8
ATOM      5  C   UNL     1       6.083   3.739  12.873  0.00  0.00    +0.000 A 
ATOM      6  C   UNL     1       7.210   4.561  12.918  0.00  0.00    +0.000 A 
ATOM      7  C   UNL     1       7.692   5.047  14.136  0.00  0.00    +0.000 A 
ATOM      8  C   UNL     1       7.059   4.730  15.339  0.00  0.00    +0.000 A 
ATOM      9  C   UNL     1       5.944   3.884  15.300  0.00  0.00    +0.000 A 
ATOM     10  C   UNL     1       5.463   3.387  14.077  0.00  0.00    +0.000 A 
BRANCH   5  12
ATOM     11  C   UNL     1       4.051   3.274  11.464  0.00  0.00    +0.000 C 
ATOM     12  C   UNL     1       5.569   3.248  11.545  0.00  0.00    +0.000 C 
ENDBRANCH   5  12
ENDBRANCH   1   8
BRANCH   2  13
ATOM     13  C   UNL     1       7.731   6.704  18.515  0.00  0.00    +0.000 C 
BRANCH  13  14
ATOM     14  C   UNL     1       7.253   5.566  19.413  0.00  0.00    +0.000 C 
BRANCH  14  15
ATOM     15  C   UNL     1       5.921   5.067  18.974  0.00  0.00    +0.000 A 
ATOM     16  N   UNL     1       4.862   5.808  18.730  0.00  0.00    +0.000 NA
ATOM     17  C   UNL     1       3.859   4.926  18.416  0.00  0.00    +0.000 A 
ATOM     18  C   UNL     1       2.528   5.180  18.056  0.00  0.00    +0.000 A 
ATOM     19  C   UNL     1       1.681   4.092  17.817  0.00  0.00    +0.000 A 
ATOM     20  C   UNL     1       2.151   2.781  17.931  0.00  0.00    +0.000 A 
ATOM     21  C   UNL     1       3.482   2.509  18.272  0.00  0.00    +0.000 A 
ATOM     22  C   UNL     1       4.306   3.613  18.502  0.00  0.00    +0.000 A 
ATOM     23  N   UNL     1       5.630   3.728  18.841  0.00  0.00    +0.000 N 
ATOM     24  H   UNL     1       6.272   2.963  18.993  0.00  0.00    +0.000 HD
ENDBRANCH  14  15
ENDBRANCH  13  14
ENDBRANCH   2  13
TORSDOF 5
ENDMDL
MODEL 5
REMARK VINA RESULT:      -8.1      0.422      1.191
REMARK  Name = 
REMARK  6 active torsions:
REMARK  status: ('A' for Active; 'I' for Inactive)
REMARK    1  A    between atoms: C_1  and  C_2
REMARK    2  A    between atoms: C_2  and  C_3
REMARK    3  A    between atoms: C_6  and  N_7
REMARK    4  A    between atoms: C_8  and  C_10
REMARK    5  A    between atoms: C_10  and  C_11
REMARK    6  A    between atoms: C_11  and  C_12
REMARK                            x       y       z     vdW  Elec       q    Type
REMARK                         _______ _______ _______ _____ _____    ______ ____
ROOT
ATOM      1  N   UNL     1       7.452   5.524  15.966  0.00  0.00    +0.000 N 
ATOM      2  C   UNL     1       6.792   6.532  16.647  0.00  0.00    +0.000 C 
ATOM      3  O   UNL     1       5.689   7.002  16.379  0.00  0.00    +0.000 OA
ATOM      4  H   UNL     1       8.325   5.193  16.368  0.00  0.00    +0.000 HD
ENDROOT
BRANCH   1   8
ATOM      5  C   UNL     1       5.919   3.477  12.578  0.00  0.00    +0.000 A 
ATOM      6  C   UNL     1       7.051   4.284  12.454  0.00  0.00    +0.000 A 
ATOM      7  C   UNL     1       7.577   4.951  13.562  0.00  0.00    +0.000 A 
ATOM      8  C   UNL     1       6.986   4.835  14.821  0.00  0.00    +0.000 A 
ATOM      9  C   UNL     1       5.866   4.004  14.954  0.00  0.00    +0.000 A 
ATOM     10  C   UNL     1       5.340   3.326  13.843  0.00  0.00    +0.000 A 
BRANCH   5  12
ATOM     11  C   UNL     1       5.944   1.400  11.157  0.00  0.00    +0.000 C 
ATOM     12  C   UNL     1       5.356   2.787  11.363  0.00  0.00    +0.000 C 
ENDBRANCH   5  12
ENDBRANCH   1   8
BRANCH   2  13
ATOM     13  C   UNL     1       7.509   7.013  17.890  0.00  0.00    +0.000 C 
BRANCH  13  14
ATOM     14  C   UNL     1       7.577   5.886  18.917  0.00  0.00    +0.000 C 
BRANCH  14  15
ATOM     15  C   UNL     1       6.246   5.241  19.089  0.00  0.00    +0.000 A 
ATOM     16  N   UNL     1       5.157   5.828  19.537  0.00  0.00    +0.000 NA
ATOM     17  C   UNL     1       4.201   4.846  19.581  0.00  0.00    +0.000 A 
ATOM     18  C   UNL     1       2.855   4.928  19.967  0.00  0.00    +0.000 A 
ATOM     19  C   UNL     1       2.085   3.760  19.959  0.00  0.00    +0.000 A 
ATOM     20  C   UNL     1       2.643   2.539  19.572  0.00  0.00    +0.000 A 
ATOM     21  C   UNL     1       3.980   2.442  19.166  0.00  0.00    +0.000 A 
ATOM     22  C   UNL     1       4.724   3.623  19.181  0.00  0.00    +0.000 A 
ATOM     23  N   UNL     1       6.026   3.904  18.853  0.00  0.00    +0.000 N 
ATOM     24  H   UNL     1       6.711   3.238  18.522  0.00  0.00    +0.000 HD
ENDBRANCH  14  15
ENDBRANCH  13  14
ENDBRANCH   2  13
TORSDOF 5
ENDMDL
MODEL 6
REMARK VINA RESULT:      -8.1      1.245      2.020
REMARK  Name = 
REMARK  6 active torsions:
REMARK  status: ('A' for Active; 'I' for Inactive)
REMARK    1  A    between atoms: C_1  and  C_2
REMARK    2  A    between atoms: C_2  and  C_3
REMARK    3  A    between atoms: C_6  and  N_7
REMARK    4  A    between atoms: C_8  and  C_10
REMARK    5  A    between atoms: C_10  and  C_11
REMARK    6  A    between atoms: C_11  and  C_12
REMARK                            x       y       z     vdW  Elec       q    Type
REMARK                         _______ _______ _______ _____ _____    ______ ____
ROOT
ATOM      1  N   UNL     1       6.769   5.647  15.875  0.00  0.00    +0.000 N 
ATOM      2  C   UNL     1       7.480   5.253  16.996  0.00  0.00    +0.000 C 
ATOM      3  O   UNL     1       8.098   4.202  17.143  0.00  0.00    +0.000 OA
ATOM      4  H   UNL     1       6.382   6.587  15.883  0.00  0.00    +0.000 HD
ENDROOT
BRANCH   1   8
ATOM      5  C   UNL     1       6.162   3.463  12.285  0.00  0.00    +0.000 A 
ATOM      6  C   UNL     1       7.270   4.302  12.415  0.00  0.00    +0.000 A 
ATOM      7  C   UNL     1       7.493   5.015  13.595  0.00  0.00    +0.000 A 
ATOM      8  C   UNL     1       6.614   4.913  14.675  0.00  0.00    +0.000 A 
ATOM      9  C   UNL     1       5.516   4.053  14.558  0.00  0.00    +0.000 A 
ATOM     10  C   UNL     1       5.294   3.329  13.375  0.00  0.00    +0.000 A 
BRANCH   5  12
ATOM     11  C   UNL     1       6.076   1.218  11.152  0.00  0.00    +0.000 C 
ATOM     12  C   UNL     1       5.930   2.724  10.994  0.00  0.00    +0.000 C 
ENDBRANCH   5  12
ENDBRANCH   1   8
BRANCH   2  13
ATOM     13  C   UNL     1       7.537   6.295  18.091  0.00  0.00    +0.000 C 
BRANCH  13  14
ATOM     14  C   UNL     1       6.979   5.715  19.388  0.00  0.00    +0.000 C 
BRANCH  14  15
ATOM     15  C   UNL     1       5.645   5.095  19.162  0.00  0.00    +0.000 A 
ATOM     16  N   UNL     1       5.348   3.824  19.327  0.00  0.00    +0.000 NA
ATOM     17  C   UNL     1       4.035   3.701  18.949  0.00  0.00    +0.000 A 
ATOM     18  C   UNL     1       3.211   2.566  18.943  0.00  0.00    +0.000 A 
ATOM     19  C   UNL     1       1.900   2.695  18.471  0.00  0.00    +0.000 A 
ATOM     20  C   UNL     1       1.420   3.927  18.019  0.00  0.00    +0.000 A 
ATOM     21  C   UNL     1       2.223   5.074  18.035  0.00  0.00    +0.000 A 
ATOM     22  C   UNL     1       3.526   4.918  18.513  0.00  0.00    +0.000 A 
ATOM     23  N   UNL     1       4.566   5.797  18.677  0.00  0.00    +0.000 N 
ATOM     24  H   UNL     1       4.550   6.783  18.453  0.00  0.00    +0.000 HD
ENDBRANCH  14  15
ENDBRANCH  13  14
ENDBRANCH   2  13
TORSDOF 5
ENDMDL
MODEL 7
REMARK VINA RESULT:      -8.1      1.263      1.801
REMARK  Name = 
REMARK  6 active torsions:
REMARK  status: ('A' for Active; 'I' for Inactive)
REMARK    1  A    between atoms: C_1  and  C_2
REMARK    2  A    between atoms: C_2  and  C_3
REMARK    3  A    between atoms: C_6  and  N_7
REMARK    4  A    between atoms: C_8  and  C_10
REMARK    5  A    between atoms: C_10  and  C_11
REMARK    6  A    between atoms: C_11  and  C_12
REMARK                            x       y       z     vdW  Elec       q    Type
REMARK                         _______ _______ _______ _____ _____    ______ ____
ROOT
ATOM      1  N   UNL     1       6.612   5.631  15.966  0.00  0.00    +0.000 N 
ATOM      2  C   UNL     1       7.434   5.252  17.014  0.00  0.00    +0.000 C 
ATOM      3  O   UNL     1       8.101   4.223  17.092  0.00  0.00    +0.000 OA
ATOM      4  H   UNL     1       6.193   6.556  16.023  0.00  0.00    +0.000 HD
ENDROOT
BRANCH   1   8
ATOM      5  C   UNL     1       6.043   3.413  12.392  0.00  0.00    +0.000 A 
ATOM      6  C   UNL     1       5.036   3.452  13.359  0.00  0.00    +0.000 A 
ATOM      7  C   UNL     1       5.202   4.191  14.533  0.00  0.00    +0.000 A 
ATOM      8  C   UNL     1       6.376   4.905  14.775  0.00  0.00    +0.000 A 
ATOM      9  C   UNL     1       7.376   4.890  13.796  0.00  0.00    +0.000 A 
ATOM     10  C   UNL     1       7.209   4.155  12.610  0.00  0.00    +0.000 A 
BRANCH   5  12
ATOM     11  C   UNL     1       6.950   1.559  10.954  0.00  0.00    +0.000 C 
ATOM     12  C   UNL     1       5.850   2.591  11.145  0.00  0.00    +0.000 C 
ENDBRANCH   5  12
ENDBRANCH   1   8
BRANCH   2  13
ATOM     13  C   UNL     1       7.551   6.284  18.114  0.00  0.00    +0.000 C 
BRANCH  13  14
ATOM     14  C   UNL     1       6.965   5.729  19.410  0.00  0.00    +0.000 C 
BRANCH  14  15
ATOM     15  C   UNL     1       5.637   5.103  19.167  0.00  0.00    +0.000 A 
ATOM     16  N   UNL     1       5.363   3.819  19.253  0.00  0.00    +0.000 NA
ATOM     17  C   UNL     1       4.046   3.698  18.891  0.00  0.00    +0.000 A 
ATOM     18  C   UNL     1       3.241   2.552  18.825  0.00  0.00    +0.000 A 
ATOM     19  C   UNL     1       1.919   2.688  18.384  0.00  0.00    +0.000 A 
ATOM     20  C   UNL     1       1.412   3.938  18.022  0.00  0.00    +0.000 A 
ATOM     21  C   UNL     1       2.197   5.096  18.099  0.00  0.00    +0.000 A 
ATOM     22  C   UNL     1       3.509   4.932  18.544  0.00  0.00    +0.000 A 
ATOM     23  N   UNL     1       4.538   5.816  18.747  0.00  0.00    +0.000 N 
ATOM     24  H   UNL     1       4.503   6.813  18.588  0.00  0.00    +0.000 HD
ENDBRANCH  14  15
ENDBRANCH  13  14
ENDBRANCH   2  13
TORSDOF 5
ENDMDL
MODEL 8
REMARK VINA RESULT:      -8.1      0.474      1.405
REMARK  Name = 
REMARK  6 active torsions:
REMARK  status: ('A' for Active; 'I' for Inactive)
REMARK    1  A    between atoms: C_1  and  C_2
REMARK    2  A    between atoms: C_2  and  C_3
REMARK    3  A    between atoms: C_6  and  N_7
REMARK    4  A    between atoms: C_8  and  C_10
REMARK    5  A    between atoms: C_10  and  C_11
REMARK    6  A    between atoms: C_11  and  C_12
REMARK                            x       y       z     vdW  Elec       q    Type
REMARK                         _______ _______ _______ _____ _____    ______ ____
ROOT
ATOM      1  N   UNL     1       7.439   5.562  15.998  0.00  0.00    +0.000 N 
ATOM      2  C   UNL     1       6.856   6.594  16.712  0.00  0.00    +0.000 C 
ATOM      3  O   UNL     1       5.757   7.104  16.505  0.00  0.00    +0.000 OA
ATOM      4  H   UNL     1       8.321   5.199  16.351  0.00  0.00    +0.000 HD
ENDROOT
BRANCH   1   8
ATOM      5  C   UNL     1       5.906   3.511  12.612  0.00  0.00    +0.000 A 
ATOM      6  C   UNL     1       5.212   3.479  13.822  0.00  0.00    +0.000 A 
ATOM      7  C   UNL     1       5.695   4.161  14.941  0.00  0.00    +0.000 A 
ATOM      8  C   UNL     1       6.884   4.890  14.883  0.00  0.00    +0.000 A 
ATOM      9  C   UNL     1       7.568   4.947  13.663  0.00  0.00    +0.000 A 
ATOM     10  C   UNL     1       7.080   4.268  12.534  0.00  0.00    +0.000 A 
BRANCH   5  12
ATOM     11  C   UNL     1       6.123   1.443  11.195  0.00  0.00    +0.000 C 
ATOM     12  C   UNL     1       5.377   2.747  11.426  0.00  0.00    +0.000 C 
ENDBRANCH   5  12
ENDBRANCH   1   8
BRANCH   2  13
ATOM     13  C   UNL     1       7.658   7.048  17.912  0.00  0.00    +0.000 C 
BRANCH  13  14
ATOM     14  C   UNL     1       7.660   5.956  18.978  0.00  0.00    +0.000 C 
BRANCH  14  15
ATOM     15  C   UNL     1       6.336   5.279  19.047  0.00  0.00    +0.000 A 
ATOM     16  N   UNL     1       6.086   4.036  18.694  0.00  0.00    +0.000 NA
ATOM     17  C   UNL     1       4.736   3.867  18.871  0.00  0.00    +0.000 A 
ATOM     18  C   UNL     1       3.945   2.729  18.661  0.00  0.00    +0.000 A 
ATOM     19  C   UNL     1       2.566   2.823  18.883  0.00  0.00    +0.000 A 
ATOM     20  C   UNL     1       1.991   4.024  19.308  0.00  0.00    +0.000 A 
ATOM     21  C   UNL     1       2.769   5.165  19.540  0.00  0.00    +0.000 A 
ATOM     22  C   UNL     1       4.141   5.043  19.313  0.00  0.00    +0.000 A 
ATOM     23  N   UNL     1       5.185   5.924  19.437  0.00  0.00    +0.000 N 
ATOM     24  H   UNL     1       5.116   6.886  19.736  0.00  0.00    +0.000 HD
ENDBRANCH  14  15
ENDBRANCH  13  14
ENDBRANCH   2  13
TORSDOF 5
ENDMDL
MODEL 9
REMARK VINA RESULT:      -8.0      3.150      6.795
REMARK  Name = 
REMARK  6 active torsions:
REMARK  status: ('A' for Active; 'I' for Inactive)
REMARK    1  A    between atoms: C_1  and  C_2
REMARK    2  A    between atoms: C_2  and  C_3
REMARK    3  A    between atoms: C_6  and  N_7
REMARK    4  A    between atoms: C_8  and  C_10
REMARK    5  A    between atoms: C_10  and  C_11
REMARK    6  A    between atoms: C_11  and  C_12
REMARK                            x       y       z     vdW  Elec       q    Type
REMARK                         _______ _______ _______ _____ _____    ______ ____
ROOT
ATOM      1  N   UNL     1       2.720   5.431  20.519  0.00  0.00    +0.000 N 
ATOM      2  C   UNL     1       2.041   4.229  20.420  0.00  0.00    +0.000 C 
ATOM      3  O   UNL     1       0.941   4.046  19.903  0.00  0.00    +0.000 OA
ATOM      4  H   UNL     1       3.661   5.397  20.904  0.00  0.00    +0.000 HD
ENDROOT
BRANCH   1   8
ATOM      5  C   UNL     1       1.373   9.146  18.969  0.00  0.00    +0.000 A 
ATOM      6  C   UNL     1       1.112   8.807  20.297  0.00  0.00    +0.000 A 
ATOM      7  C   UNL     1       1.562   7.596  20.827  0.00  0.00    +0.000 A 
ATOM      8  C   UNL     1       2.280   6.690  20.044  0.00  0.00    +0.000 A 
ATOM      9  C   UNL     1       2.567   7.039  18.720  0.00  0.00    +0.000 A 
ATOM     10  C   UNL     1       2.122   8.261  18.187  0.00  0.00    +0.000 A 
BRANCH   5  12
ATOM     11  C   UNL     1      -0.662  10.477  18.318  0.00  0.00    +0.000 C 
ATOM     12  C   UNL     1       0.855  10.448  18.414  0.00  0.00    +0.000 C 
ENDBRANCH   5  12
ENDBRANCH   1   8
BRANCH   2  13
ATOM     13  C   UNL     1       2.811   3.037  20.943  0.00  0.00    +0.000 C 
BRANCH  13  14
ATOM     14  C   UNL     1       3.395   2.245  19.777  0.00  0.00    +0.000 C 
BRANCH  14  15
ATOM     15  C   UNL     1       4.314   3.091  18.967  0.00  0.00    +0.000 A 
ATOM     16  N   UNL     1       5.246   3.890  19.442  0.00  0.00    +0.000 NA
ATOM     17  C   UNL     1       5.797   4.505  18.347  0.00  0.00    +0.000 A 
ATOM     18  C   UNL     1       6.840   5.439  18.280  0.00  0.00    +0.000 A 
ATOM     19  C   UNL     1       7.199   5.952  17.028  0.00  0.00    +0.000 A 
ATOM     20  C   UNL     1       6.534   5.541  15.870  0.00  0.00    +0.000 A 
ATOM     21  C   UNL     1       5.502   4.595  15.917  0.00  0.00    +0.000 A 
ATOM     22  C   UNL     1       5.167   4.098  17.177  0.00  0.00    +0.000 A 
ATOM     23  N   UNL     1       4.237   3.181  17.596  0.00  0.00    +0.000 N 
ATOM     24  H   UNL     1       3.590   2.679  17.004  0.00  0.00    +0.000 HD
ENDBRANCH  14  15
ENDBRANCH  13  14
ENDBRANCH   2  13
TORSDOF 5
ENDMDL
