MODEL 1
REMARK VINA RESULT:      -8.1      0.000      0.000
REMARK  Name = 
REMARK  14 active torsions:
REMARK  status: ('A' for Active; 'I' for Inactive)
REMARK    1  A    between atoms: C_1  and  C_2
REMARK    2  A    between atoms: C_2  and  C_3
REMARK    3  A    between atoms: C_4  and  C_5
REMARK    4  A    between atoms: C_5  and  C_6
REMARK    5  A    between atoms: C_6  and  C_7
REMARK    6  A    between atoms: C_7  and  C_8
REMARK    7  A    between atoms: C_9  and  C_10
REMARK    8  A    between atoms: C_10  and  C_11
REMARK    9  A    between atoms: C_11  and  C_12
REMARK   10  A    between atoms: C_12  and  C_13
REMARK   11  A    between atoms: C_14  and  C_15
REMARK   12  A    between atoms: C_15  and  C_16
REMARK   13  A    between atoms: C_16  and  C_17
REMARK   14  A    between atoms: C_17  and  C_18
REMARK                            x       y       z     vdW  Elec       q    Type
REMARK                         _______ _______ _______ _____ _____    ______ ____
ROOT
ATOM      1  C   UNL     1       7.627   7.104  17.738  0.00  0.00    +0.000 C 
ATOM      2  C   UNL     1       7.981   6.399  19.020  0.00  0.00    +0.000 C 
ATOM      3  C   UNL     1       7.882   8.420  17.592  0.00  0.00    +0.000 C 
ENDROOT
BRANCH   1   4
ATOM      4  C   UNL     1       7.005   6.344  16.577  0.00  0.00    +0.000 C 
BRANCH   4   5
ATOM      5  C   UNL     1       6.794   4.850  16.824  0.00  0.00    +0.000 C 
BRANCH   5   8
ATOM      6  C   UNL     1       4.566   3.961  17.601  0.00  0.00    +0.000 C 
ATOM      7  C   UNL     1       5.003   4.024  19.044  0.00  0.00    +0.000 C 
ATOM      8  C   UNL     1       5.380   4.396  16.617  0.00  0.00    +0.000 C 
BRANCH   6   9
ATOM      9  C   UNL     1       3.201   3.419  17.224  0.00  0.00    +0.000 C 
BRANCH   9  10
ATOM     10  C   UNL     1       2.016   4.043  17.962  0.00  0.00    +0.000 C 
BRANCH  10  14
ATOM     11  C   UNL     1       1.217   2.797  21.556  0.00  0.00    +0.000 C 
ATOM     12  C   UNL     1       1.576   3.716  20.425  0.00  0.00    +0.000 C 
ATOM     13  C   UNL     1       1.904   5.144  20.765  0.00  0.00    +0.000 C 
ATOM     14  C   UNL     1       1.588   3.252  19.161  0.00  0.00    +0.000 C 
ENDBRANCH  10  14
ENDBRANCH   9  10
ENDBRANCH   6   9
ENDBRANCH   5   8
ENDBRANCH   4   5
ENDBRANCH   1   4
BRANCH   3  15
ATOM     15  C   UNL     1       8.552   9.259  18.648  0.00  0.00    +0.000 C 
BRANCH  15  16
ATOM     16  C   UNL     1       9.610  10.208  18.088  0.00  0.00    +0.000 C 
BRANCH  16  17
ATOM     17  C   UNL     1       9.586  11.614  18.748  0.00  0.00    +0.000 C 
ATOM     18  C   UNL     1       8.591  12.470  17.939  0.00  0.00    +0.000 C 
ATOM     19  C   UNL     1      11.003  12.213  18.783  0.00  0.00    +0.000 C 
ATOM     20  C   UNL     1      10.997  13.595  19.411  0.00  0.00    +0.000 C 
ATOM     21  C   UNL     1      10.155  13.591  20.652  0.00  0.00    +0.000 A 
ATOM     22  C   UNL     1      10.231  14.674  21.538  0.00  0.00    +0.000 A 
ATOM     23  C   UNL     1       9.454  14.693  22.696  0.00  0.00    +0.000 A 
ATOM     24  C   UNL     1       8.603  13.627  22.981  0.00  0.00    +0.000 A 
ATOM     25  C   UNL     1       8.514  12.551  22.099  0.00  0.00    +0.000 A 
ATOM     26  C   UNL     1       9.268  12.541  20.925  0.00  0.00    +0.000 A 
ATOM     27  O   UNL     1       9.080  11.466  20.092  0.00  0.00    +0.000 OA
ENDBRANCH  16  17
ENDBRANCH  15  16
ENDBRANCH   3  15
TORSDOF 9
ENDMDL
MODEL 2
REMARK VINA RESULT:      -8.0      5.840      8.690
REMARK  Name = 
REMARK  14 active torsions:
REMARK  status: ('A' for Active; 'I' for Inactive)
REMARK    1  A    between atoms: C_1  and  C_2
REMARK    2  A    between atoms: C_2  and  C_3
REMARK    3  A    between atoms: C_4  and  C_5
REMARK    4  A    between atoms: C_5  and  C_6
REMARK    5  A    between atoms: C_6  and  C_7
REMARK    6  A    between atoms: C_7  and  C_8
REMARK    7  A    between atoms: C_9  and  C_10
REMARK    8  A    between atoms: C_10  and  C_11
REMARK    9  A    between atoms: C_11  and  C_12
REMARK   10  A    between atoms: C_12  and  C_13
REMARK   11  A    between atoms: C_14  and  C_15
REMARK   12  A    between atoms: C_15  and  C_16
REMARK   13  A    between atoms: C_16  and  C_17
REMARK   14  A    between atoms: C_17  and  C_18
REMARK                            x       y       z     vdW  Elec       q    Type
REMARK                         _______ _______ _______ _____ _____    ______ ____
ROOT
ATOM      1  C   UNL     1       2.293   4.473  18.712  0.00  0.00    +0.000 C 
ATOM      2  C   UNL     1       1.252   4.353  19.793  0.00  0.00    +0.000 C 
ATOM      3  C   UNL     1       2.738   5.687  18.329  0.00  0.00    +0.000 C 
ENDROOT
BRANCH   1   4
ATOM      4  C   UNL     1       2.883   3.235  18.056  0.00  0.00    +0.000 C 
BRANCH   4   5
ATOM      5  C   UNL     1       4.390   3.294  17.806  0.00  0.00    +0.000 C 
BRANCH   5   8
ATOM      6  C   UNL     1       5.900   4.354  16.087  0.00  0.00    +0.000 C 
ATOM      7  C   UNL     1       6.980   4.576  17.118  0.00  0.00    +0.000 C 
ATOM      8  C   UNL     1       4.756   3.719  16.415  0.00  0.00    +0.000 C 
BRANCH   6   9
ATOM      9  C   UNL     1       6.078   4.831  14.659  0.00  0.00    +0.000 C 
BRANCH   9  10
ATOM     10  C   UNL     1       6.126   3.731  13.597  0.00  0.00    +0.000 C 
BRANCH  10  14
ATOM     11  C   UNL     1       3.687   3.209  10.616  0.00  0.00    +0.000 C 
ATOM     12  C   UNL     1       4.819   2.979  11.574  0.00  0.00    +0.000 C 
ATOM     13  C   UNL     1       5.727   1.808  11.310  0.00  0.00    +0.000 C 
ATOM     14  C   UNL     1       4.987   3.802  12.626  0.00  0.00    +0.000 C 
ENDBRANCH  10  14
ENDBRANCH   9  10
ENDBRANCH   6   9
ENDBRANCH   5   8
ENDBRANCH   4   5
ENDBRANCH   1   4
BRANCH   3  15
ATOM     15  C   UNL     1       2.274   6.978  18.951  0.00  0.00    +0.000 C 
BRANCH  15  16
ATOM     16  C   UNL     1       2.286   8.158  17.981  0.00  0.00    +0.000 C 
BRANCH  16  17
ATOM     17  C   UNL     1       1.414   9.353  18.455  0.00  0.00    +0.000 C 
ATOM     18  C   UNL     1       2.219  10.636  18.167  0.00  0.00    +0.000 C 
ATOM     19  C   UNL     1       1.051   9.194  19.942  0.00  0.00    +0.000 C 
ATOM     20  C   UNL     1       0.210  10.360  20.429  0.00  0.00    +0.000 C 
ATOM     21  C   UNL     1      -0.860  10.675  19.426  0.00  0.00    +0.000 A 
ATOM     22  C   UNL     1      -1.914  11.524  19.790  0.00  0.00    +0.000 A 
ATOM     23  C   UNL     1      -2.917  11.833  18.872  0.00  0.00    +0.000 A 
ATOM     24  C   UNL     1      -2.880  11.290  17.589  0.00  0.00    +0.000 A 
ATOM     25  C   UNL     1      -1.828  10.454  17.217  0.00  0.00    +0.000 A 
ATOM     26  C   UNL     1      -0.807  10.165  18.122  0.00  0.00    +0.000 A 
ATOM     27  O   UNL     1       0.213   9.373  17.655  0.00  0.00    +0.000 OA
ENDBRANCH  16  17
ENDBRANCH  15  16
ENDBRANCH   3  15
TORSDOF 9
ENDMDL
MODEL 3
REMARK VINA RESULT:      -7.6      0.834      1.363
REMARK  Name = 
REMARK  14 active torsions:
REMARK  status: ('A' for Active; 'I' for Inactive)
REMARK    1  A    between atoms: C_1  and  C_2
REMARK    2  A    between atoms: C_2  and  C_3
REMARK    3  A    between atoms: C_4  and  C_5
REMARK    4  A    between atoms: C_5  and  C_6
REMARK    5  A    between atoms: C_6  and  C_7
REMARK    6  A    between atoms: C_7  and  C_8
REMARK    7  A    between atoms: C_9  and  C_10
REMARK    8  A    between atoms: C_10  and  C_11
REMARK    9  A    between atoms: C_11  and  C_12
REMARK   10  A    between atoms: C_12  and  C_13
REMARK   11  A    between atoms: C_14  and  C_15
REMARK   12  A    between atoms: C_15  and  C_16
REMARK   13  A    between atoms: C_16  and  C_17
REMARK   14  A    between atoms: C_17  and  C_18
REMARK                            x       y       z     vdW  Elec       q    Type
REMARK                         _______ _______ _______ _____ _____    ______ ____
ROOT
ATOM      1  C   UNL     1       7.432   7.327  17.740  0.00  0.00    +0.000 C 
ATOM      2  C   UNL     1       8.044   6.474  18.818  0.00  0.00    +0.000 C 
ATOM      3  C   UNL     1       7.710   8.644  17.674  0.00  0.00    +0.000 C 
ENDROOT
BRANCH   1   4
ATOM      4  C   UNL     1       6.515   6.718  16.690  0.00  0.00    +0.000 C 
BRANCH   4   5
ATOM      5  C   UNL     1       6.563   5.192  16.600  0.00  0.00    +0.000 C 
BRANCH   5   8
ATOM      6  C   UNL     1       4.602   3.959  17.595  0.00  0.00    +0.000 C 
ATOM      7  C   UNL     1       5.213   4.026  18.974  0.00  0.00    +0.000 C 
ATOM      8  C   UNL     1       5.211   4.546  16.544  0.00  0.00    +0.000 C 
BRANCH   6   9
ATOM      9  C   UNL     1       3.288   3.239  17.360  0.00  0.00    +0.000 C 
BRANCH   9  10
ATOM     10  C   UNL     1       2.033   4.001  17.788  0.00  0.00    +0.000 C 
BRANCH  10  14
ATOM     11  C   UNL     1       2.346   7.703  18.933  0.00  0.00    +0.000 C 
ATOM     12  C   UNL     1       2.216   6.209  18.996  0.00  0.00    +0.000 C 
ATOM     13  C   UNL     1       2.068   5.580  20.355  0.00  0.00    +0.000 C 
ATOM     14  C   UNL     1       2.242   5.484  17.862  0.00  0.00    +0.000 C 
ENDBRANCH  10  14
ENDBRANCH   9  10
ENDBRANCH   6   9
ENDBRANCH   5   8
ENDBRANCH   4   5
ENDBRANCH   1   4
BRANCH   3  15
ATOM     15  C   UNL     1       8.652   9.343  18.619  0.00  0.00    +0.000 C 
BRANCH  15  16
ATOM     16  C   UNL     1       9.604  10.313  17.921  0.00  0.00    +0.000 C 
BRANCH  16  17
ATOM     17  C   UNL     1       9.629  11.724  18.569  0.00  0.00    +0.000 C 
ATOM     18  C   UNL     1       8.660  12.605  17.756  0.00  0.00    +0.000 C 
ATOM     19  C   UNL     1      11.065  12.277  18.593  0.00  0.00    +0.000 C 
ATOM     20  C   UNL     1      11.107  13.663  19.210  0.00  0.00    +0.000 C 
ATOM     21  C   UNL     1      10.270  13.698  20.454  0.00  0.00    +0.000 A 
ATOM     22  C   UNL     1      10.385  14.785  21.330  0.00  0.00    +0.000 A 
ATOM     23  C   UNL     1       9.613  14.839  22.490  0.00  0.00    +0.000 A 
ATOM     24  C   UNL     1       8.729  13.804  22.787  0.00  0.00    +0.000 A 
ATOM     25  C   UNL     1       8.601  12.725  21.915  0.00  0.00    +0.000 A 
ATOM     26  C   UNL     1       9.350  12.680  20.738  0.00  0.00    +0.000 A 
ATOM     27  O   UNL     1       9.124  11.604  19.915  0.00  0.00    +0.000 OA
ENDBRANCH  16  17
ENDBRANCH  15  16
ENDBRANCH   3  15
TORSDOF 9
ENDMDL
MODEL 4
REMARK VINA RESULT:      -7.6      1.615      2.334
REMARK  Name = 
REMARK  14 active torsions:
REMARK  status: ('A' for Active; 'I' for Inactive)
REMARK    1  A    between atoms: C_1  and  C_2
REMARK    2  A    between atoms: C_2  and  C_3
REMARK    3  A    between atoms: C_4  and  C_5
REMARK    4  A    between atoms: C_5  and  C_6
REMARK    5  A    between atoms: C_6  and  C_7
REMARK    6  A    between atoms: C_7  and  C_8
REMARK    7  A    between atoms: C_9  and  C_10
REMARK    8  A    between atoms: C_10  and  C_11
REMARK    9  A    between atoms: C_11  and  C_12
REMARK   10  A    between atoms: C_12  and  C_13
REMARK   11  A    between atoms: C_14  and  C_15
REMARK   12  A    between atoms: C_15  and  C_16
REMARK   13  A    between atoms: C_16  and  C_17
REMARK   14  A    between atoms: C_17  and  C_18
REMARK                            x       y       z     vdW  Elec       q    Type
REMARK                         _______ _______ _______ _____ _____    ______ ____
ROOT
ATOM      1  C   UNL     1       7.471   7.069  17.757  0.00  0.00    +0.000 C 
ATOM      2  C   UNL     1       8.039   6.331  18.939  0.00  0.00    +0.000 C 
ATOM      3  C   UNL     1       7.717   8.385  17.594  0.00  0.00    +0.000 C 
ENDROOT
BRANCH   1   4
ATOM      4  C   UNL     1       6.638   6.343  16.712  0.00  0.00    +0.000 C 
BRANCH   4   5
ATOM      5  C   UNL     1       5.178   6.789  16.629  0.00  0.00    +0.000 C 
BRANCH   5   8
ATOM      6  C   UNL     1       3.262   6.949  18.260  0.00  0.00    +0.000 C 
ATOM      7  C   UNL     1       2.762   8.215  17.605  0.00  0.00    +0.000 C 
ATOM      8  C   UNL     1       4.329   6.292  17.760  0.00  0.00    +0.000 C 
BRANCH   6   9
ATOM      9  C   UNL     1       2.572   6.383  19.486  0.00  0.00    +0.000 C 
BRANCH   9  10
ATOM     10  C   UNL     1       3.181   5.098  20.050  0.00  0.00    +0.000 C 
BRANCH  10  14
ATOM     11  C   UNL     1       1.556   1.857  18.649  0.00  0.00    +0.000 C 
ATOM     12  C   UNL     1       1.750   3.107  19.457  0.00  0.00    +0.000 C 
ATOM     13  C   UNL     1       0.697   3.445  20.478  0.00  0.00    +0.000 C 
ATOM     14  C   UNL     1       2.831   3.881  19.249  0.00  0.00    +0.000 C 
ENDBRANCH  10  14
ENDBRANCH   9  10
ENDBRANCH   6   9
ENDBRANCH   5   8
ENDBRANCH   4   5
ENDBRANCH   1   4
BRANCH   3  15
ATOM     15  C   UNL     1       8.579   9.192  18.529  0.00  0.00    +0.000 C 
BRANCH  15  16
ATOM     16  C   UNL     1       9.113  10.479  17.903  0.00  0.00    +0.000 C 
BRANCH  16  17
ATOM     17  C   UNL     1       9.687  11.478  18.946  0.00  0.00    +0.000 C 
ATOM     18  C   UNL     1      11.204  11.568  18.688  0.00  0.00    +0.000 C 
ATOM     19  C   UNL     1       9.346  11.016  20.373  0.00  0.00    +0.000 C 
ATOM     20  C   UNL     1       9.912  11.971  21.407  0.00  0.00    +0.000 C 
ATOM     21  C   UNL     1       9.647  13.389  20.996  0.00  0.00    +0.000 A 
ATOM     22  C   UNL     1       9.832  14.421  21.926  0.00  0.00    +0.000 A 
ATOM     23  C   UNL     1       9.595  15.746  21.563  0.00  0.00    +0.000 A 
ATOM     24  C   UNL     1       9.163  16.049  20.273  0.00  0.00    +0.000 A 
ATOM     25  C   UNL     1       8.988  15.029  19.339  0.00  0.00    +0.000 A 
ATOM     26  C   UNL     1       9.251  13.704  19.689  0.00  0.00    +0.000 A 
ATOM     27  O   UNL     1       9.099  12.771  18.693  0.00  0.00    +0.000 OA
ENDBRANCH  16  17
ENDBRANCH  15  16
ENDBRANCH   3  15
TORSDOF 9
ENDMDL
MODEL 5
REMARK VINA RESULT:      -7.6      2.185      9.948
REMARK  Name = 
REMARK  14 active torsions:
REMARK  status: ('A' for Active; 'I' for Inactive)
REMARK    1  A    between atoms: C_1  and  C_2
REMARK    2  A    between atoms: C_2  and  C_3
REMARK    3  A    between atoms: C_4  and  C_5
REMARK    4  A    between atoms: C_5  and  C_6
REMARK    5  A    between atoms: C_6  and  C_7
REMARK    6  A    between atoms: C_7  and  C_8
REMARK    7  A    between atoms: C_9  and  C_10
REMARK    8  A    between atoms: C_10  and  C_11
REMARK    9  A    between atoms: C_11  and  C_12
REMARK   10  A    between atoms: C_12  and  C_13
REMARK   11  A    between atoms: C_14  and  C_15
REMARK   12  A    between atoms: C_15  and  C_16
REMARK   13  A    between atoms: C_16  and  C_17
REMARK   14  A    between atoms: C_17  and  C_18
REMARK                            x       y       z     vdW  Elec       q    Type
REMARK                         _______ _______ _______ _____ _____    ______ ____
ROOT
ATOM      1  C   UNL     1       7.578   7.038  17.706  0.00  0.00    +0.000 C 
ATOM      2  C   UNL     1       8.001   6.315  18.956  0.00  0.00    +0.000 C 
ATOM      3  C   UNL     1       7.150   6.346  16.631  0.00  0.00    +0.000 C 
ENDROOT
BRANCH   1   4
ATOM      4  C   UNL     1       7.594   8.557  17.641  0.00  0.00    +0.000 C 
BRANCH   4   5
ATOM      5  C   UNL     1       8.923   9.204  18.034  0.00  0.00    +0.000 C 
BRANCH   5   8
ATOM      6  C   UNL     1       9.561  11.497  18.867  0.00  0.00    +0.000 C 
ATOM      7  C   UNL     1      10.608  11.637  17.788  0.00  0.00    +0.000 C 
ATOM      8  C   UNL     1       8.772  10.405  18.920  0.00  0.00    +0.000 C 
BRANCH   6   9
ATOM      9  C   UNL     1       9.366  12.582  19.908  0.00  0.00    +0.000 C 
BRANCH   9  10
ATOM     10  C   UNL     1       9.522  12.136  21.363  0.00  0.00    +0.000 C 
BRANCH  10  14
ATOM     11  C   UNL     1       8.066  14.146  24.354  0.00  0.00    +0.000 C 
ATOM     12  C   UNL     1       8.472  12.985  23.494  0.00  0.00    +0.000 C 
ATOM     13  C   UNL     1       8.108  11.604  23.971  0.00  0.00    +0.000 C 
ATOM     14  C   UNL     1       9.143  13.200  22.348  0.00  0.00    +0.000 C 
ENDBRANCH  10  14
ENDBRANCH   9  10
ENDBRANCH   6   9
ENDBRANCH   5   8
ENDBRANCH   4   5
ENDBRANCH   1   4
BRANCH   3  15
ATOM     15  C   UNL     1       7.031   4.845  16.602  0.00  0.00    +0.000 C 
BRANCH  15  16
ATOM     16  C   UNL     1       5.618   4.353  16.289  0.00  0.00    +0.000 C 
BRANCH  16  17
ATOM     17  C   UNL     1       4.612   4.594  17.448  0.00  0.00    +0.000 C 
ATOM     18  C   UNL     1       4.040   6.013  17.254  0.00  0.00    +0.000 C 
ATOM     19  C   UNL     1       5.307   4.408  18.808  0.00  0.00    +0.000 C 
ATOM     20  C   UNL     1       4.343   4.654  19.954  0.00  0.00    +0.000 C 
ATOM     21  C   UNL     1       3.035   3.971  19.681  0.00  0.00    +0.000 A 
ATOM     22  C   UNL     1       2.103   3.831  20.717  0.00  0.00    +0.000 A 
ATOM     23  C   UNL     1       0.880   3.203  20.484  0.00  0.00    +0.000 A 
ATOM     24  C   UNL     1       0.585   2.702  19.218  0.00  0.00    +0.000 A 
ATOM     25  C   UNL     1       1.503   2.847  18.179  0.00  0.00    +0.000 A 
ATOM     26  C   UNL     1       2.716   3.501  18.400  0.00  0.00    +0.000 A 
ATOM     27  O   UNL     1       3.537   3.641  17.309  0.00  0.00    +0.000 OA
ENDBRANCH  16  17
ENDBRANCH  15  16
ENDBRANCH   3  15
TORSDOF 9
ENDMDL
MODEL 6
REMARK VINA RESULT:      -7.4      2.360     10.887
REMARK  Name = 
REMARK  14 active torsions:
REMARK  status: ('A' for Active; 'I' for Inactive)
REMARK    1  A    between atoms: C_1  and  C_2
REMARK    2  A    between atoms: C_2  and  C_3
REMARK    3  A    between atoms: C_4  and  C_5
REMARK    4  A    between atoms: C_5  and  C_6
REMARK    5  A    between atoms: C_6  and  C_7
REMARK    6  A    between atoms: C_7  and  C_8
REMARK    7  A    between atoms: C_9  and  C_10
REMARK    8  A    between atoms: C_10  and  C_11
REMARK    9  A    between atoms: C_11  and  C_12
REMARK   10  A    between atoms: C_12  and  C_13
REMARK   11  A    between atoms: C_14  and  C_15
REMARK   12  A    between atoms: C_15  and  C_16
REMARK   13  A    between atoms: C_16  and  C_17
REMARK   14  A    between atoms: C_17  and  C_18
REMARK                            x       y       z     vdW  Elec       q    Type
REMARK                         _______ _______ _______ _____ _____    ______ ____
ROOT
ATOM      1  C   UNL     1       7.841   7.868  17.839  0.00  0.00    +0.000 C 
ATOM      2  C   UNL     1       8.286   6.920  18.920  0.00  0.00    +0.000 C 
ATOM      3  C   UNL     1       7.129   7.414  16.787  0.00  0.00    +0.000 C 
ENDROOT
BRANCH   1   4
ATOM      4  C   UNL     1       8.159   9.352  17.924  0.00  0.00    +0.000 C 
BRANCH   4   5
ATOM      5  C   UNL     1       9.202   9.728  18.978  0.00  0.00    +0.000 C 
BRANCH   5   8
ATOM      6  C   UNL     1      10.175  12.051  18.847  0.00  0.00    +0.000 C 
ATOM      7  C   UNL     1      11.217  11.598  17.854  0.00  0.00    +0.000 C 
ATOM      8  C   UNL     1       9.236  11.192  19.298  0.00  0.00    +0.000 C 
BRANCH   6   9
ATOM      9  C   UNL     1      10.151  13.479  19.354  0.00  0.00    +0.000 C 
BRANCH   9  10
ATOM     10  C   UNL     1       9.221  14.432  18.600  0.00  0.00    +0.000 C 
BRANCH  10  14
ATOM     11  C   UNL     1      10.250  18.174  18.815  0.00  0.00    +0.000 C 
ATOM     12  C   UNL     1      10.053  16.790  18.267  0.00  0.00    +0.000 C 
ATOM     13  C   UNL     1      10.598  16.501  16.895  0.00  0.00    +0.000 C 
ATOM     14  C   UNL     1       9.402  15.866  18.997  0.00  0.00    +0.000 C 
ENDBRANCH  10  14
ENDBRANCH   9  10
ENDBRANCH   6   9
ENDBRANCH   5   8
ENDBRANCH   4   5
ENDBRANCH   1   4
BRANCH   3  15
ATOM     15  C   UNL     1       6.702   5.979  16.629  0.00  0.00    +0.000 C 
BRANCH  15  16
ATOM     16  C   UNL     1       5.188   5.803  16.533  0.00  0.00    +0.000 C 
BRANCH  16  17
ATOM     17  C   UNL     1       4.625   4.757  17.535  0.00  0.00    +0.000 C 
ATOM     18  C   UNL     1       5.751   4.454  18.543  0.00  0.00    +0.000 C 
ATOM     19  C   UNL     1       4.139   3.505  16.784  0.00  0.00    +0.000 C 
ATOM     20  C   UNL     1       3.599   2.464  17.748  0.00  0.00    +0.000 C 
ATOM     21  C   UNL     1       2.712   3.119  18.767  0.00  0.00    +0.000 A 
ATOM     22  C   UNL     1       1.892   2.322  19.576  0.00  0.00    +0.000 A 
ATOM     23  C   UNL     1       1.063   2.910  20.532  0.00  0.00    +0.000 A 
ATOM     24  C   UNL     1       1.042   4.295  20.678  0.00  0.00    +0.000 A 
ATOM     25  C   UNL     1       1.864   5.093  19.883  0.00  0.00    +0.000 A 
ATOM     26  C   UNL     1       2.716   4.508  18.946  0.00  0.00    +0.000 A 
ATOM     27  O   UNL     1       3.524   5.366  18.242  0.00  0.00    +0.000 OA
ENDBRANCH  16  17
ENDBRANCH  15  16
ENDBRANCH   3  15
TORSDOF 9
ENDMDL
MODEL 7
REMARK VINA RESULT:      -7.4      5.640      9.294
REMARK  Name = 
REMARK  14 active torsions:
REMARK  status: ('A' for Active; 'I' for Inactive)
REMARK    1  A    between atoms: C_1  and  C_2
REMARK    2  A    between atoms: C_2  and  C_3
REMARK    3  A    between atoms: C_4  and  C_5
REMARK    4  A    between atoms: C_5  and  C_6
REMARK    5  A    between atoms: C_6  and  C_7
REMARK    6  A    between atoms: C_7  and  C_8
REMARK    7  A    between atoms: C_9  and  C_10
REMARK    8  A    between atoms: C_10  and  C_11
REMARK    9  A    between atoms: C_11  and  C_12
REMARK   10  A    between atoms: C_12  and  C_13
REMARK   11  A    between atoms: C_14  and  C_15
REMARK   12  A    between atoms: C_15  and  C_16
REMARK   13  A    between atoms: C_16  and  C_17
REMARK   14  A    between atoms: C_17  and  C_18
REMARK                            x       y       z     vdW  Elec       q    Type
REMARK                         _______ _______ _______ _____ _____    ______ ____
ROOT
ATOM      1  C   UNL     1       2.130   7.364  19.632  0.00  0.00    +0.000 C 
ATOM      2  C   UNL     1       1.605   6.534  20.772  0.00  0.00    +0.000 C 
ATOM      3  C   UNL     1       1.725   8.641  19.477  0.00  0.00    +0.000 C 
ENDROOT
BRANCH   1   4
ATOM      4  C   UNL     1       3.146   6.794  18.655  0.00  0.00    +0.000 C 
BRANCH   4   5
ATOM      5  C   UNL     1       2.732   5.482  17.988  0.00  0.00    +0.000 C 
BRANCH   5   8
ATOM      6  C   UNL     1       4.811   4.181  17.402  0.00  0.00    +0.000 C 
ATOM      7  C   UNL     1       4.966   3.715  18.829  0.00  0.00    +0.000 C 
ATOM      8  C   UNL     1       3.755   4.938  17.036  0.00  0.00    +0.000 C 
BRANCH   6   9
ATOM      9  C   UNL     1       5.830   3.805  16.344  0.00  0.00    +0.000 C 
BRANCH   9  10
ATOM     10  C   UNL     1       7.239   4.361  16.558  0.00  0.00    +0.000 C 
BRANCH  10  14
ATOM     11  C   UNL     1       7.428   8.114  17.552  0.00  0.00    +0.000 C 
ATOM     12  C   UNL     1       7.501   6.619  17.655  0.00  0.00    +0.000 C 
ATOM     13  C   UNL     1       7.827   6.028  19.000  0.00  0.00    +0.000 C 
ATOM     14  C   UNL     1       7.284   5.860  16.565  0.00  0.00    +0.000 C 
ENDBRANCH  10  14
ENDBRANCH   9  10
ENDBRANCH   6   9
ENDBRANCH   5   8
ENDBRANCH   4   5
ENDBRANCH   1   4
BRANCH   3  15
ATOM     15  C   UNL     1       0.773   9.331  20.418  0.00  0.00    +0.000 C 
BRANCH  15  16
ATOM     16  C   UNL     1       0.804  10.855  20.305  0.00  0.00    +0.000 C 
BRANCH  16  17
ATOM     17  C   UNL     1      -0.375  11.435  19.477  0.00  0.00    +0.000 C 
ATOM     18  C   UNL     1       0.156  12.697  18.768  0.00  0.00    +0.000 C 
ATOM     19  C   UNL     1      -1.580  11.721  20.390  0.00  0.00    +0.000 C 
ATOM     20  C   UNL     1      -2.738  12.303  19.601  0.00  0.00    +0.000 C 
ATOM     21  C   UNL     1      -2.930  11.535  18.327  0.00  0.00    +0.000 A 
ATOM     22  C   UNL     1      -4.103  11.717  17.583  0.00  0.00    +0.000 A 
ATOM     23  C   UNL     1      -4.300  11.016  16.394  0.00  0.00    +0.000 A 
ATOM     24  C   UNL     1      -3.330  10.122  15.944  0.00  0.00    +0.000 A 
ATOM     25  C   UNL     1      -2.155   9.943  16.673  0.00  0.00    +0.000 A 
ATOM     26  C   UNL     1      -1.941  10.664  17.849  0.00  0.00    +0.000 A 
ATOM     27  O   UNL     1      -0.736  10.461  18.474  0.00  0.00    +0.000 OA
ENDBRANCH  16  17
ENDBRANCH  15  16
ENDBRANCH   3  15
TORSDOF 9
ENDMDL
MODEL 8
REMARK VINA RESULT:      -7.4      2.206      9.867
REMARK  Name = 
REMARK  14 active torsions:
REMARK  status: ('A' for Active; 'I' for Inactive)
REMARK    1  A    between atoms: C_1  and  C_2
REMARK    2  A    between atoms: C_2  and  C_3
REMARK    3  A    between atoms: C_4  and  C_5
REMARK    4  A    between atoms: C_5  and  C_6
REMARK    5  A    between atoms: C_6  and  C_7
REMARK    6  A    between atoms: C_7  and  C_8
REMARK    7  A    between atoms: C_9  and  C_10
REMARK    8  A    between atoms: C_10  and  C_11
REMARK    9  A    between atoms: C_11  and  C_12
REMARK   10  A    between atoms: C_12  and  C_13
REMARK   11  A    between atoms: C_14  and  C_15
REMARK   12  A    between atoms: C_15  and  C_16
REMARK   13  A    between atoms: C_16  and  C_17
REMARK   14  A    between atoms: C_17  and  C_18
REMARK                            x       y       z     vdW  Elec       q    Type
REMARK                         _______ _______ _______ _____ _____    ______ ____
ROOT
ATOM      1  C   UNL     1       7.313   6.859  17.827  0.00  0.00    +0.000 C 
ATOM      2  C   UNL     1       7.892   6.162  19.029  0.00  0.00    +0.000 C 
ATOM      3  C   UNL     1       6.730   6.147  16.842  0.00  0.00    +0.000 C 
ENDROOT
BRANCH   1   4
ATOM      4  C   UNL     1       7.347   8.375  17.715  0.00  0.00    +0.000 C 
BRANCH   4   5
ATOM      5  C   UNL     1       8.744   8.995  17.773  0.00  0.00    +0.000 C 
BRANCH   5   8
ATOM      6  C   UNL     1       9.800  10.839  19.130  0.00  0.00    +0.000 C 
ATOM      7  C   UNL     1      10.358  11.485  17.885  0.00  0.00    +0.000 C 
ATOM      8  C   UNL     1       9.023   9.739  19.044  0.00  0.00    +0.000 C 
BRANCH   6   9
ATOM      9  C   UNL     1      10.090  11.414  20.502  0.00  0.00    +0.000 C 
BRANCH   9  10
ATOM     10  C   UNL     1       8.869  11.636  21.396  0.00  0.00    +0.000 C 
BRANCH  10  14
ATOM     11  C   UNL     1       8.810  14.796  23.659  0.00  0.00    +0.000 C 
ATOM     12  C   UNL     1       8.419  13.808  22.599  0.00  0.00    +0.000 C 
ATOM     13  C   UNL     1       7.249  14.157  21.720  0.00  0.00    +0.000 C 
ATOM     14  C   UNL     1       9.104  12.657  22.469  0.00  0.00    +0.000 C 
ENDBRANCH  10  14
ENDBRANCH   9  10
ENDBRANCH   6   9
ENDBRANCH   5   8
ENDBRANCH   4   5
ENDBRANCH   1   4
BRANCH   3  15
ATOM     15  C   UNL     1       6.582   4.648  16.875  0.00  0.00    +0.000 C 
BRANCH  15  16
ATOM     16  C   UNL     1       5.306   4.149  16.201  0.00  0.00    +0.000 C 
BRANCH  16  17
ATOM     17  C   UNL     1       4.076   4.130  17.149  0.00  0.00    +0.000 C 
ATOM     18  C   UNL     1       2.950   3.384  16.404  0.00  0.00    +0.000 C 
ATOM     19  C   UNL     1       3.685   5.563  17.547  0.00  0.00    +0.000 C 
ATOM     20  C   UNL     1       2.474   5.566  18.463  0.00  0.00    +0.000 C 
ATOM     21  C   UNL     1       2.626   4.511  19.518  0.00  0.00    +0.000 A 
ATOM     22  C   UNL     1       1.768   4.518  20.626  0.00  0.00    +0.000 A 
ATOM     23  C   UNL     1       1.890   3.544  21.616  0.00  0.00    +0.000 A 
ATOM     24  C   UNL     1       2.872   2.562  21.511  0.00  0.00    +0.000 A 
ATOM     25  C   UNL     1       3.722   2.542  20.406  0.00  0.00    +0.000 A 
ATOM     26  C   UNL     1       3.586   3.497  19.398  0.00  0.00    +0.000 A 
ATOM     27  O   UNL     1       4.432   3.372  18.324  0.00  0.00    +0.000 OA
ENDBRANCH  16  17
ENDBRANCH  15  16
ENDBRANCH   3  15
TORSDOF 9
ENDMDL
MODEL 9
REMARK VINA RESULT:      -7.4      5.753      9.111
REMARK  Name = 
REMARK  14 active torsions:
REMARK  status: ('A' for Active; 'I' for Inactive)
REMARK    1  A    between atoms: C_1  and  C_2
REMARK    2  A    between atoms: C_2  and  C_3
REMARK    3  A    between atoms: C_4  and  C_5
REMARK    4  A    between atoms: C_5  and  C_6
REMARK    5  A    between atoms: C_6  and  C_7
REMARK    6  A    between atoms: C_7  and  C_8
REMARK    7  A    between atoms: C_9  and  C_10
REMARK    8  A    between atoms: C_10  and  C_11
REMARK    9  A    between atoms: C_11  and  C_12
REMARK   10  A    between atoms: C_12  and  C_13
REMARK   11  A    between atoms: C_14  and  C_15
REMARK   12  A    between atoms: C_15  and  C_16
REMARK   13  A    between atoms: C_16  and  C_17
REMARK   14  A    between atoms: C_17  and  C_18
REMARK                            x       y       z     vdW  Elec       q    Type
REMARK                         _______ _______ _______ _____ _____    ______ ____
ROOT
ATOM      1  C   UNL     1       2.274   5.936  20.093  0.00  0.00    +0.000 C 
ATOM      2  C   UNL     1       1.341   4.977  20.781  0.00  0.00    +0.000 C 
ATOM      3  C   UNL     1       2.117   7.267  20.246  0.00  0.00    +0.000 C 
ENDROOT
BRANCH   1   4
ATOM      4  C   UNL     1       3.424   5.427  19.239  0.00  0.00    +0.000 C 
BRANCH   4   5
ATOM      5  C   UNL     1       3.257   5.647  17.735  0.00  0.00    +0.000 C 
BRANCH   5   8
ATOM      6  C   UNL     1       5.132   5.145  16.125  0.00  0.00    +0.000 C 
ATOM      7  C   UNL     1       5.598   6.580  16.163  0.00  0.00    +0.000 C 
ATOM      8  C   UNL     1       4.101   4.737  16.894  0.00  0.00    +0.000 C 
BRANCH   6   9
ATOM      9  C   UNL     1       5.816   4.127  15.234  0.00  0.00    +0.000 C 
BRANCH   9  10
ATOM     10  C   UNL     1       5.739   4.408  13.732  0.00  0.00    +0.000 C 
BRANCH  10  14
ATOM     11  C   UNL     1       6.228   1.529  11.168  0.00  0.00    +0.000 C 
ATOM     12  C   UNL     1       5.624   2.709  11.871  0.00  0.00    +0.000 C 
ATOM     13  C   UNL     1       4.291   3.204  11.379  0.00  0.00    +0.000 C 
ATOM     14  C   UNL     1       6.277   3.287  12.896  0.00  0.00    +0.000 C 
ENDBRANCH  10  14
ENDBRANCH   9  10
ENDBRANCH   6   9
ENDBRANCH   5   8
ENDBRANCH   4   5
ENDBRANCH   1   4
BRANCH   3  15
ATOM     15  C   UNL     1       1.054   7.884  21.117  0.00  0.00    +0.000 C 
BRANCH  15  16
ATOM     16  C   UNL     1       1.338   9.340  21.482  0.00  0.00    +0.000 C 
BRANCH  16  17
ATOM     17  C   UNL     1       0.453  10.353  20.704  0.00  0.00    +0.000 C 
ATOM     18  C   UNL     1       1.381  11.496  20.248  0.00  0.00    +0.000 C 
ATOM     19  C   UNL     1      -0.708  10.839  21.589  0.00  0.00    +0.000 C 
ATOM     20  C   UNL     1      -1.575  11.842  20.851  0.00  0.00    +0.000 C 
ATOM     21  C   UNL     1      -1.847  11.359  19.457  0.00  0.00    +0.000 A 
ATOM     22  C   UNL     1      -2.845  11.982  18.696  0.00  0.00    +0.000 A 
ATOM     23  C   UNL     1      -3.112  11.550  17.397  0.00  0.00    +0.000 A 
ATOM     24  C   UNL     1      -2.390  10.489  16.853  0.00  0.00    +0.000 A 
ATOM     25  C   UNL     1      -1.389   9.872  17.601  0.00  0.00    +0.000 A 
ATOM     26  C   UNL     1      -1.099  10.318  18.891  0.00  0.00    +0.000 A 
ATOM     27  O   UNL     1      -0.065   9.685  19.535  0.00  0.00    +0.000 OA
ENDBRANCH  16  17
ENDBRANCH  15  16
ENDBRANCH   3  15
TORSDOF 9
ENDMDL
