MODEL 1
REMARK VINA RESULT:      -6.7      0.000      0.000
REMARK  Name = 
REMARK  5 active torsions:
REMARK  status: ('A' for Active; 'I' for Inactive)
REMARK    1  A    between atoms: C_1  and  O_2
REMARK    2  A    between atoms: O_2  and  C_3
REMARK    3  A    between atoms: C_3  and  C_4
REMARK    4  A    between atoms: C_4  and  N_5
REMARK    5  A    between atoms: C_9  and  C_11
REMARK                            x       y       z     vdW  Elec       q    Type
REMARK                         _______ _______ _______ _____ _____    ______ ____
ROOT
ATOM      1  N   UNL     1       6.436   5.125  15.391  0.00  0.00    +0.000 N 
ATOM      2  C   UNL     1       6.999   4.667  16.669  0.00  0.00    +0.000 C 
ATOM      3  C   UNL     1       6.729   5.629  17.844  0.00  0.00    +0.000 C 
ATOM      4  N   UNL     1       5.326   6.056  17.840  0.00  0.00    +0.000 N 
ATOM      5  C   UNL     1       4.515   5.909  18.969  0.00  0.00    +0.000 C 
ATOM      6  O   UNL     1       4.931   5.351  19.980  0.00  0.00    +0.000 OA
ATOM      7  C   UNL     1       4.874   6.623  16.585  0.00  0.00    +0.000 C 
ATOM      8  C   UNL     1       5.635   6.254  15.319  0.00  0.00    +0.000 C 
ATOM      9  O   UNL     1       5.417   6.865  14.274  0.00  0.00    +0.000 OA
ENDROOT
BRANCH   5  10
ATOM     10  C   UNL     1       3.055   6.421  18.858  0.00  0.00    +0.000 C 
ATOM     11  C   UNL     1       2.375   6.642  20.206  0.00  0.00    +0.000 C 
ATOM     12  O   UNL     1       2.096   5.453  20.947  0.00  0.00    +0.000 OA
ATOM     13  C   UNL     1       1.668   4.382  20.216  0.00  0.00    +0.000 A 
ATOM     14  C   UNL     1       1.311   3.251  20.948  0.00  0.00    +0.000 A 
ATOM     15  C   UNL     1       0.932   2.083  20.288  0.00  0.00    +0.000 A 
ATOM     16  C   UNL     1       0.854   2.065  18.898  0.00  0.00    +0.000 A 
ATOM     17  C   UNL     1       1.184   3.204  18.166  0.00  0.00    +0.000 A 
ATOM     18  C   UNL     1       1.642   4.353  18.820  0.00  0.00    +0.000 A 
ATOM     19  C   UNL     1       2.136   5.522  18.025  0.00  0.00    +0.000 C 
ENDBRANCH   5  10
BRANCH   1  20
ATOM     20  C   UNL     1       6.687   4.389  14.151  0.00  0.00    +0.000 C 
BRANCH  20  21
ATOM     21  C   UNL     1       5.449   3.685  13.565  0.00  0.00    +0.000 C 
BRANCH  21  23
ATOM     22  C   UNL     1       4.481   3.143  11.482  0.00  0.00    +0.000 C 
ATOM     23  O   UNL     1       5.693   3.283  12.214  0.00  0.00    +0.000 OA
ENDBRANCH  21  23
ENDBRANCH  20  21
ENDBRANCH   1  20
TORSDOF 4
ENDMDL
MODEL 2
REMARK VINA RESULT:      -6.5      4.507      6.589
REMARK  Name = 
REMARK  5 active torsions:
REMARK  status: ('A' for Active; 'I' for Inactive)
REMARK    1  A    between atoms: C_1  and  O_2
REMARK    2  A    between atoms: O_2  and  C_3
REMARK    3  A    between atoms: C_3  and  C_4
REMARK    4  A    between atoms: C_4  and  N_5
REMARK    5  A    between atoms: C_9  and  C_11
REMARK                            x       y       z     vdW  Elec       q    Type
REMARK                         _______ _______ _______ _____ _____    ______ ____
ROOT
ATOM      1  N   UNL     1       1.913   4.932  19.210  0.00  0.00    +0.000 N 
ATOM      2  C   UNL     1       1.302   5.406  20.460  0.00  0.00    +0.000 C 
ATOM      3  C   UNL     1       1.825   6.782  20.921  0.00  0.00    +0.000 C 
ATOM      4  N   UNL     1       1.862   7.717  19.793  0.00  0.00    +0.000 N 
ATOM      5  C   UNL     1       1.225   8.959  19.854  0.00  0.00    +0.000 C 
ATOM      6  O   UNL     1       0.552   9.280  20.829  0.00  0.00    +0.000 OA
ATOM      7  C   UNL     1       2.597   7.238  18.639  0.00  0.00    +0.000 C 
ATOM      8  C   UNL     1       2.776   5.734  18.481  0.00  0.00    +0.000 C 
ATOM      9  O   UNL     1       3.558   5.297  17.637  0.00  0.00    +0.000 OA
ENDROOT
BRANCH   5  10
ATOM     10  C   UNL     1       1.354   9.878  18.610  0.00  0.00    +0.000 C 
ATOM     11  C   UNL     1       1.348  11.368  18.940  0.00  0.00    +0.000 C 
ATOM     12  O   UNL     1       0.101  11.878  19.416  0.00  0.00    +0.000 OA
ATOM     13  C   UNL     1      -1.017  11.384  18.809  0.00  0.00    +0.000 A 
ATOM     14  C   UNL     1      -2.226  11.947  19.211  0.00  0.00    +0.000 A 
ATOM     15  C   UNL     1      -3.429  11.457  18.702  0.00  0.00    +0.000 A 
ATOM     16  C   UNL     1      -3.417  10.444  17.747  0.00  0.00    +0.000 A 
ATOM     17  C   UNL     1      -2.206   9.899  17.323  0.00  0.00    +0.000 A 
ATOM     18  C   UNL     1      -1.002  10.331  17.891  0.00  0.00    +0.000 A 
ATOM     19  C   UNL     1       0.281   9.643  17.542  0.00  0.00    +0.000 C 
ENDBRANCH   5  10
BRANCH   1  20
ATOM     20  C   UNL     1       1.612   3.601  18.683  0.00  0.00    +0.000 C 
BRANCH  20  21
ATOM     21  C   UNL     1       1.933   2.443  19.646  0.00  0.00    +0.000 C 
BRANCH  21  23
ATOM     22  C   UNL     1       3.529   1.743  18.055  0.00  0.00    +0.000 C 
ATOM     23  O   UNL     1       3.266   1.970  19.435  0.00  0.00    +0.000 OA
ENDBRANCH  21  23
ENDBRANCH  20  21
ENDBRANCH   1  20
TORSDOF 4
ENDMDL
MODEL 3
REMARK VINA RESULT:      -6.4      5.211      6.974
REMARK  Name = 
REMARK  5 active torsions:
REMARK  status: ('A' for Active; 'I' for Inactive)
REMARK    1  A    between atoms: C_1  and  O_2
REMARK    2  A    between atoms: O_2  and  C_3
REMARK    3  A    between atoms: C_3  and  C_4
REMARK    4  A    between atoms: C_4  and  N_5
REMARK    5  A    between atoms: C_9  and  C_11
REMARK                            x       y       z     vdW  Elec       q    Type
REMARK                         _______ _______ _______ _____ _____    ______ ____
ROOT
ATOM      1  N   UNL     1       2.185   5.951  19.490  0.00  0.00    +0.000 N 
ATOM      2  C   UNL     1       1.390   6.299  20.676  0.00  0.00    +0.000 C 
ATOM      3  C   UNL     1       1.460   7.794  21.050  0.00  0.00    +0.000 C 
ATOM      4  N   UNL     1       1.287   8.626  19.855  0.00  0.00    +0.000 N 
ATOM      5  C   UNL     1       0.310   9.624  19.796  0.00  0.00    +0.000 C 
ATOM      6  O   UNL     1      -0.482   9.791  20.718  0.00  0.00    +0.000 OA
ATOM      7  C   UNL     1       2.195   8.315  18.769  0.00  0.00    +0.000 C 
ATOM      8  C   UNL     1       2.816   6.925  18.734  0.00  0.00    +0.000 C 
ATOM      9  O   UNL     1       3.740   6.687  17.956  0.00  0.00    +0.000 OA
ENDROOT
BRANCH   5  10
ATOM     10  C   UNL     1       0.237  10.460  18.491  0.00  0.00    +0.000 C 
ATOM     11  C   UNL     1       0.125  11.964  18.727  0.00  0.00    +0.000 C 
ATOM     12  O   UNL     1      -1.113  12.398  19.292  0.00  0.00    +0.000 OA
ATOM     13  C   UNL     1      -2.233  11.767  18.831  0.00  0.00    +0.000 A 
ATOM     14  C   UNL     1      -3.446  12.252  19.317  0.00  0.00    +0.000 A 
ATOM     15  C   UNL     1      -4.641  11.627  18.961  0.00  0.00    +0.000 A 
ATOM     16  C   UNL     1      -4.625  10.553  18.075  0.00  0.00    +0.000 A 
ATOM     17  C   UNL     1      -3.415  10.085  17.566  0.00  0.00    +0.000 A 
ATOM     18  C   UNL     1      -2.208  10.658  17.983  0.00  0.00    +0.000 A 
ATOM     19  C   UNL     1      -0.904  10.059  17.552  0.00  0.00    +0.000 C 
ENDBRANCH   5  10
BRANCH   1  20
ATOM     20  C   UNL     1       2.319   4.559  19.056  0.00  0.00    +0.000 C 
BRANCH  20  21
ATOM     21  C   UNL     1       1.482   4.193  17.816  0.00  0.00    +0.000 C 
BRANCH  21  23
ATOM     22  C   UNL     1       3.477   2.973  17.508  0.00  0.00    +0.000 C 
ATOM     23  O   UNL     1       2.167   3.227  17.015  0.00  0.00    +0.000 OA
ENDBRANCH  21  23
ENDBRANCH  20  21
ENDBRANCH   1  20
TORSDOF 4
ENDMDL
MODEL 4
REMARK VINA RESULT:      -6.4      1.823      6.816
REMARK  Name = 
REMARK  5 active torsions:
REMARK  status: ('A' for Active; 'I' for Inactive)
REMARK    1  A    between atoms: C_1  and  O_2
REMARK    2  A    between atoms: O_2  and  C_3
REMARK    3  A    between atoms: C_3  and  C_4
REMARK    4  A    between atoms: C_4  and  N_5
REMARK    5  A    between atoms: C_9  and  C_11
REMARK                            x       y       z     vdW  Elec       q    Type
REMARK                         _______ _______ _______ _____ _____    ______ ____
ROOT
ATOM      1  N   UNL     1       2.039   5.131  19.476  0.00  0.00    +0.000 N 
ATOM      2  C   UNL     1       1.939   6.125  18.398  0.00  0.00    +0.000 C 
ATOM      3  C   UNL     1       3.292   6.755  18.011  0.00  0.00    +0.000 C 
ATOM      4  N   UNL     1       4.318   5.716  17.876  0.00  0.00    +0.000 N 
ATOM      5  C   UNL     1       5.081   5.590  16.712  0.00  0.00    +0.000 C 
ATOM      6  O   UNL     1       4.868   6.302  15.735  0.00  0.00    +0.000 OA
ATOM      7  C   UNL     1       4.454   4.853  19.032  0.00  0.00    +0.000 C 
ATOM      8  C   UNL     1       3.267   4.734  19.978  0.00  0.00    +0.000 C 
ATOM      9  O   UNL     1       3.407   4.180  21.069  0.00  0.00    +0.000 OA
ENDROOT
BRANCH   5  10
ATOM     10  C   UNL     1       6.156   4.472  16.693  0.00  0.00    +0.000 C 
ATOM     11  C   UNL     1       7.584   4.991  16.548  0.00  0.00    +0.000 C 
ATOM     12  O   UNL     1       7.894   5.566  15.278  0.00  0.00    +0.000 OA
ATOM     13  C   UNL     1       7.362   4.932  14.191  0.00  0.00    +0.000 A 
ATOM     14  C   UNL     1       7.738   5.440  12.949  0.00  0.00    +0.000 A 
ATOM     15  C   UNL     1       7.190   4.908  11.782  0.00  0.00    +0.000 A 
ATOM     16  C   UNL     1       6.311   3.830  11.857  0.00  0.00    +0.000 A 
ATOM     17  C   UNL     1       5.956   3.304  13.097  0.00  0.00    +0.000 A 
ATOM     18  C   UNL     1       6.441   3.887  14.274  0.00  0.00    +0.000 A 
ATOM     19  C   UNL     1       5.943   3.415  15.605  0.00  0.00    +0.000 C 
ENDBRANCH   5  10
BRANCH   1  20
ATOM     20  C   UNL     1       0.839   4.510  20.041  0.00  0.00    +0.000 C 
BRANCH  20  21
ATOM     21  C   UNL     1       0.688   3.010  19.728  0.00  0.00    +0.000 C 
BRANCH  21  23
ATOM     22  C   UNL     1       2.060   2.061  18.059  0.00  0.00    +0.000 C 
ATOM     23  O   UNL     1       0.856   2.770  18.328  0.00  0.00    +0.000 OA
ENDBRANCH  21  23
ENDBRANCH  20  21
ENDBRANCH   1  20
TORSDOF 4
ENDMDL
MODEL 5
REMARK VINA RESULT:      -6.4      3.862      7.202
REMARK  Name = 
REMARK  5 active torsions:
REMARK  status: ('A' for Active; 'I' for Inactive)
REMARK    1  A    between atoms: C_1  and  O_2
REMARK    2  A    between atoms: O_2  and  C_3
REMARK    3  A    between atoms: C_3  and  C_4
REMARK    4  A    between atoms: C_4  and  N_5
REMARK    5  A    between atoms: C_9  and  C_11
REMARK                            x       y       z     vdW  Elec       q    Type
REMARK                         _______ _______ _______ _____ _____    ______ ____
ROOT
ATOM      1  N   UNL     1       0.089   9.929  19.625  0.00  0.00    +0.000 N 
ATOM      2  C   UNL     1       0.863  10.270  18.423  0.00  0.00    +0.000 C 
ATOM      3  C   UNL     1       2.293   9.695  18.424  0.00  0.00    +0.000 C 
ATOM      4  N   UNL     1       2.276   8.288  18.837  0.00  0.00    +0.000 N 
ATOM      5  C   UNL     1       2.856   7.289  18.050  0.00  0.00    +0.000 C 
ATOM      6  O   UNL     1       3.337   7.548  16.951  0.00  0.00    +0.000 OA
ATOM      7  C   UNL     1       1.611   8.041  20.101  0.00  0.00    +0.000 C 
ATOM      8  C   UNL     1       0.591   9.063  20.583  0.00  0.00    +0.000 C 
ATOM      9  O   UNL     1       0.158   9.000  21.734  0.00  0.00    +0.000 OA
ENDROOT
BRANCH   5  10
ATOM     10  C   UNL     1       2.801   5.840  18.601  0.00  0.00    +0.000 C 
ATOM     11  C   UNL     1       3.781   5.576  19.741  0.00  0.00    +0.000 C 
ATOM     12  O   UNL     1       5.160   5.579  19.368  0.00  0.00    +0.000 OA
ATOM     13  C   UNL     1       5.454   5.003  18.165  0.00  0.00    +0.000 A 
ATOM     14  C   UNL     1       6.808   4.926  17.844  0.00  0.00    +0.000 A 
ATOM     15  C   UNL     1       7.204   4.422  16.606  0.00  0.00    +0.000 A 
ATOM     16  C   UNL     1       6.249   3.940  15.714  0.00  0.00    +0.000 A 
ATOM     17  C   UNL     1       4.896   3.990  16.046  0.00  0.00    +0.000 A 
ATOM     18  C   UNL     1       4.489   4.570  17.254  0.00  0.00    +0.000 A 
ATOM     19  C   UNL     1       3.031   4.757  17.542  0.00  0.00    +0.000 C 
ENDBRANCH   5  10
BRANCH   1  20
ATOM     20  C   UNL     1      -1.250  10.479  19.840  0.00  0.00    +0.000 C 
BRANCH  20  21
ATOM     21  C   UNL     1      -1.811  11.280  18.650  0.00  0.00    +0.000 C 
BRANCH  21  23
ATOM     22  C   UNL     1      -3.258  11.151  16.791  0.00  0.00    +0.000 C 
ATOM     23  O   UNL     1      -2.906  10.584  18.048  0.00  0.00    +0.000 OA
ENDBRANCH  21  23
ENDBRANCH  20  21
ENDBRANCH   1  20
TORSDOF 4
ENDMDL
MODEL 6
REMARK VINA RESULT:      -6.3      3.920      7.413
REMARK  Name = 
REMARK  5 active torsions:
REMARK  status: ('A' for Active; 'I' for Inactive)
REMARK    1  A    between atoms: C_1  and  O_2
REMARK    2  A    between atoms: O_2  and  C_3
REMARK    3  A    between atoms: C_3  and  C_4
REMARK    4  A    between atoms: C_4  and  N_5
REMARK    5  A    between atoms: C_9  and  C_11
REMARK                            x       y       z     vdW  Elec       q    Type
REMARK                         _______ _______ _______ _____ _____    ______ ____
ROOT
ATOM      1  N   UNL     1       0.082   9.955  19.513  0.00  0.00    +0.000 N 
ATOM      2  C   UNL     1       0.888  10.291  18.331  0.00  0.00    +0.000 C 
ATOM      3  C   UNL     1       2.319   9.719  18.376  0.00  0.00    +0.000 C 
ATOM      4  N   UNL     1       2.293   8.314  18.796  0.00  0.00    +0.000 N 
ATOM      5  C   UNL     1       2.896   7.312  18.031  0.00  0.00    +0.000 C 
ATOM      6  O   UNL     1       3.408   7.566  16.945  0.00  0.00    +0.000 OA
ATOM      7  C   UNL     1       1.593   8.073  20.042  0.00  0.00    +0.000 C 
ATOM      8  C   UNL     1       0.558   9.095  20.490  0.00  0.00    +0.000 C 
ATOM      9  O   UNL     1       0.093   9.037  21.628  0.00  0.00    +0.000 OA
ENDROOT
BRANCH   5  10
ATOM     10  C   UNL     1       2.829   5.866  18.588  0.00  0.00    +0.000 C 
ATOM     11  C   UNL     1       3.812   5.596  19.724  0.00  0.00    +0.000 C 
ATOM     12  O   UNL     1       5.189   5.582  19.344  0.00  0.00    +0.000 OA
ATOM     13  C   UNL     1       5.470   4.998  18.143  0.00  0.00    +0.000 A 
ATOM     14  C   UNL     1       6.822   4.906  17.814  0.00  0.00    +0.000 A 
ATOM     15  C   UNL     1       7.206   4.392  16.576  0.00  0.00    +0.000 A 
ATOM     16  C   UNL     1       6.241   3.917  15.691  0.00  0.00    +0.000 A 
ATOM     17  C   UNL     1       4.890   3.983  16.031  0.00  0.00    +0.000 A 
ATOM     18  C   UNL     1       4.496   4.572  17.238  0.00  0.00    +0.000 A 
ATOM     19  C   UNL     1       3.042   4.776  17.533  0.00  0.00    +0.000 C 
ENDBRANCH   5  10
BRANCH   1  20
ATOM     20  C   UNL     1      -1.265  10.503  19.687  0.00  0.00    +0.000 C 
BRANCH  20  21
ATOM     21  C   UNL     1      -1.565  11.745  18.827  0.00  0.00    +0.000 C 
BRANCH  21  23
ATOM     22  C   UNL     1      -0.336  13.756  18.704  0.00  0.00    +0.000 C 
ATOM     23  O   UNL     1      -1.172  12.938  19.513  0.00  0.00    +0.000 OA
ENDBRANCH  21  23
ENDBRANCH  20  21
ENDBRANCH   1  20
TORSDOF 4
ENDMDL
MODEL 7
REMARK VINA RESULT:      -6.3      4.478      6.813
REMARK  Name = 
REMARK  5 active torsions:
REMARK  status: ('A' for Active; 'I' for Inactive)
REMARK    1  A    between atoms: C_1  and  O_2
REMARK    2  A    between atoms: O_2  and  C_3
REMARK    3  A    between atoms: C_3  and  C_4
REMARK    4  A    between atoms: C_4  and  N_5
REMARK    5  A    between atoms: C_9  and  C_11
REMARK                            x       y       z     vdW  Elec       q    Type
REMARK                         _______ _______ _______ _____ _____    ______ ____
ROOT
ATOM      1  N   UNL     1       1.849   4.620  19.154  0.00  0.00    +0.000 N 
ATOM      2  C   UNL     1       1.515   5.216  20.456  0.00  0.00    +0.000 C 
ATOM      3  C   UNL     1       2.170   6.593  20.692  0.00  0.00    +0.000 C 
ATOM      4  N   UNL     1       2.016   7.440  19.505  0.00  0.00    +0.000 N 
ATOM      5  C   UNL     1       1.449   8.714  19.586  0.00  0.00    +0.000 C 
ATOM      6  O   UNL     1       0.996   9.140  20.644  0.00  0.00    +0.000 OA
ATOM      7  C   UNL     1       2.489   6.839  18.273  0.00  0.00    +0.000 C 
ATOM      8  C   UNL     1       2.578   5.321  18.207  0.00  0.00    +0.000 C 
ATOM      9  O   UNL     1       3.162   4.782  17.266  0.00  0.00    +0.000 OA
ENDROOT
BRANCH   5  10
ATOM     10  C   UNL     1       1.363   9.531  18.269  0.00  0.00    +0.000 C 
ATOM     11  C   UNL     1       2.087  10.873  18.328  0.00  0.00    +0.000 C 
ATOM     12  O   UNL     1       1.491  11.846  19.187  0.00  0.00    +0.000 OA
ATOM     13  C   UNL     1       0.126  11.889  19.183  0.00  0.00    +0.000 A 
ATOM     14  C   UNL     1      -0.452  12.897  19.952  0.00  0.00    +0.000 A 
ATOM     15  C   UNL     1      -1.840  12.976  20.071  0.00  0.00    +0.000 A 
ATOM     16  C   UNL     1      -2.648  12.083  19.374  0.00  0.00    +0.000 A 
ATOM     17  C   UNL     1      -2.072  11.092  18.581  0.00  0.00    +0.000 A 
ATOM     18  C   UNL     1      -0.679  10.958  18.524  0.00  0.00    +0.000 A 
ATOM     19  C   UNL     1      -0.066   9.804  17.792  0.00  0.00    +0.000 C 
ENDBRANCH   5  10
BRANCH   1  20
ATOM     20  C   UNL     1       1.400   3.271  18.807  0.00  0.00    +0.000 C 
BRANCH  20  21
ATOM     21  C   UNL     1       2.083   2.145  19.605  0.00  0.00    +0.000 C 
BRANCH  21  23
ATOM     22  C   UNL     1       4.409   2.291  19.975  0.00  0.00    +0.000 C 
ATOM     23  O   UNL     1       3.385   1.875  19.079  0.00  0.00    +0.000 OA
ENDBRANCH  21  23
ENDBRANCH  20  21
ENDBRANCH   1  20
TORSDOF 4
ENDMDL
MODEL 8
REMARK VINA RESULT:      -6.3      5.356      7.473
REMARK  Name = 
REMARK  5 active torsions:
REMARK  status: ('A' for Active; 'I' for Inactive)
REMARK    1  A    between atoms: C_1  and  O_2
REMARK    2  A    between atoms: O_2  and  C_3
REMARK    3  A    between atoms: C_3  and  C_4
REMARK    4  A    between atoms: C_4  and  N_5
REMARK    5  A    between atoms: C_9  and  C_11
REMARK                            x       y       z     vdW  Elec       q    Type
REMARK                         _______ _______ _______ _____ _____    ______ ____
ROOT
ATOM      1  N   UNL     1       2.241   6.309  19.304  0.00  0.00    +0.000 N 
ATOM      2  C   UNL     1       1.478   6.612  20.523  0.00  0.00    +0.000 C 
ATOM      3  C   UNL     1       1.466   8.110  20.888  0.00  0.00    +0.000 C 
ATOM      4  N   UNL     1       1.185   8.922  19.700  0.00  0.00    +0.000 N 
ATOM      5  C   UNL     1       0.144   9.853  19.681  0.00  0.00    +0.000 C 
ATOM      6  O   UNL     1      -0.616   9.974  20.637  0.00  0.00    +0.000 OA
ATOM      7  C   UNL     1       2.063   8.664  18.575  0.00  0.00    +0.000 C 
ATOM      8  C   UNL     1       2.772   7.318  18.517  0.00  0.00    +0.000 C 
ATOM      9  O   UNL     1       3.675   7.137  17.699  0.00  0.00    +0.000 OA
ENDROOT
BRANCH   5  10
ATOM     10  C   UNL     1      -0.042  10.675  18.378  0.00  0.00    +0.000 C 
ATOM     11  C   UNL     1      -0.182  12.177  18.610  0.00  0.00    +0.000 C 
ATOM     12  O   UNL     1      -1.390  12.581  19.255  0.00  0.00    +0.000 OA
ATOM     13  C   UNL     1      -2.520  11.915  18.876  0.00  0.00    +0.000 A 
ATOM     14  C   UNL     1      -3.711  12.370  19.439  0.00  0.00    +0.000 A 
ATOM     15  C   UNL     1      -4.908  11.707  19.171  0.00  0.00    +0.000 A 
ATOM     16  C   UNL     1      -4.922  10.626  18.294  0.00  0.00    +0.000 A 
ATOM     17  C   UNL     1      -3.736  10.188  17.707  0.00  0.00    +0.000 A 
ATOM     18  C   UNL     1      -2.520  10.799  18.037  0.00  0.00    +0.000 A 
ATOM     19  C   UNL     1      -1.233  10.233  17.522  0.00  0.00    +0.000 C 
ENDBRANCH   5  10
BRANCH   1  20
ATOM     20  C   UNL     1       2.447   4.927  18.869  0.00  0.00    +0.000 C 
BRANCH  20  21
ATOM     21  C   UNL     1       3.234   4.053  19.863  0.00  0.00    +0.000 C 
BRANCH  21  23
ATOM     22  C   UNL     1       2.111   2.981  21.640  0.00  0.00    +0.000 C 
ATOM     23  O   UNL     1       2.457   2.920  20.261  0.00  0.00    +0.000 OA
ENDBRANCH  21  23
ENDBRANCH  20  21
ENDBRANCH   1  20
TORSDOF 4
ENDMDL
MODEL 9
REMARK VINA RESULT:      -6.2      3.736      7.770
REMARK  Name = 
REMARK  5 active torsions:
REMARK  status: ('A' for Active; 'I' for Inactive)
REMARK    1  A    between atoms: C_1  and  O_2
REMARK    2  A    between atoms: O_2  and  C_3
REMARK    3  A    between atoms: C_3  and  C_4
REMARK    4  A    between atoms: C_4  and  N_5
REMARK    5  A    between atoms: C_9  and  C_11
REMARK                            x       y       z     vdW  Elec       q    Type
REMARK                         _______ _______ _______ _____ _____    ______ ____
ROOT
ATOM      1  N   UNL     1       0.253   9.860  20.084  0.00  0.00    +0.000 N 
ATOM      2  C   UNL     1       0.856  10.212  18.791  0.00  0.00    +0.000 C 
ATOM      3  C   UNL     1       2.255   9.599  18.574  0.00  0.00    +0.000 C 
ATOM      4  N   UNL     1       2.255   8.183  18.954  0.00  0.00    +0.000 N 
ATOM      5  C   UNL     1       2.686   7.190  18.070  0.00  0.00    +0.000 C 
ATOM      6  O   UNL     1       3.013   7.465  16.920  0.00  0.00    +0.000 OA
ATOM      7  C   UNL     1       1.770   7.921  20.295  0.00  0.00    +0.000 C 
ATOM      8  C   UNL     1       0.860   8.956  20.940  0.00  0.00    +0.000 C 
ATOM      9  O   UNL     1       0.594   8.874  22.140  0.00  0.00    +0.000 OA
ENDROOT
BRANCH   5  10
ATOM     10  C   UNL     1       2.668   5.729  18.590  0.00  0.00    +0.000 C 
ATOM     11  C   UNL     1       3.629   5.475  19.748  0.00  0.00    +0.000 C 
ATOM     12  O   UNL     1       5.015   5.531  19.409  0.00  0.00    +0.000 OA
ATOM     13  C   UNL     1       5.357   4.990  18.203  0.00  0.00    +0.000 A 
ATOM     14  C   UNL     1       6.720   4.965  17.913  0.00  0.00    +0.000 A 
ATOM     15  C   UNL     1       7.162   4.500  16.675  0.00  0.00    +0.000 A 
ATOM     16  C   UNL     1       6.245   4.005  15.751  0.00  0.00    +0.000 A 
ATOM     17  C   UNL     1       4.884   4.003  16.052  0.00  0.00    +0.000 A 
ATOM     18  C   UNL     1       4.429   4.544  17.260  0.00  0.00    +0.000 A 
ATOM     19  C   UNL     1       2.959   4.676  17.517  0.00  0.00    +0.000 C 
ENDBRANCH   5  10
BRANCH   1  20
ATOM     20  C   UNL     1      -1.026  10.439  20.500  0.00  0.00    +0.000 C 
BRANCH  20  21
ATOM     21  C   UNL     1      -0.930  11.875  21.048  0.00  0.00    +0.000 C 
BRANCH  21  23
ATOM     22  C   UNL     1      -2.210  11.874  23.030  0.00  0.00    +0.000 C 
ATOM     23  O   UNL     1      -0.898  11.866  22.477  0.00  0.00    +0.000 OA
ENDBRANCH  21  23
ENDBRANCH  20  21
ENDBRANCH   1  20
TORSDOF 4
ENDMDL
