MODEL 1
REMARK VINA RESULT:      -7.4      0.000      0.000
REMARK  Name = 
REMARK  7 active torsions:
REMARK  status: ('A' for Active; 'I' for Inactive)
REMARK    1  A    between atoms: C_1  and  C_2
REMARK    2  A    between atoms: C_5  and  C_6
REMARK    3  A    between atoms: C_6  and  N_7
REMARK    4  A    between atoms: N_7  and  C_8
REMARK    5  A    between atoms: N_7  and  C_15
REMARK    6  A    between atoms: C_8  and  C_9
REMARK    7  A    between atoms: N_18  and  C_19
REMARK                            x       y       z     vdW  Elec       q    Type
REMARK                         _______ _______ _______ _____ _____    ______ ____
ROOT
ATOM      1  N   UNL     1       3.331   6.410  18.248  0.00  0.00    +0.000 NA
ENDROOT
BRANCH   1   2
ATOM      2  C   UNL     1       2.233   7.373  18.578  0.00  0.00    +0.000 C 
ATOM      3  C   UNL     1       2.303   8.668  17.739  0.00  0.00    +0.000 C 
ATOM      4  C   UNL     1       1.170   9.635  18.095  0.00  0.00    +0.000 C 
ATOM      5  N   UNL     1       1.198   9.941  19.531  0.00  0.00    +0.000 NA
ATOM      6  C   UNL     1       0.214  10.967  19.870  0.00  0.00    +0.000 C 
ATOM      7  C   UNL     1       0.972   8.727  20.319  0.00  0.00    +0.000 C 
ATOM      8  C   UNL     1       2.096   7.720  20.072  0.00  0.00    +0.000 C 
ENDBRANCH   1   2
BRANCH   1   9
ATOM      9  C   UNL     1       2.802   5.176  17.608  0.00  0.00    +0.000 C 
BRANCH   9  14
ATOM     10  C   UNL     1       1.563   2.449  22.020  0.00  0.00    +0.000 C 
ATOM     11  C   UNL     1       1.619   2.930  20.612  0.00  0.00    +0.000 A 
ATOM     12  C   UNL     1       0.783   2.620  19.558  0.00  0.00    +0.000 A 
ATOM     13  C   UNL     1       1.113   3.346  18.376  0.00  0.00    +0.000 A 
ATOM     14  C   UNL     1       2.185   4.193  18.568  0.00  0.00    +0.000 A 
ATOM     15  S   UNL     1       2.848   4.017  20.140  0.00  0.00    +0.000 S 
ENDBRANCH   9  14
ENDBRANCH   1   9
BRANCH   1  16
ATOM     16  C   UNL     1       4.384   7.019  17.400  0.00  0.00    +0.000 C 
BRANCH  16  17
ATOM     17  C   UNL     1       5.586   6.141  17.117  0.00  0.00    +0.000 A 
ATOM     18  C   UNL     1       6.437   5.726  18.145  0.00  0.00    +0.000 A 
ATOM     19  C   UNL     1       7.493   4.883  17.836  0.00  0.00    +0.000 A 
ATOM     20  N   UNL     1       7.757   4.428  16.589  0.00  0.00    +0.000 NA
ATOM     21  C   UNL     1       6.922   4.836  15.613  0.00  0.00    +0.000 A 
ATOM     22  C   UNL     1       5.839   5.676  15.823  0.00  0.00    +0.000 A 
ENDBRANCH  16  17
ENDBRANCH   1  16
TORSDOF 5
ENDMDL
MODEL 2
REMARK VINA RESULT:      -7.4      0.049      1.002
REMARK  Name = 
REMARK  7 active torsions:
REMARK  status: ('A' for Active; 'I' for Inactive)
REMARK    1  A    between atoms: C_1  and  C_2
REMARK    2  A    between atoms: C_5  and  C_6
REMARK    3  A    between atoms: C_6  and  N_7
REMARK    4  A    between atoms: N_7  and  C_8
REMARK    5  A    between atoms: N_7  and  C_15
REMARK    6  A    between atoms: C_8  and  C_9
REMARK    7  A    between atoms: N_18  and  C_19
REMARK                            x       y       z     vdW  Elec       q    Type
REMARK                         _______ _______ _______ _____ _____    ______ ____
ROOT
ATOM      1  N   UNL     1       3.319   6.411  18.293  0.00  0.00    +0.000 NA
ENDROOT
BRANCH   1   2
ATOM      2  C   UNL     1       2.228   7.389  18.601  0.00  0.00    +0.000 C 
ATOM      3  C   UNL     1       2.333   8.684  17.767  0.00  0.00    +0.000 C 
ATOM      4  C   UNL     1       1.205   9.665  18.101  0.00  0.00    +0.000 C 
ATOM      5  N   UNL     1       1.206   9.968  19.537  0.00  0.00    +0.000 NA
ATOM      6  C   UNL     1       0.228  11.006  19.857  0.00  0.00    +0.000 C 
ATOM      7  C   UNL     1       0.946   8.755  20.317  0.00  0.00    +0.000 C 
ATOM      8  C   UNL     1       2.062   7.734  20.092  0.00  0.00    +0.000 C 
ENDBRANCH   1   2
BRANCH   1   9
ATOM      9  C   UNL     1       2.789   5.187  17.637  0.00  0.00    +0.000 C 
BRANCH   9  14
ATOM     10  C   UNL     1       1.515   2.442  22.027  0.00  0.00    +0.000 C 
ATOM     11  C   UNL     1       1.596   2.918  20.619  0.00  0.00    +0.000 A 
ATOM     12  C   UNL     1       0.803   2.573  19.543  0.00  0.00    +0.000 A 
ATOM     13  C   UNL     1       1.142   3.304  18.366  0.00  0.00    +0.000 A 
ATOM     14  C   UNL     1       2.178   4.188  18.584  0.00  0.00    +0.000 A 
ATOM     15  S   UNL     1       2.800   4.044  20.176  0.00  0.00    +0.000 S 
ENDBRANCH   9  14
ENDBRANCH   1   9
BRANCH   1  16
ATOM     16  C   UNL     1       4.400   7.009  17.472  0.00  0.00    +0.000 C 
BRANCH  16  17
ATOM     17  C   UNL     1       5.557   6.088  17.141  0.00  0.00    +0.000 A 
ATOM     18  C   UNL     1       5.806   5.683  15.827  0.00  0.00    +0.000 A 
ATOM     19  C   UNL     1       6.908   4.881  15.575  0.00  0.00    +0.000 A 
ATOM     20  N   UNL     1       7.770   4.459  16.529  0.00  0.00    +0.000 NA
ATOM     21  C   UNL     1       7.515   4.864  17.789  0.00  0.00    +0.000 A 
ATOM     22  C   UNL     1       6.441   5.668  18.140  0.00  0.00    +0.000 A 
ENDBRANCH  16  17
ENDBRANCH   1  16
TORSDOF 5
ENDMDL
MODEL 3
REMARK VINA RESULT:      -6.9      1.145      1.294
REMARK  Name = 
REMARK  7 active torsions:
REMARK  status: ('A' for Active; 'I' for Inactive)
REMARK    1  A    between atoms: C_1  and  C_2
REMARK    2  A    between atoms: C_5  and  C_6
REMARK    3  A    between atoms: C_6  and  N_7
REMARK    4  A    between atoms: N_7  and  C_8
REMARK    5  A    between atoms: N_7  and  C_15
REMARK    6  A    between atoms: C_8  and  C_9
REMARK    7  A    between atoms: N_18  and  C_19
REMARK                            x       y       z     vdW  Elec       q    Type
REMARK                         _______ _______ _______ _____ _____    ______ ____
ROOT
ATOM      1  N   UNL     1       3.156   6.633  18.313  0.00  0.00    +0.000 NA
ENDROOT
BRANCH   1   2
ATOM      2  C   UNL     1       2.080   7.612  18.670  0.00  0.00    +0.000 C 
ATOM      3  C   UNL     1       2.198   8.939  17.889  0.00  0.00    +0.000 C 
ATOM      4  C   UNL     1       1.086   9.921  18.272  0.00  0.00    +0.000 C 
ATOM      5  N   UNL     1       1.102  10.164  19.720  0.00  0.00    +0.000 NA
ATOM      6  C   UNL     1       0.141  11.201  20.090  0.00  0.00    +0.000 C 
ATOM      7  C   UNL     1       0.831   8.924  20.451  0.00  0.00    +0.000 C 
ATOM      8  C   UNL     1       1.930   7.897  20.176  0.00  0.00    +0.000 C 
ENDBRANCH   1   2
BRANCH   1   9
ATOM      9  C   UNL     1       2.592   5.298  17.979  0.00  0.00    +0.000 C 
BRANCH   9  14
ATOM     10  C   UNL     1       4.901   1.431  20.834  0.00  0.00    +0.000 C 
ATOM     11  C   UNL     1       3.932   2.440  20.325  0.00  0.00    +0.000 A 
ATOM     12  C   UNL     1       2.770   2.897  20.914  0.00  0.00    +0.000 A 
ATOM     13  C   UNL     1       2.149   3.930  20.152  0.00  0.00    +0.000 A 
ATOM     14  C   UNL     1       2.861   4.234  19.010  0.00  0.00    +0.000 A 
ATOM     15  S   UNL     1       4.209   3.191  18.817  0.00  0.00    +0.000 S 
ENDBRANCH   9  14
ENDBRANCH   1   9
BRANCH   1  16
ATOM     16  C   UNL     1       4.020   7.118  17.211  0.00  0.00    +0.000 C 
BRANCH  16  17
ATOM     17  C   UNL     1       5.277   6.309  16.958  0.00  0.00    +0.000 A 
ATOM     18  C   UNL     1       6.258   6.171  17.943  0.00  0.00    +0.000 A 
ATOM     19  C   UNL     1       7.363   5.378  17.675  0.00  0.00    +0.000 A 
ATOM     20  N   UNL     1       7.556   4.719  16.509  0.00  0.00    +0.000 NA
ATOM     21  C   UNL     1       6.595   4.861  15.574  0.00  0.00    +0.000 A 
ATOM     22  C   UNL     1       5.455   5.629  15.749  0.00  0.00    +0.000 A 
ENDBRANCH  16  17
ENDBRANCH   1  16
TORSDOF 5
ENDMDL
MODEL 4
REMARK VINA RESULT:      -6.9      2.140      6.268
REMARK  Name = 
REMARK  7 active torsions:
REMARK  status: ('A' for Active; 'I' for Inactive)
REMARK    1  A    between atoms: C_1  and  C_2
REMARK    2  A    between atoms: C_5  and  C_6
REMARK    3  A    between atoms: C_6  and  N_7
REMARK    4  A    between atoms: N_7  and  C_8
REMARK    5  A    between atoms: N_7  and  C_15
REMARK    6  A    between atoms: C_8  and  C_9
REMARK    7  A    between atoms: N_18  and  C_19
REMARK                            x       y       z     vdW  Elec       q    Type
REMARK                         _______ _______ _______ _____ _____    ______ ____
ROOT
ATOM      1  N   UNL     1       3.202   6.235  18.398  0.00  0.00    +0.000 NA
ENDROOT
BRANCH   1   2
ATOM      2  C   UNL     1       4.360   5.713  17.606  0.00  0.00    +0.000 C 
ATOM      3  C   UNL     1       4.840   6.706  16.525  0.00  0.00    +0.000 C 
ATOM      4  C   UNL     1       6.025   6.149  15.730  0.00  0.00    +0.000 C 
ATOM      5  N   UNL     1       5.669   4.857  15.131  0.00  0.00    +0.000 NA
ATOM      6  C   UNL     1       6.734   4.371  14.256  0.00  0.00    +0.000 C 
ATOM      7  C   UNL     1       5.369   3.873  16.174  0.00  0.00    +0.000 C 
ATOM      8  C   UNL     1       4.153   4.319  16.986  0.00  0.00    +0.000 C 
ENDBRANCH   1   2
BRANCH   1   9
ATOM      9  C   UNL     1       2.809   7.600  17.960  0.00  0.00    +0.000 C 
BRANCH   9  14
ATOM     10  C   UNL     1      -0.769  10.914  20.116  0.00  0.00    +0.000 C 
ATOM     11  C   UNL     1       0.291   9.884  19.937  0.00  0.00    +0.000 A 
ATOM     12  C   UNL     1       0.793   8.990  20.860  0.00  0.00    +0.000 A 
ATOM     13  C   UNL     1       1.751   8.103  20.288  0.00  0.00    +0.000 A 
ATOM     14  C   UNL     1       1.945   8.345  18.943  0.00  0.00    +0.000 A 
ATOM     15  S   UNL     1       1.050   9.711  18.418  0.00  0.00    +0.000 S 
ENDBRANCH   9  14
ENDBRANCH   1   9
BRANCH   1  16
ATOM     16  C   UNL     1       2.032   5.324  18.359  0.00  0.00    +0.000 C 
BRANCH  16  17
ATOM     17  C   UNL     1       1.910   4.363  19.525  0.00  0.00    +0.000 A 
ATOM     18  C   UNL     1       2.484   4.654  20.765  0.00  0.00    +0.000 A 
ATOM     19  C   UNL     1       2.298   3.762  21.810  0.00  0.00    +0.000 A 
ATOM     20  N   UNL     1       1.587   2.616  21.708  0.00  0.00    +0.000 NA
ATOM     21  C   UNL     1       1.037   2.356  20.505  0.00  0.00    +0.000 A 
ATOM     22  C   UNL     1       1.165   3.186  19.401  0.00  0.00    +0.000 A 
ENDBRANCH  16  17
ENDBRANCH   1  16
TORSDOF 5
ENDMDL
MODEL 5
REMARK VINA RESULT:      -6.8      1.319      1.961
REMARK  Name = 
REMARK  7 active torsions:
REMARK  status: ('A' for Active; 'I' for Inactive)
REMARK    1  A    between atoms: C_1  and  C_2
REMARK    2  A    between atoms: C_5  and  C_6
REMARK    3  A    between atoms: C_6  and  N_7
REMARK    4  A    between atoms: N_7  and  C_8
REMARK    5  A    between atoms: N_7  and  C_15
REMARK    6  A    between atoms: C_8  and  C_9
REMARK    7  A    between atoms: N_18  and  C_19
REMARK                            x       y       z     vdW  Elec       q    Type
REMARK                         _______ _______ _______ _____ _____    ______ ____
ROOT
ATOM      1  N   UNL     1       3.251   6.774  18.260  0.00  0.00    +0.000 NA
ENDROOT
BRANCH   1   2
ATOM      2  C   UNL     1       2.571   7.991  18.805  0.00  0.00    +0.000 C 
ATOM      3  C   UNL     1       1.798   7.708  20.112  0.00  0.00    +0.000 C 
ATOM      4  C   UNL     1       1.113   8.969  20.649  0.00  0.00    +0.000 C 
ATOM      5  N   UNL     1       0.223   9.535  19.628  0.00  0.00    +0.000 NA
ATOM      6  C   UNL     1      -0.544  10.658  20.162  0.00  0.00    +0.000 C 
ATOM      7  C   UNL     1       0.990   9.948  18.450  0.00  0.00    +0.000 C 
ATOM      8  C   UNL     1       1.665   8.736  17.808  0.00  0.00    +0.000 C 
ENDBRANCH   1   2
BRANCH   1   9
ATOM      9  C   UNL     1       2.281   5.679  17.991  0.00  0.00    +0.000 C 
BRANCH   9  14
ATOM     10  C   UNL     1       4.615   1.461  20.270  0.00  0.00    +0.000 C 
ATOM     11  C   UNL     1       3.902   2.348  19.309  0.00  0.00    +0.000 A 
ATOM     12  C   UNL     1       3.228   2.007  18.154  0.00  0.00    +0.000 A 
ATOM     13  C   UNL     1       2.604   3.132  17.541  0.00  0.00    +0.000 A 
ATOM     14  C   UNL     1       2.816   4.296  18.252  0.00  0.00    +0.000 A 
ATOM     15  S   UNL     1       3.858   4.031  19.589  0.00  0.00    +0.000 S 
ENDBRANCH   9  14
ENDBRANCH   1   9
BRANCH   1  16
ATOM     16  C   UNL     1       4.047   7.067  17.044  0.00  0.00    +0.000 C 
BRANCH  16  17
ATOM     17  C   UNL     1       5.278   6.205  16.843  0.00  0.00    +0.000 A 
ATOM     18  C   UNL     1       5.456   5.459  15.675  0.00  0.00    +0.000 A 
ATOM     19  C   UNL     1       6.624   4.728  15.524  0.00  0.00    +0.000 A 
ATOM     20  N   UNL     1       7.616   4.690  16.444  0.00  0.00    +0.000 NA
ATOM     21  C   UNL     1       7.427   5.420  17.560  0.00  0.00    +0.000 A 
ATOM     22  C   UNL     1       6.296   6.184  17.802  0.00  0.00    +0.000 A 
ENDBRANCH  16  17
ENDBRANCH   1  16
TORSDOF 5
ENDMDL
MODEL 6
REMARK VINA RESULT:      -6.8      0.823      1.719
REMARK  Name = 
REMARK  7 active torsions:
REMARK  status: ('A' for Active; 'I' for Inactive)
REMARK    1  A    between atoms: C_1  and  C_2
REMARK    2  A    between atoms: C_5  and  C_6
REMARK    3  A    between atoms: C_6  and  N_7
REMARK    4  A    between atoms: N_7  and  C_8
REMARK    5  A    between atoms: N_7  and  C_15
REMARK    6  A    between atoms: C_8  and  C_9
REMARK    7  A    between atoms: N_18  and  C_19
REMARK                            x       y       z     vdW  Elec       q    Type
REMARK                         _______ _______ _______ _____ _____    ______ ____
ROOT
ATOM      1  N   UNL     1       3.356   6.825  18.312  0.00  0.00    +0.000 NA
ENDROOT
BRANCH   1   2
ATOM      2  C   UNL     1       2.634   8.071  18.720  0.00  0.00    +0.000 C 
ATOM      3  C   UNL     1       1.861   7.906  20.047  0.00  0.00    +0.000 C 
ATOM      4  C   UNL     1       1.132   9.195  20.442  0.00  0.00    +0.000 C 
ATOM      5  N   UNL     1       0.232   9.619  19.362  0.00  0.00    +0.000 NA
ATOM      6  C   UNL     1      -0.574  10.768  19.770  0.00  0.00    +0.000 C 
ATOM      7  C   UNL     1       0.995   9.927  18.150  0.00  0.00    +0.000 C 
ATOM      8  C   UNL     1       1.712   8.675  17.645  0.00  0.00    +0.000 C 
ENDBRANCH   1   2
BRANCH   1   9
ATOM      9  C   UNL     1       2.412   5.703  18.063  0.00  0.00    +0.000 C 
BRANCH   9  14
ATOM     10  C   UNL     1       1.514   2.241  22.018  0.00  0.00    +0.000 C 
ATOM     11  C   UNL     1       2.125   2.959  20.865  0.00  0.00    +0.000 A 
ATOM     12  C   UNL     1       3.178   2.569  20.064  0.00  0.00    +0.000 A 
ATOM     13  C   UNL     1       3.422   3.493  19.006  0.00  0.00    +0.000 A 
ATOM     14  C   UNL     1       2.542   4.555  19.030  0.00  0.00    +0.000 A 
ATOM     15  S   UNL     1       1.506   4.478  20.394  0.00  0.00    +0.000 S 
ENDBRANCH   9  14
ENDBRANCH   1   9
BRANCH   1  16
ATOM     16  C   UNL     1       4.228   7.037  17.131  0.00  0.00    +0.000 C 
BRANCH  16  17
ATOM     17  C   UNL     1       5.421   6.108  17.023  0.00  0.00    +0.000 A 
ATOM     18  C   UNL     1       5.768   5.515  15.807  0.00  0.00    +0.000 A 
ATOM     19  C   UNL     1       6.898   4.714  15.755  0.00  0.00    +0.000 A 
ATOM     20  N   UNL     1       7.698   4.466  16.818  0.00  0.00    +0.000 NA
ATOM     21  C   UNL     1       7.349   5.052  17.980  0.00  0.00    +0.000 A 
ATOM     22  C   UNL     1       6.240   5.870  18.132  0.00  0.00    +0.000 A 
ENDBRANCH  16  17
ENDBRANCH   1  16
TORSDOF 5
ENDMDL
MODEL 7
REMARK VINA RESULT:      -6.7      1.930      5.949
REMARK  Name = 
REMARK  7 active torsions:
REMARK  status: ('A' for Active; 'I' for Inactive)
REMARK    1  A    between atoms: C_1  and  C_2
REMARK    2  A    between atoms: C_5  and  C_6
REMARK    3  A    between atoms: C_6  and  N_7
REMARK    4  A    between atoms: N_7  and  C_8
REMARK    5  A    between atoms: N_7  and  C_15
REMARK    6  A    between atoms: C_8  and  C_9
REMARK    7  A    between atoms: N_18  and  C_19
REMARK                            x       y       z     vdW  Elec       q    Type
REMARK                         _______ _______ _______ _____ _____    ______ ____
ROOT
ATOM      1  N   UNL     1       2.684   6.775  18.713  0.00  0.00    +0.000 NA
ENDROOT
BRANCH   1   2
ATOM      2  C   UNL     1       4.136   6.523  18.444  0.00  0.00    +0.000 C 
ATOM      3  C   UNL     1       4.412   6.132  16.976  0.00  0.00    +0.000 C 
ATOM      4  C   UNL     1       5.902   5.881  16.727  0.00  0.00    +0.000 C 
ATOM      5  N   UNL     1       6.402   4.850  17.645  0.00  0.00    +0.000 NA
ATOM      6  C   UNL     1       7.785   4.495  17.336  0.00  0.00    +0.000 C 
ATOM      7  C   UNL     1       6.281   5.298  19.035  0.00  0.00    +0.000 C 
ATOM      8  C   UNL     1       4.811   5.517  19.394  0.00  0.00    +0.000 C 
ENDBRANCH   1   2
BRANCH   1   9
ATOM      9  C   UNL     1       2.287   8.154  18.325  0.00  0.00    +0.000 C 
BRANCH   9  14
ATOM     10  C   UNL     1      -0.019   9.659  22.892  0.00  0.00    +0.000 C 
ATOM     11  C   UNL     1       0.360   9.551  21.456  0.00  0.00    +0.000 A 
ATOM     12  C   UNL     1       0.055  10.404  20.415  0.00  0.00    +0.000 A 
ATOM     13  C   UNL     1       0.668  10.004  19.192  0.00  0.00    +0.000 A 
ATOM     14  C   UNL     1       1.429   8.862  19.340  0.00  0.00    +0.000 A 
ATOM     15  S   UNL     1       1.301   8.228  20.929  0.00  0.00    +0.000 S 
ENDBRANCH   9  14
ENDBRANCH   1   9
BRANCH   1  16
ATOM     16  C   UNL     1       1.805   5.780  18.052  0.00  0.00    +0.000 C 
BRANCH  16  17
ATOM     17  C   UNL     1       1.663   4.452  18.769  0.00  0.00    +0.000 A 
ATOM     18  C   UNL     1       1.302   4.393  20.118  0.00  0.00    +0.000 A 
ATOM     19  C   UNL     1       1.138   3.150  20.709  0.00  0.00    +0.000 A 
ATOM     20  N   UNL     1       1.305   1.976  20.058  0.00  0.00    +0.000 NA
ATOM     21  C   UNL     1       1.648   2.054  18.757  0.00  0.00    +0.000 A 
ATOM     22  C   UNL     1       1.833   3.248  18.077  0.00  0.00    +0.000 A 
ENDBRANCH  16  17
ENDBRANCH   1  16
TORSDOF 5
ENDMDL
MODEL 8
REMARK VINA RESULT:      -6.7      2.136      6.271
REMARK  Name = 
REMARK  7 active torsions:
REMARK  status: ('A' for Active; 'I' for Inactive)
REMARK    1  A    between atoms: C_1  and  C_2
REMARK    2  A    between atoms: C_5  and  C_6
REMARK    3  A    between atoms: C_6  and  N_7
REMARK    4  A    between atoms: N_7  and  C_8
REMARK    5  A    between atoms: N_7  and  C_15
REMARK    6  A    between atoms: C_8  and  C_9
REMARK    7  A    between atoms: N_18  and  C_19
REMARK                            x       y       z     vdW  Elec       q    Type
REMARK                         _______ _______ _______ _____ _____    ______ ____
ROOT
ATOM      1  N   UNL     1       3.055   6.350  18.530  0.00  0.00    +0.000 NA
ENDROOT
BRANCH   1   2
ATOM      2  C   UNL     1       4.279   5.937  17.774  0.00  0.00    +0.000 C 
ATOM      3  C   UNL     1       4.592   6.873  16.587  0.00  0.00    +0.000 C 
ATOM      4  C   UNL     1       5.848   6.428  15.831  0.00  0.00    +0.000 C 
ATOM      5  N   UNL     1       5.700   5.040  15.376  0.00  0.00    +0.000 NA
ATOM      6  C   UNL     1       6.827   4.638  14.536  0.00  0.00    +0.000 C 
ATOM      7  C   UNL     1       5.562   4.137  16.522  0.00  0.00    +0.000 C 
ATOM      8  C   UNL     1       4.293   4.470  17.307  0.00  0.00    +0.000 C 
ENDBRANCH   1   2
BRANCH   1   9
ATOM      9  C   UNL     1       2.599   7.710  18.134  0.00  0.00    +0.000 C 
BRANCH   9  14
ATOM     10  C   UNL     1      -0.799  11.018  20.571  0.00  0.00    +0.000 C 
ATOM     11  C   UNL     1       0.214   9.959  20.305  0.00  0.00    +0.000 A 
ATOM     12  C   UNL     1       0.691   8.985  21.157  0.00  0.00    +0.000 A 
ATOM     13  C   UNL     1       1.601   8.099  20.510  0.00  0.00    +0.000 A 
ATOM     14  C   UNL     1       1.784   8.422  19.181  0.00  0.00    +0.000 A 
ATOM     15  S   UNL     1       0.940   9.856  18.763  0.00  0.00    +0.000 S 
ENDBRANCH   9  14
ENDBRANCH   1   9
BRANCH   1  16
ATOM     16  C   UNL     1       1.946   5.375  18.392  0.00  0.00    +0.000 C 
BRANCH  16  17
ATOM     17  C   UNL     1       1.792   4.392  19.536  0.00  0.00    +0.000 A 
ATOM     18  C   UNL     1       1.076   3.203  19.376  0.00  0.00    +0.000 A 
ATOM     19  C   UNL     1       1.009   2.318  20.441  0.00  0.00    +0.000 A 
ATOM     20  N   UNL     1       1.600   2.531  21.639  0.00  0.00    +0.000 NA
ATOM     21  C   UNL     1       2.290   3.682  21.771  0.00  0.00    +0.000 A 
ATOM     22  C   UNL     1       2.416   4.627  20.765  0.00  0.00    +0.000 A 
ENDBRANCH  16  17
ENDBRANCH   1  16
TORSDOF 5
ENDMDL
MODEL 9
REMARK VINA RESULT:      -6.7      2.118      6.223
REMARK  Name = 
REMARK  7 active torsions:
REMARK  status: ('A' for Active; 'I' for Inactive)
REMARK    1  A    between atoms: C_1  and  C_2
REMARK    2  A    between atoms: C_5  and  C_6
REMARK    3  A    between atoms: C_6  and  N_7
REMARK    4  A    between atoms: N_7  and  C_8
REMARK    5  A    between atoms: N_7  and  C_15
REMARK    6  A    between atoms: C_8  and  C_9
REMARK    7  A    between atoms: N_18  and  C_19
REMARK                            x       y       z     vdW  Elec       q    Type
REMARK                         _______ _______ _______ _____ _____    ______ ____
ROOT
ATOM      1  N   UNL     1       2.699   6.708  18.652  0.00  0.00    +0.000 NA
ENDROOT
BRANCH   1   2
ATOM      2  C   UNL     1       4.152   6.467  18.383  0.00  0.00    +0.000 C 
ATOM      3  C   UNL     1       4.422   6.001  16.936  0.00  0.00    +0.000 C 
ATOM      4  C   UNL     1       5.915   5.762  16.687  0.00  0.00    +0.000 C 
ATOM      5  N   UNL     1       6.441   4.792  17.656  0.00  0.00    +0.000 NA
ATOM      6  C   UNL     1       7.828   4.445  17.353  0.00  0.00    +0.000 C 
ATOM      7  C   UNL     1       6.324   5.313  19.020  0.00  0.00    +0.000 C 
ATOM      8  C   UNL     1       4.854   5.526  19.380  0.00  0.00    +0.000 C 
ENDBRANCH   1   2
BRANCH   1   9
ATOM      9  C   UNL     1       2.275   8.059  18.199  0.00  0.00    +0.000 C 
BRANCH   9  14
ATOM     10  C   UNL     1      -0.990  11.586  20.508  0.00  0.00    +0.000 C 
ATOM     11  C   UNL     1      -0.028  10.473  20.281  0.00  0.00    +0.000 A 
ATOM     12  C   UNL     1       0.389   9.497  21.163  0.00  0.00    +0.000 A 
ATOM     13  C   UNL     1       1.264   8.553  20.550  0.00  0.00    +0.000 A 
ATOM     14  C   UNL     1       1.481   8.835  19.217  0.00  0.00    +0.000 A 
ATOM     15  S   UNL     1       0.715  10.298  18.754  0.00  0.00    +0.000 S 
ENDBRANCH   9  14
ENDBRANCH   1   9
BRANCH   1  16
ATOM     16  C   UNL     1       1.831   5.667  18.050  0.00  0.00    +0.000 C 
BRANCH  16  17
ATOM     17  C   UNL     1       1.665   4.400  18.865  0.00  0.00    +0.000 A 
ATOM     18  C   UNL     1       1.861   3.140  18.293  0.00  0.00    +0.000 A 
ATOM     19  C   UNL     1       1.744   2.018  19.099  0.00  0.00    +0.000 A 
ATOM     20  N   UNL     1       1.451   2.062  20.419  0.00  0.00    +0.000 NA
ATOM     21  C   UNL     1       1.271   3.287  20.953  0.00  0.00    +0.000 A 
ATOM     22  C   UNL     1       1.369   4.466  20.231  0.00  0.00    +0.000 A 
ENDBRANCH  16  17
ENDBRANCH   1  16
TORSDOF 5
ENDMDL
