MODEL 1
REMARK VINA RESULT:      -7.1      0.000      0.000
REMARK  Name = 
REMARK  8 active torsions:
REMARK  status: ('A' for Active; 'I' for Inactive)
REMARK    1  A    between atoms: C_1  and  N_2
REMARK    2  A    between atoms: N_2  and  C_3
REMARK    3  A    between atoms: N_2  and  C_18
REMARK    4  A    between atoms: C_3  and  C_4
REMARK    5  A    between atoms: C_4  and  C_5
REMARK    6  A    between atoms: C_5  and  N_6
REMARK    7  A    between atoms: N_9  and  C_10
REMARK    8  A    between atoms: C_22  and  O_23
REMARK                            x       y       z     vdW  Elec       q    Type
REMARK                         _______ _______ _______ _____ _____    ______ ____
ROOT
ATOM      1  C   UNL     1       3.271   3.397  18.283  0.00  0.00    +0.000 C 
ENDROOT
BRANCH   1   2
ATOM      2  N   UNL     1       1.948   3.988  18.545  0.00  0.00    +0.000 NA
ATOM      3  C   UNL     1       1.755   4.376  19.964  0.00  0.00    +0.000 C 
ATOM      4  C   UNL     1       2.640   5.549  20.432  0.00  0.00    +0.000 C 
ATOM      5  N   UNL     1       2.476   6.722  19.562  0.00  0.00    +0.000 N 
ATOM      6  C   UNL     1       2.558   6.450  18.113  0.00  0.00    +0.000 C 
ATOM      7  C   UNL     1       1.731   5.199  17.715  0.00  0.00    +0.000 C 
BRANCH   5   8
ATOM      8  C   UNL     1       1.756   7.830  19.985  0.00  0.00    +0.000 A 
ATOM      9  C   UNL     1       1.180   7.842  21.265  0.00  0.00    +0.000 A 
ATOM     10  C   UNL     1       0.401   8.914  21.713  0.00  0.00    +0.000 A 
ATOM     11  C   UNL     1       0.181  10.007  20.884  0.00  0.00    +0.000 A 
ATOM     12  C   UNL     1       0.746  10.027  19.613  0.00  0.00    +0.000 A 
ATOM     13  C   UNL     1       1.521   8.948  19.172  0.00  0.00    +0.000 A 
ENDBRANCH   5   8
ENDBRANCH   1   2
BRANCH   1  14
ATOM     14  C   UNL     1       3.895   3.836  16.952  0.00  0.00    +0.000 C 
BRANCH  14  15
ATOM     15  C   UNL     1       5.284   3.231  16.740  0.00  0.00    +0.000 C 
BRANCH  15  17
ATOM     16  C   UNL     1       6.238   4.395  14.745  0.00  0.00    +0.000 C 
ATOM     17  N   UNL     1       6.205   4.230  16.191  0.00  0.00    +0.000 N 
BRANCH  17  18
ATOM     18  C   UNL     1       6.787   5.173  17.032  0.00  0.00    +0.000 A 
ATOM     19  C   UNL     1       7.041   6.489  16.617  0.00  0.00    +0.000 A 
ATOM     20  C   UNL     1       7.641   7.430  17.467  0.00  0.00    +0.000 A 
ATOM     21  C   UNL     1       8.029   7.065  18.751  0.00  0.00    +0.000 A 
ATOM     22  C   UNL     1       7.793   5.769  19.176  0.00  0.00    +0.000 A 
ATOM     23  C   UNL     1       7.171   4.845  18.341  0.00  0.00    +0.000 A 
BRANCH  22  24
ATOM     24  O   UNL     1       8.170   5.344  20.418  0.00  0.00    +0.000 OA
ATOM     25  H   UNL     1       8.153   4.373  20.429  0.00  0.00    +0.000 HD
ENDBRANCH  22  24
ENDBRANCH  17  18
ENDBRANCH  15  17
ENDBRANCH  14  15
ENDBRANCH   1  14
TORSDOF 7
ENDMDL
MODEL 2
REMARK VINA RESULT:      -7.1      4.589      7.066
REMARK  Name = 
REMARK  8 active torsions:
REMARK  status: ('A' for Active; 'I' for Inactive)
REMARK    1  A    between atoms: C_1  and  N_2
REMARK    2  A    between atoms: N_2  and  C_3
REMARK    3  A    between atoms: N_2  and  C_18
REMARK    4  A    between atoms: C_3  and  C_4
REMARK    5  A    between atoms: C_4  and  C_5
REMARK    6  A    between atoms: C_5  and  N_6
REMARK    7  A    between atoms: N_9  and  C_10
REMARK    8  A    between atoms: C_22  and  O_23
REMARK                            x       y       z     vdW  Elec       q    Type
REMARK                         _______ _______ _______ _____ _____    ______ ____
ROOT
ATOM      1  C   UNL     1       7.091   8.291  17.861  0.00  0.00    +0.000 C 
ENDROOT
BRANCH   1   2
ATOM      2  N   UNL     1       7.027   6.975  17.204  0.00  0.00    +0.000 NA
ATOM      3  C   UNL     1       7.278   5.847  18.134  0.00  0.00    +0.000 C 
ATOM      4  C   UNL     1       6.180   5.639  19.196  0.00  0.00    +0.000 C 
ATOM      5  N   UNL     1       4.856   5.495  18.574  0.00  0.00    +0.000 N 
ATOM      6  C   UNL     1       4.522   6.513  17.558  0.00  0.00    +0.000 C 
ATOM      7  C   UNL     1       5.700   6.755  16.578  0.00  0.00    +0.000 C 
BRANCH   5   8
ATOM      8  C   UNL     1       4.234   4.257  18.498  0.00  0.00    +0.000 A 
ATOM      9  C   UNL     1       4.543   3.260  19.437  0.00  0.00    +0.000 A 
ATOM     10  C   UNL     1       3.981   1.981  19.367  0.00  0.00    +0.000 A 
ATOM     11  C   UNL     1       3.089   1.670  18.348  0.00  0.00    +0.000 A 
ATOM     12  C   UNL     1       2.757   2.640  17.407  0.00  0.00    +0.000 A 
ATOM     13  C   UNL     1       3.327   3.915  17.484  0.00  0.00    +0.000 A 
ENDBRANCH   5   8
ENDBRANCH   1   2
BRANCH   1  14
ATOM     14  C   UNL     1       8.517   8.760  18.177  0.00  0.00    +0.000 C 
BRANCH  14  15
ATOM     15  C   UNL     1       8.724  10.239  17.847  0.00  0.00    +0.000 C 
BRANCH  15  17
ATOM     16  C   UNL     1       9.179  10.377  20.301  0.00  0.00    +0.000 C 
ATOM     17  N   UNL     1       9.362  10.935  18.969  0.00  0.00    +0.000 N 
BRANCH  17  18
ATOM     18  C   UNL     1      10.335  11.898  18.724  0.00  0.00    +0.000 A 
ATOM     19  C   UNL     1      10.906  12.662  19.753  0.00  0.00    +0.000 A 
ATOM     20  C   UNL     1      11.877  13.641  19.496  0.00  0.00    +0.000 A 
ATOM     21  C   UNL     1      12.283  13.899  18.191  0.00  0.00    +0.000 A 
ATOM     22  C   UNL     1      11.726  13.159  17.162  0.00  0.00    +0.000 A 
ATOM     23  C   UNL     1      10.784  12.168  17.422  0.00  0.00    +0.000 A 
BRANCH  22  24
ATOM     24  O   UNL     1      12.067  13.378  15.858  0.00  0.00    +0.000 OA
ATOM     25  H   UNL     1      12.989  13.102  15.731  0.00  0.00    +0.000 HD
ENDBRANCH  22  24
ENDBRANCH  17  18
ENDBRANCH  15  17
ENDBRANCH  14  15
ENDBRANCH   1  14
TORSDOF 7
ENDMDL
MODEL 3
REMARK VINA RESULT:      -7.0      2.393      7.583
REMARK  Name = 
REMARK  8 active torsions:
REMARK  status: ('A' for Active; 'I' for Inactive)
REMARK    1  A    between atoms: C_1  and  N_2
REMARK    2  A    between atoms: N_2  and  C_3
REMARK    3  A    between atoms: N_2  and  C_18
REMARK    4  A    between atoms: C_3  and  C_4
REMARK    5  A    between atoms: C_4  and  C_5
REMARK    6  A    between atoms: C_5  and  N_6
REMARK    7  A    between atoms: N_9  and  C_10
REMARK    8  A    between atoms: C_22  and  O_23
REMARK                            x       y       z     vdW  Elec       q    Type
REMARK                         _______ _______ _______ _____ _____    ______ ____
ROOT
ATOM      1  C   UNL     1       5.498   5.299  19.295  0.00  0.00    +0.000 C 
ENDROOT
BRANCH   1   2
ATOM      2  N   UNL     1       6.059   4.224  18.458  0.00  0.00    +0.000 NA
ATOM      3  C   UNL     1       5.100   3.714  17.447  0.00  0.00    +0.000 C 
ATOM      4  C   UNL     1       4.745   4.723  16.337  0.00  0.00    +0.000 C 
ATOM      5  N   UNL     1       5.953   5.234  15.674  0.00  0.00    +0.000 N 
ATOM      6  C   UNL     1       7.025   5.693  16.580  0.00  0.00    +0.000 C 
ATOM      7  C   UNL     1       7.270   4.687  17.736  0.00  0.00    +0.000 C 
BRANCH   5   8
ATOM      8  C   UNL     1       6.303   4.809  14.400  0.00  0.00    +0.000 A 
ATOM      9  C   UNL     1       5.510   3.856  13.739  0.00  0.00    +0.000 A 
ATOM     10  C   UNL     1       5.854   3.358  12.478  0.00  0.00    +0.000 A 
ATOM     11  C   UNL     1       7.007   3.807  11.845  0.00  0.00    +0.000 A 
ATOM     12  C   UNL     1       7.808   4.757  12.472  0.00  0.00    +0.000 A 
ATOM     13  C   UNL     1       7.457   5.246  13.735  0.00  0.00    +0.000 A 
ENDBRANCH   5   8
ENDBRANCH   1   2
BRANCH   1  14
ATOM     14  C   UNL     1       3.986   5.185  19.523  0.00  0.00    +0.000 C 
BRANCH  14  15
ATOM     15  C   UNL     1       3.251   6.477  19.164  0.00  0.00    +0.000 C 
BRANCH  15  17
ATOM     16  C   UNL     1       1.637   5.518  20.815  0.00  0.00    +0.000 C 
ATOM     17  N   UNL     1       2.073   6.656  20.018  0.00  0.00    +0.000 N 
BRANCH  17  18
ATOM     18  C   UNL     1       1.590   7.935  20.275  0.00  0.00    +0.000 A 
ATOM     19  C   UNL     1       1.443   8.896  19.264  0.00  0.00    +0.000 A 
ATOM     20  C   UNL     1       0.968  10.188  19.535  0.00  0.00    +0.000 A 
ATOM     21  C   UNL     1       0.652  10.559  20.837  0.00  0.00    +0.000 A 
ATOM     22  C   UNL     1       0.797   9.626  21.850  0.00  0.00    +0.000 A 
ATOM     23  C   UNL     1       1.241   8.335  21.575  0.00  0.00    +0.000 A 
BRANCH  22  24
ATOM     24  O   UNL     1       0.524   9.935  23.151  0.00  0.00    +0.000 OA
ATOM     25  H   UNL     1       1.274  10.434  23.513  0.00  0.00    +0.000 HD
ENDBRANCH  22  24
ENDBRANCH  17  18
ENDBRANCH  15  17
ENDBRANCH  14  15
ENDBRANCH   1  14
TORSDOF 7
ENDMDL
MODEL 4
REMARK VINA RESULT:      -7.0      4.378      6.925
REMARK  Name = 
REMARK  8 active torsions:
REMARK  status: ('A' for Active; 'I' for Inactive)
REMARK    1  A    between atoms: C_1  and  N_2
REMARK    2  A    between atoms: N_2  and  C_3
REMARK    3  A    between atoms: N_2  and  C_18
REMARK    4  A    between atoms: C_3  and  C_4
REMARK    5  A    between atoms: C_4  and  C_5
REMARK    6  A    between atoms: C_5  and  N_6
REMARK    7  A    between atoms: N_9  and  C_10
REMARK    8  A    between atoms: C_22  and  O_23
REMARK                            x       y       z     vdW  Elec       q    Type
REMARK                         _______ _______ _______ _____ _____    ______ ____
ROOT
ATOM      1  C   UNL     1       7.542   7.569  17.194  0.00  0.00    +0.000 C 
ENDROOT
BRANCH   1   2
ATOM      2  N   UNL     1       7.615   6.142  17.550  0.00  0.00    +0.000 NA
ATOM      3  C   UNL     1       7.007   5.840  18.869  0.00  0.00    +0.000 C 
ATOM      4  C   UNL     1       5.477   6.025  18.924  0.00  0.00    +0.000 C 
ATOM      5  N   UNL     1       4.807   5.248  17.871  0.00  0.00    +0.000 N 
ATOM      6  C   UNL     1       5.380   5.395  16.518  0.00  0.00    +0.000 C 
ATOM      7  C   UNL     1       6.929   5.303  16.536  0.00  0.00    +0.000 C 
BRANCH   5   8
ATOM      8  C   UNL     1       4.116   4.084  18.172  0.00  0.00    +0.000 A 
ATOM      9  C   UNL     1       4.577   3.241  19.196  0.00  0.00    +0.000 A 
ATOM     10  C   UNL     1       3.943   2.031  19.497  0.00  0.00    +0.000 A 
ATOM     11  C   UNL     1       2.824   1.636  18.776  0.00  0.00    +0.000 A 
ATOM     12  C   UNL     1       2.338   2.454  17.760  0.00  0.00    +0.000 A 
ATOM     13  C   UNL     1       2.982   3.661  17.464  0.00  0.00    +0.000 A 
ENDBRANCH   5   8
ENDBRANCH   1   2
BRANCH   1  14
ATOM     14  C   UNL     1       8.165   8.504  18.238  0.00  0.00    +0.000 C 
BRANCH  14  15
ATOM     15  C   UNL     1       8.327   9.930  17.711  0.00  0.00    +0.000 C 
BRANCH  15  17
ATOM     16  C   UNL     1       9.307  10.186  19.997  0.00  0.00    +0.000 C 
ATOM     17  N   UNL     1       9.017  10.770  18.694  0.00  0.00    +0.000 N 
BRANCH  17  18
ATOM     18  C   UNL     1       9.627  11.953  18.290  0.00  0.00    +0.000 A 
ATOM     19  C   UNL     1       9.208  13.208  18.758  0.00  0.00    +0.000 A 
ATOM     20  C   UNL     1       9.820  14.397  18.335  0.00  0.00    +0.000 A 
ATOM     21  C   UNL     1      10.855  14.359  17.407  0.00  0.00    +0.000 A 
ATOM     22  C   UNL     1      11.278  13.131  16.929  0.00  0.00    +0.000 A 
ATOM     23  C   UNL     1      10.689  11.950  17.372  0.00  0.00    +0.000 A 
BRANCH  22  24
ATOM     24  O   UNL     1      12.275  13.029  16.001  0.00  0.00    +0.000 OA
ATOM     25  H   UNL     1      12.036  13.571  15.233  0.00  0.00    +0.000 HD
ENDBRANCH  22  24
ENDBRANCH  17  18
ENDBRANCH  15  17
ENDBRANCH  14  15
ENDBRANCH   1  14
TORSDOF 7
ENDMDL
MODEL 5
REMARK VINA RESULT:      -7.0      0.784      1.264
REMARK  Name = 
REMARK  8 active torsions:
REMARK  status: ('A' for Active; 'I' for Inactive)
REMARK    1  A    between atoms: C_1  and  N_2
REMARK    2  A    between atoms: N_2  and  C_3
REMARK    3  A    between atoms: N_2  and  C_18
REMARK    4  A    between atoms: C_3  and  C_4
REMARK    5  A    between atoms: C_4  and  C_5
REMARK    6  A    between atoms: C_5  and  N_6
REMARK    7  A    between atoms: N_9  and  C_10
REMARK    8  A    between atoms: C_22  and  O_23
REMARK                            x       y       z     vdW  Elec       q    Type
REMARK                         _______ _______ _______ _____ _____    ______ ____
ROOT
ATOM      1  C   UNL     1       4.059   3.084  18.239  0.00  0.00    +0.000 C 
ENDROOT
BRANCH   1   2
ATOM      2  N   UNL     1       2.770   3.532  18.794  0.00  0.00    +0.000 NA
ATOM      3  C   UNL     1       2.912   4.262  20.077  0.00  0.00    +0.000 C 
ATOM      4  C   UNL     1       3.612   5.630  19.961  0.00  0.00    +0.000 C 
ATOM      5  N   UNL     1       2.950   6.486  18.966  0.00  0.00    +0.000 N 
ATOM      6  C   UNL     1       2.672   5.843  17.666  0.00  0.00    +0.000 C 
ATOM      7  C   UNL     1       2.062   4.427  17.844  0.00  0.00    +0.000 C 
BRANCH   5   8
ATOM      8  C   UNL     1       2.156   7.554  19.357  0.00  0.00    +0.000 A 
ATOM      9  C   UNL     1       1.920   8.613  18.465  0.00  0.00    +0.000 A 
ATOM     10  C   UNL     1       1.171   9.735  18.835  0.00  0.00    +0.000 A 
ATOM     11  C   UNL     1       0.637   9.822  20.114  0.00  0.00    +0.000 A 
ATOM     12  C   UNL     1       0.848   8.785  21.018  0.00  0.00    +0.000 A 
ATOM     13  C   UNL     1       1.601   7.668  20.639  0.00  0.00    +0.000 A 
ENDBRANCH   5   8
ENDBRANCH   1   2
BRANCH   1  14
ATOM     14  C   UNL     1       4.249   3.425  16.755  0.00  0.00    +0.000 C 
BRANCH  14  15
ATOM     15  C   UNL     1       5.725   3.576  16.384  0.00  0.00    +0.000 C 
BRANCH  15  17
ATOM     16  C   UNL     1       5.347   5.596  14.960  0.00  0.00    +0.000 C 
ATOM     17  N   UNL     1       6.040   4.975  16.080  0.00  0.00    +0.000 N 
BRANCH  17  18
ATOM     18  C   UNL     1       6.739   5.746  17.004  0.00  0.00    +0.000 A 
ATOM     19  C   UNL     1       7.139   7.062  16.729  0.00  0.00    +0.000 A 
ATOM     20  C   UNL     1       7.854   7.827  17.662  0.00  0.00    +0.000 A 
ATOM     21  C   UNL     1       8.213   7.279  18.889  0.00  0.00    +0.000 A 
ATOM     22  C   UNL     1       7.833   5.979  19.175  0.00  0.00    +0.000 A 
ATOM     23  C   UNL     1       7.097   5.231  18.260  0.00  0.00    +0.000 A 
BRANCH  22  24
ATOM     24  O   UNL     1       8.172   5.378  20.353  0.00  0.00    +0.000 OA
ATOM     25  H   UNL     1       8.858   5.912  20.784  0.00  0.00    +0.000 HD
ENDBRANCH  22  24
ENDBRANCH  17  18
ENDBRANCH  15  17
ENDBRANCH  14  15
ENDBRANCH   1  14
TORSDOF 7
ENDMDL
MODEL 6
REMARK VINA RESULT:      -6.9      4.348      6.777
REMARK  Name = 
REMARK  8 active torsions:
REMARK  status: ('A' for Active; 'I' for Inactive)
REMARK    1  A    between atoms: C_1  and  N_2
REMARK    2  A    between atoms: N_2  and  C_3
REMARK    3  A    between atoms: N_2  and  C_18
REMARK    4  A    between atoms: C_3  and  C_4
REMARK    5  A    between atoms: C_4  and  C_5
REMARK    6  A    between atoms: C_5  and  N_6
REMARK    7  A    between atoms: N_9  and  C_10
REMARK    8  A    between atoms: C_22  and  O_23
REMARK                            x       y       z     vdW  Elec       q    Type
REMARK                         _______ _______ _______ _____ _____    ______ ____
ROOT
ATOM      1  C   UNL     1       7.519   7.426  17.025  0.00  0.00    +0.000 C 
ENDROOT
BRANCH   1   2
ATOM      2  N   UNL     1       7.391   6.024  17.457  0.00  0.00    +0.000 NA
ATOM      3  C   UNL     1       6.601   5.869  18.703  0.00  0.00    +0.000 C 
ATOM      4  C   UNL     1       5.105   6.213  18.558  0.00  0.00    +0.000 C 
ATOM      5  N   UNL     1       4.484   5.447  17.468  0.00  0.00    +0.000 N 
ATOM      6  C   UNL     1       5.225   5.450  16.192  0.00  0.00    +0.000 C 
ATOM      7  C   UNL     1       6.741   5.200  16.408  0.00  0.00    +0.000 C 
BRANCH   5   8
ATOM      8  C   UNL     1       3.637   4.381  17.737  0.00  0.00    +0.000 A 
ATOM      9  C   UNL     1       4.148   3.073  17.771  0.00  0.00    +0.000 A 
ATOM     10  C   UNL     1       3.323   1.964  17.983  0.00  0.00    +0.000 A 
ATOM     11  C   UNL     1       1.958   2.140  18.170  0.00  0.00    +0.000 A 
ATOM     12  C   UNL     1       1.423   3.425  18.150  0.00  0.00    +0.000 A 
ATOM     13  C   UNL     1       2.257   4.528  17.933  0.00  0.00    +0.000 A 
ENDBRANCH   5   8
ENDBRANCH   1   2
BRANCH   1  14
ATOM     14  C   UNL     1       8.200   8.335  18.056  0.00  0.00    +0.000 C 
BRANCH  14  15
ATOM     15  C   UNL     1       8.222   9.797  17.610  0.00  0.00    +0.000 C 
BRANCH  15  17
ATOM     16  C   UNL     1       9.229  10.053  19.883  0.00  0.00    +0.000 C 
ATOM     17  N   UNL     1       8.966  10.620  18.568  0.00  0.00    +0.000 N 
BRANCH  17  18
ATOM     18  C   UNL     1       9.642  11.755  18.131  0.00  0.00    +0.000 A 
ATOM     19  C   UNL     1      10.956  11.701  17.643  0.00  0.00    +0.000 A 
ATOM     20  C   UNL     1      11.634  12.853  17.217  0.00  0.00    +0.000 A 
ATOM     21  C   UNL     1      11.018  14.097  17.296  0.00  0.00    +0.000 A 
ATOM     22  C   UNL     1       9.723  14.170  17.781  0.00  0.00    +0.000 A 
ATOM     23  C   UNL     1       9.042  13.023  18.175  0.00  0.00    +0.000 A 
BRANCH  22  24
ATOM     24  O   UNL     1       9.072  15.364  17.901  0.00  0.00    +0.000 OA
ATOM     25  H   UNL     1       8.341  15.382  17.262  0.00  0.00    +0.000 HD
ENDBRANCH  22  24
ENDBRANCH  17  18
ENDBRANCH  15  17
ENDBRANCH  14  15
ENDBRANCH   1  14
TORSDOF 7
ENDMDL
MODEL 7
REMARK VINA RESULT:      -6.8      0.734      1.269
REMARK  Name = 
REMARK  8 active torsions:
REMARK  status: ('A' for Active; 'I' for Inactive)
REMARK    1  A    between atoms: C_1  and  N_2
REMARK    2  A    between atoms: N_2  and  C_3
REMARK    3  A    between atoms: N_2  and  C_18
REMARK    4  A    between atoms: C_3  and  C_4
REMARK    5  A    between atoms: C_4  and  C_5
REMARK    6  A    between atoms: C_5  and  N_6
REMARK    7  A    between atoms: N_9  and  C_10
REMARK    8  A    between atoms: C_22  and  O_23
REMARK                            x       y       z     vdW  Elec       q    Type
REMARK                         _______ _______ _______ _____ _____    ______ ____
ROOT
ATOM      1  C   UNL     1       3.347   4.569  18.361  0.00  0.00    +0.000 C 
ENDROOT
BRANCH   1   2
ATOM      2  N   UNL     1       1.960   5.035  18.526  0.00  0.00    +0.000 NA
ATOM      3  C   UNL     1       1.537   5.114  19.945  0.00  0.00    +0.000 C 
ATOM      4  C   UNL     1       2.257   6.203  20.766  0.00  0.00    +0.000 C 
ATOM      5  N   UNL     1       2.132   7.522  20.129  0.00  0.00    +0.000 N 
ATOM      6  C   UNL     1       2.441   7.557  18.686  0.00  0.00    +0.000 C 
ATOM      7  C   UNL     1       1.774   6.380  17.927  0.00  0.00    +0.000 C 
BRANCH   5   8
ATOM      8  C   UNL     1       1.279   8.486  20.645  0.00  0.00    +0.000 A 
ATOM      9  C   UNL     1       0.775   9.495  19.808  0.00  0.00    +0.000 A 
ATOM     10  C   UNL     1      -0.043  10.519  20.296  0.00  0.00    +0.000 A 
ATOM     11  C   UNL     1      -0.380  10.555  21.644  0.00  0.00    +0.000 A 
ATOM     12  C   UNL     1       0.098   9.565  22.497  0.00  0.00    +0.000 A 
ATOM     13  C   UNL     1       0.919   8.547  21.999  0.00  0.00    +0.000 A 
ENDBRANCH   5   8
ENDBRANCH   1   2
BRANCH   1  14
ATOM     14  C   UNL     1       3.871   4.674  16.923  0.00  0.00    +0.000 C 
BRANCH  14  15
ATOM     15  C   UNL     1       4.927   3.612  16.616  0.00  0.00    +0.000 C 
BRANCH  15  17
ATOM     16  C   UNL     1       6.632   4.081  14.848  0.00  0.00    +0.000 C 
ATOM     17  N   UNL     1       6.194   4.239  16.228  0.00  0.00    +0.000 N 
BRANCH  17  18
ATOM     18  C   UNL     1       6.784   5.185  17.061  0.00  0.00    +0.000 A 
ATOM     19  C   UNL     1       7.033   6.500  16.640  0.00  0.00    +0.000 A 
ATOM     20  C   UNL     1       7.640   7.444  17.482  0.00  0.00    +0.000 A 
ATOM     21  C   UNL     1       8.039   7.083  18.764  0.00  0.00    +0.000 A 
ATOM     22  C   UNL     1       7.808   5.787  19.195  0.00  0.00    +0.000 A 
ATOM     23  C   UNL     1       7.179   4.861  18.368  0.00  0.00    +0.000 A 
BRANCH  22  24
ATOM     24  O   UNL     1       8.196   5.366  20.434  0.00  0.00    +0.000 OA
ATOM     25  H   UNL     1       8.564   4.471  20.354  0.00  0.00    +0.000 HD
ENDBRANCH  22  24
ENDBRANCH  17  18
ENDBRANCH  15  17
ENDBRANCH  14  15
ENDBRANCH   1  14
TORSDOF 7
ENDMDL
MODEL 8
REMARK VINA RESULT:      -6.8      2.432      7.484
REMARK  Name = 
REMARK  8 active torsions:
REMARK  status: ('A' for Active; 'I' for Inactive)
REMARK    1  A    between atoms: C_1  and  N_2
REMARK    2  A    between atoms: N_2  and  C_3
REMARK    3  A    between atoms: N_2  and  C_18
REMARK    4  A    between atoms: C_3  and  C_4
REMARK    5  A    between atoms: C_4  and  C_5
REMARK    6  A    between atoms: C_5  and  N_6
REMARK    7  A    between atoms: N_9  and  C_10
REMARK    8  A    between atoms: C_22  and  O_23
REMARK                            x       y       z     vdW  Elec       q    Type
REMARK                         _______ _______ _______ _____ _____    ______ ____
ROOT
ATOM      1  C   UNL     1       4.807   6.000  18.821  0.00  0.00    +0.000 C 
ENDROOT
BRANCH   1   2
ATOM      2  N   UNL     1       6.068   5.757  18.100  0.00  0.00    +0.000 NA
ATOM      3  C   UNL     1       6.213   4.356  17.636  0.00  0.00    +0.000 C 
ATOM      4  C   UNL     1       5.221   3.943  16.530  0.00  0.00    +0.000 C 
ATOM      5  N   UNL     1       5.286   4.863  15.385  0.00  0.00    +0.000 N 
ATOM      6  C   UNL     1       5.241   6.299  15.725  0.00  0.00    +0.000 C 
ATOM      7  C   UNL     1       6.182   6.638  16.911  0.00  0.00    +0.000 C 
BRANCH   5   8
ATOM      8  C   UNL     1       5.898   4.485  14.199  0.00  0.00    +0.000 A 
ATOM      9  C   UNL     1       7.107   5.087  13.813  0.00  0.00    +0.000 A 
ATOM     10  C   UNL     1       7.731   4.777  12.600  0.00  0.00    +0.000 A 
ATOM     11  C   UNL     1       7.156   3.849  11.741  0.00  0.00    +0.000 A 
ATOM     12  C   UNL     1       5.963   3.229  12.100  0.00  0.00    +0.000 A 
ATOM     13  C   UNL     1       5.344   3.549  13.314  0.00  0.00    +0.000 A 
ENDBRANCH   5   8
ENDBRANCH   1   2
BRANCH   1  14
ATOM     14  C   UNL     1       3.911   7.059  18.167  0.00  0.00    +0.000 C 
BRANCH  14  15
ATOM     15  C   UNL     1       2.426   6.719  18.298  0.00  0.00    +0.000 C 
BRANCH  15  17
ATOM     16  C   UNL     1       1.705   7.417  20.587  0.00  0.00    +0.000 C 
ATOM     17  N   UNL     1       2.100   6.350  19.679  0.00  0.00    +0.000 N 
BRANCH  17  18
ATOM     18  C   UNL     1       1.890   5.015  20.009  0.00  0.00    +0.000 A 
ATOM     19  C   UNL     1       2.189   4.504  21.281  0.00  0.00    +0.000 A 
ATOM     20  C   UNL     1       1.987   3.154  21.601  0.00  0.00    +0.000 A 
ATOM     21  C   UNL     1       1.503   2.271  20.641  0.00  0.00    +0.000 A 
ATOM     22  C   UNL     1       1.209   2.756  19.378  0.00  0.00    +0.000 A 
ATOM     23  C   UNL     1       1.383   4.103  19.071  0.00  0.00    +0.000 A 
BRANCH  22  24
ATOM     24  O   UNL     1       0.751   1.937  18.387  0.00  0.00    +0.000 OA
ATOM     25  H   UNL     1       1.444   1.853  17.712  0.00  0.00    +0.000 HD
ENDBRANCH  22  24
ENDBRANCH  17  18
ENDBRANCH  15  17
ENDBRANCH  14  15
ENDBRANCH   1  14
TORSDOF 7
ENDMDL
MODEL 9
REMARK VINA RESULT:      -6.8      3.392      5.968
REMARK  Name = 
REMARK  8 active torsions:
REMARK  status: ('A' for Active; 'I' for Inactive)
REMARK    1  A    between atoms: C_1  and  N_2
REMARK    2  A    between atoms: N_2  and  C_3
REMARK    3  A    between atoms: N_2  and  C_18
REMARK    4  A    between atoms: C_3  and  C_4
REMARK    5  A    between atoms: C_4  and  C_5
REMARK    6  A    between atoms: C_5  and  N_6
REMARK    7  A    between atoms: N_9  and  C_10
REMARK    8  A    between atoms: C_22  and  O_23
REMARK                            x       y       z     vdW  Elec       q    Type
REMARK                         _______ _______ _______ _____ _____    ______ ____
ROOT
ATOM      1  C   UNL     1       1.348   9.788  18.682  0.00  0.00    +0.000 C 
ENDROOT
BRANCH   1   2
ATOM      2  N   UNL     1      -0.013   9.488  19.160  0.00  0.00    +0.000 NA
ATOM      3  C   UNL     1      -0.116   9.457  20.639  0.00  0.00    +0.000 C 
ATOM      4  C   UNL     1       0.082  10.824  21.322  0.00  0.00    +0.000 C 
ATOM      5  N   UNL     1      -0.835  11.834  20.774  0.00  0.00    +0.000 N 
ATOM      6  C   UNL     1      -0.889  11.902  19.300  0.00  0.00    +0.000 C 
ATOM      7  C   UNL     1      -0.986  10.491  18.662  0.00  0.00    +0.000 C 
BRANCH   5   8
ATOM      8  C   UNL     1      -1.939  12.262  21.495  0.00  0.00    +0.000 A 
ATOM      9  C   UNL     1      -2.060  11.928  22.854  0.00  0.00    +0.000 A 
ATOM     10  C   UNL     1      -3.182  12.292  23.606  0.00  0.00    +0.000 A 
ATOM     11  C   UNL     1      -4.214  13.006  23.012  0.00  0.00    +0.000 A 
ATOM     12  C   UNL     1      -4.120  13.359  21.669  0.00  0.00    +0.000 A 
ATOM     13  C   UNL     1      -2.995  12.987  20.924  0.00  0.00    +0.000 A 
ENDBRANCH   5   8
ENDBRANCH   1   2
BRANCH   1  14
ATOM     14  C   UNL     1       2.006   8.634  17.915  0.00  0.00    +0.000 C 
BRANCH  14  15
ATOM     15  C   UNL     1       2.387   7.474  18.836  0.00  0.00    +0.000 C 
BRANCH  15  17
ATOM     16  C   UNL     1       4.246   6.674  17.368  0.00  0.00    +0.000 C 
ATOM     17  N   UNL     1       3.003   6.386  18.070  0.00  0.00    +0.000 N 
BRANCH  17  18
ATOM     18  C   UNL     1       2.575   5.076  18.258  0.00  0.00    +0.000 A 
ATOM     19  C   UNL     1       2.884   4.051  17.352  0.00  0.00    +0.000 A 
ATOM     20  C   UNL     1       2.437   2.735  17.543  0.00  0.00    +0.000 A 
ATOM     21  C   UNL     1       1.642   2.418  18.639  0.00  0.00    +0.000 A 
ATOM     22  C   UNL     1       1.321   3.419  19.541  0.00  0.00    +0.000 A 
ATOM     23  C   UNL     1       1.790   4.717  19.365  0.00  0.00    +0.000 A 
BRANCH  22  24
ATOM     24  O   UNL     1       0.527   3.176  20.625  0.00  0.00    +0.000 OA
ATOM     25  H   UNL     1       0.875   3.679  21.379  0.00  0.00    +0.000 HD
ENDBRANCH  22  24
ENDBRANCH  17  18
ENDBRANCH  15  17
ENDBRANCH  14  15
ENDBRANCH   1  14
TORSDOF 7
ENDMDL
