MODEL 1
REMARK VINA RESULT:      -5.6      0.000      0.000
REMARK  Name = 
REMARK  5 active torsions:
REMARK  status: ('A' for Active; 'I' for Inactive)
REMARK    1  A    between atoms: C_2  and  C_3
REMARK    2  A    between atoms: C_3  and  C_4
REMARK    3  A    between atoms: C_4  and  C_5
REMARK    4  A    between atoms: C_10  and  C_11
REMARK    5  A    between atoms: C_11  and  O_13
REMARK                            x       y       z     vdW  Elec       q    Type
REMARK                         _______ _______ _______ _____ _____    ______ ____
ROOT
ATOM      1  C   UNL     1       5.058   5.634  16.917  0.00  0.00    +0.000 C 
ATOM      2  C   UNL     1       5.187   6.000  15.425  0.00  0.00    +0.000 C 
ATOM      3  C   UNL     1       6.138   5.064  14.686  0.00  0.00    +0.000 C 
ATOM      4  N   UNL     1       7.463   5.057  15.303  0.00  0.00    +0.000 NA
ATOM      5  C   UNL     1       7.376   4.618  16.697  0.00  0.00    +0.000 C 
ATOM      6  C   UNL     1       6.472   5.526  17.544  0.00  0.00    +0.000 C 
ATOM      7  H   UNL     1       7.861   5.995  15.253  0.00  0.00    +0.000 HD
ENDROOT
BRANCH   6   8
ATOM      8  C   UNL     1       6.441   4.937  18.941  0.00  0.00    +0.000 C 
ATOM      9  O   UNL     1       6.922   5.467  19.931  0.00  0.00    +0.000 OA
BRANCH   8  10
ATOM     10  O   UNL     1       5.784   3.756  19.010  0.00  0.00    +0.000 OA
ATOM     11  H   UNL     1       5.521   3.480  19.908  0.00  0.00    +0.000 HD
ENDBRANCH   8  10
ENDBRANCH   6   8
BRANCH   1  12
ATOM     12  C   UNL     1       4.172   6.659  17.666  0.00  0.00    +0.000 C 
BRANCH  12  13
ATOM     13  C   UNL     1       3.046   5.994  18.467  0.00  0.00    +0.000 C 
BRANCH  13  15
ATOM     14  C   UNL     1       2.322   3.681  17.348  0.00  0.00    +0.000 C 
ATOM     15  C   UNL     1       2.632   4.718  17.870  0.00  0.00    +0.000 C 
ENDBRANCH  13  15
ENDBRANCH  12  13
ENDBRANCH   1  12
TORSDOF 5
ENDMDL
MODEL 2
REMARK VINA RESULT:      -5.6      1.118      1.480
REMARK  Name = 
REMARK  5 active torsions:
REMARK  status: ('A' for Active; 'I' for Inactive)
REMARK    1  A    between atoms: C_2  and  C_3
REMARK    2  A    between atoms: C_3  and  C_4
REMARK    3  A    between atoms: C_4  and  C_5
REMARK    4  A    between atoms: C_10  and  C_11
REMARK    5  A    between atoms: C_11  and  O_13
REMARK                            x       y       z     vdW  Elec       q    Type
REMARK                         _______ _______ _______ _____ _____    ______ ____
ROOT
ATOM      1  C   UNL     1       4.885   4.220  16.794  0.00  0.00    +0.000 C 
ATOM      2  C   UNL     1       5.030   4.435  15.274  0.00  0.00    +0.000 C 
ATOM      3  C   UNL     1       6.427   4.082  14.776  0.00  0.00    +0.000 C 
ATOM      4  N   UNL     1       7.452   4.854  15.476  0.00  0.00    +0.000 NA
ATOM      5  C   UNL     1       7.396   4.590  16.916  0.00  0.00    +0.000 C 
ATOM      6  C   UNL     1       6.036   4.956  17.528  0.00  0.00    +0.000 C 
ATOM      7  H   UNL     1       7.306   5.847  15.294  0.00  0.00    +0.000 HD
ENDROOT
BRANCH   6   8
ATOM      8  C   UNL     1       6.104   4.597  19.000  0.00  0.00    +0.000 C 
ATOM      9  O   UNL     1       6.544   5.327  19.875  0.00  0.00    +0.000 OA
BRANCH   8  10
ATOM     10  O   UNL     1       5.590   3.376  19.277  0.00  0.00    +0.000 OA
ATOM     11  H   UNL     1       4.699   3.211  18.917  0.00  0.00    +0.000 HD
ENDBRANCH   8  10
ENDBRANCH   6   8
BRANCH   1  12
ATOM     12  C   UNL     1       3.494   4.682  17.291  0.00  0.00    +0.000 C 
BRANCH  12  13
ATOM     13  C   UNL     1       2.485   3.532  17.381  0.00  0.00    +0.000 C 
BRANCH  13  15
ATOM     14  C   UNL     1       1.100   3.627  19.661  0.00  0.00    +0.000 C 
ATOM     15  C   UNL     1       1.703   3.588  18.622  0.00  0.00    +0.000 C 
ENDBRANCH  13  15
ENDBRANCH  12  13
ENDBRANCH   1  12
TORSDOF 5
ENDMDL
MODEL 3
REMARK VINA RESULT:      -5.6      2.423      4.255
REMARK  Name = 
REMARK  5 active torsions:
REMARK  status: ('A' for Active; 'I' for Inactive)
REMARK    1  A    between atoms: C_2  and  C_3
REMARK    2  A    between atoms: C_3  and  C_4
REMARK    3  A    between atoms: C_4  and  C_5
REMARK    4  A    between atoms: C_10  and  C_11
REMARK    5  A    between atoms: C_11  and  O_13
REMARK                            x       y       z     vdW  Elec       q    Type
REMARK                         _______ _______ _______ _____ _____    ______ ____
ROOT
ATOM      1  C   UNL     1       5.830   4.123  16.509  0.00  0.00    +0.000 C 
ATOM      2  C   UNL     1       6.982   5.086  16.860  0.00  0.00    +0.000 C 
ATOM      3  C   UNL     1       7.435   4.935  18.308  0.00  0.00    +0.000 C 
ATOM      4  N   UNL     1       6.325   5.145  19.236  0.00  0.00    +0.000 NA
ATOM      5  C   UNL     1       5.257   4.175  18.984  0.00  0.00    +0.000 C 
ATOM      6  C   UNL     1       4.698   4.275  17.557  0.00  0.00    +0.000 C 
ATOM      7  H   UNL     1       5.972   6.095  19.126  0.00  0.00    +0.000 HD
ENDROOT
BRANCH   6   8
ATOM      8  C   UNL     1       3.638   3.197  17.423  0.00  0.00    +0.000 C 
ATOM      9  O   UNL     1       2.511   3.379  16.989  0.00  0.00    +0.000 OA
BRANCH   8  10
ATOM     10  O   UNL     1       4.070   1.972  17.802  0.00  0.00    +0.000 OA
ATOM     11  H   UNL     1       4.072   1.814  18.765  0.00  0.00    +0.000 HD
ENDBRANCH   8  10
ENDBRANCH   6   8
BRANCH   1  12
ATOM     12  C   UNL     1       5.320   4.368  15.068  0.00  0.00    +0.000 C 
BRANCH  12  13
ATOM     13  C   UNL     1       6.426   4.226  14.017  0.00  0.00    +0.000 C 
BRANCH  13  15
ATOM     14  C   UNL     1       5.522   2.972  11.841  0.00  0.00    +0.000 C 
ATOM     15  C   UNL     1       5.946   3.548  12.807  0.00  0.00    +0.000 C 
ENDBRANCH  13  15
ENDBRANCH  12  13
ENDBRANCH   1  12
TORSDOF 5
ENDMDL
MODEL 4
REMARK VINA RESULT:      -5.5      2.761      4.098
REMARK  Name = 
REMARK  5 active torsions:
REMARK  status: ('A' for Active; 'I' for Inactive)
REMARK    1  A    between atoms: C_2  and  C_3
REMARK    2  A    between atoms: C_3  and  C_4
REMARK    3  A    between atoms: C_4  and  C_5
REMARK    4  A    between atoms: C_10  and  C_11
REMARK    5  A    between atoms: C_11  and  O_13
REMARK                            x       y       z     vdW  Elec       q    Type
REMARK                         _______ _______ _______ _____ _____    ______ ____
ROOT
ATOM      1  C   UNL     1       2.806   4.523  18.428  0.00  0.00    +0.000 C 
ATOM      2  C   UNL     1       1.396   3.961  18.155  0.00  0.00    +0.000 C 
ATOM      3  C   UNL     1       1.267   2.504  18.589  0.00  0.00    +0.000 C 
ATOM      4  N   UNL     1       2.262   1.663  17.929  0.00  0.00    +0.000 NA
ATOM      5  C   UNL     1       3.615   2.121  18.252  0.00  0.00    +0.000 C 
ATOM      6  C   UNL     1       3.865   3.571  17.814  0.00  0.00    +0.000 C 
ATOM      7  H   UNL     1       2.111   1.694  16.920  0.00  0.00    +0.000 HD
ENDROOT
BRANCH   6   8
ATOM      8  C   UNL     1       5.276   3.925  18.243  0.00  0.00    +0.000 C 
ATOM      9  O   UNL     1       5.633   4.085  19.400  0.00  0.00    +0.000 OA
BRANCH   8  10
ATOM     10  O   UNL     1       6.143   4.016  17.208  0.00  0.00    +0.000 OA
ATOM     11  H   UNL     1       7.023   3.626  17.369  0.00  0.00    +0.000 HD
ENDBRANCH   8  10
ENDBRANCH   6   8
BRANCH   1  12
ATOM     12  C   UNL     1       2.943   5.966  17.885  0.00  0.00    +0.000 C 
BRANCH  12  13
ATOM     13  C   UNL     1       2.576   7.028  18.928  0.00  0.00    +0.000 C 
BRANCH  13  15
ATOM     14  C   UNL     1       1.858   9.341  17.806  0.00  0.00    +0.000 C 
ATOM     15  C   UNL     1       2.161   8.289  18.302  0.00  0.00    +0.000 C 
ENDBRANCH  13  15
ENDBRANCH  12  13
ENDBRANCH   1  12
TORSDOF 5
ENDMDL
MODEL 5
REMARK VINA RESULT:      -5.5      2.285      4.017
REMARK  Name = 
REMARK  5 active torsions:
REMARK  status: ('A' for Active; 'I' for Inactive)
REMARK    1  A    between atoms: C_2  and  C_3
REMARK    2  A    between atoms: C_3  and  C_4
REMARK    3  A    between atoms: C_4  and  C_5
REMARK    4  A    between atoms: C_10  and  C_11
REMARK    5  A    between atoms: C_11  and  O_13
REMARK                            x       y       z     vdW  Elec       q    Type
REMARK                         _______ _______ _______ _____ _____    ______ ____
ROOT
ATOM      1  C   UNL     1       5.170   4.668  16.798  0.00  0.00    +0.000 C 
ATOM      2  C   UNL     1       3.678   4.473  17.136  0.00  0.00    +0.000 C 
ATOM      3  C   UNL     1       3.242   5.334  18.317  0.00  0.00    +0.000 C 
ATOM      4  N   UNL     1       4.049   5.058  19.504  0.00  0.00    +0.000 NA
ATOM      5  C   UNL     1       5.463   5.329  19.234  0.00  0.00    +0.000 C 
ATOM      6  C   UNL     1       6.016   4.476  18.083  0.00  0.00    +0.000 C 
ATOM      7  H   UNL     1       3.923   4.083  19.776  0.00  0.00    +0.000 HD
ENDROOT
BRANCH   6   8
ATOM      8  C   UNL     1       7.464   4.885  17.888  0.00  0.00    +0.000 C 
ATOM      9  O   UNL     1       8.402   4.108  17.802  0.00  0.00    +0.000 OA
BRANCH   8  10
ATOM     10  O   UNL     1       7.631   6.223  17.777  0.00  0.00    +0.000 OA
ATOM     11  H   UNL     1       7.766   6.549  16.867  0.00  0.00    +0.000 HD
ENDBRANCH   8  10
ENDBRANCH   6   8
BRANCH   1  12
ATOM     12  C   UNL     1       5.613   3.709  15.667  0.00  0.00    +0.000 C 
BRANCH  12  13
ATOM     13  C   UNL     1       6.227   4.448  14.472  0.00  0.00    +0.000 C 
BRANCH  13  15
ATOM     14  C   UNL     1       5.795   3.199  12.153  0.00  0.00    +0.000 C 
ATOM     15  C   UNL     1       5.971   3.749  13.207  0.00  0.00    +0.000 C 
ENDBRANCH  13  15
ENDBRANCH  12  13
ENDBRANCH   1  12
TORSDOF 5
ENDMDL
MODEL 6
REMARK VINA RESULT:      -5.5      1.445      2.042
REMARK  Name = 
REMARK  5 active torsions:
REMARK  status: ('A' for Active; 'I' for Inactive)
REMARK    1  A    between atoms: C_2  and  C_3
REMARK    2  A    between atoms: C_3  and  C_4
REMARK    3  A    between atoms: C_4  and  C_5
REMARK    4  A    between atoms: C_10  and  C_11
REMARK    5  A    between atoms: C_11  and  O_13
REMARK                            x       y       z     vdW  Elec       q    Type
REMARK                         _______ _______ _______ _____ _____    ______ ____
ROOT
ATOM      1  C   UNL     1       5.135   4.129  16.867  0.00  0.00    +0.000 C 
ATOM      2  C   UNL     1       5.538   4.214  15.381  0.00  0.00    +0.000 C 
ATOM      3  C   UNL     1       6.998   4.617  15.205  0.00  0.00    +0.000 C 
ATOM      4  N   UNL     1       7.280   5.893  15.859  0.00  0.00    +0.000 NA
ATOM      5  C   UNL     1       6.996   5.806  17.293  0.00  0.00    +0.000 C 
ATOM      6  C   UNL     1       5.531   5.447  17.582  0.00  0.00    +0.000 C 
ATOM      7  H   UNL     1       6.710   6.623  15.430  0.00  0.00    +0.000 HD
ENDROOT
BRANCH   6   8
ATOM      8  C   UNL     1       5.389   5.352  19.089  0.00  0.00    +0.000 C 
ATOM      9  O   UNL     1       4.341   5.492  19.700  0.00  0.00    +0.000 OA
BRANCH   8  10
ATOM     10  O   UNL     1       6.550   5.055  19.718  0.00  0.00    +0.000 OA
ATOM     11  H   UNL     1       6.460   4.485  20.505  0.00  0.00    +0.000 HD
ENDBRANCH   8  10
ENDBRANCH   6   8
BRANCH   1  12
ATOM     12  C   UNL     1       3.626   3.821  17.018  0.00  0.00    +0.000 C 
BRANCH  12  13
ATOM     13  C   UNL     1       3.362   2.513  17.773  0.00  0.00    +0.000 C 
BRANCH  13  15
ATOM     14  C   UNL     1       0.893   2.417  18.783  0.00  0.00    +0.000 C 
ATOM     15  C   UNL     1       2.011   2.477  18.346  0.00  0.00    +0.000 C 
ENDBRANCH  13  15
ENDBRANCH  12  13
ENDBRANCH   1  12
TORSDOF 5
ENDMDL
MODEL 7
REMARK VINA RESULT:      -5.5      2.233      4.193
REMARK  Name = 
REMARK  5 active torsions:
REMARK  status: ('A' for Active; 'I' for Inactive)
REMARK    1  A    between atoms: C_2  and  C_3
REMARK    2  A    between atoms: C_3  and  C_4
REMARK    3  A    between atoms: C_4  and  C_5
REMARK    4  A    between atoms: C_10  and  C_11
REMARK    5  A    between atoms: C_11  and  O_13
REMARK                            x       y       z     vdW  Elec       q    Type
REMARK                         _______ _______ _______ _____ _____    ______ ____
ROOT
ATOM      1  C   UNL     1       5.230   4.635  16.832  0.00  0.00    +0.000 C 
ATOM      2  C   UNL     1       5.016   6.062  16.288  0.00  0.00    +0.000 C 
ATOM      3  C   UNL     1       4.405   6.989  17.335  0.00  0.00    +0.000 C 
ATOM      4  N   UNL     1       3.137   6.463  17.834  0.00  0.00    +0.000 NA
ATOM      5  C   UNL     1       3.333   5.146  18.444  0.00  0.00    +0.000 C 
ATOM      6  C   UNL     1       3.907   4.121  17.455  0.00  0.00    +0.000 C 
ATOM      7  H   UNL     1       2.473   6.398  17.062  0.00  0.00    +0.000 HD
ENDROOT
BRANCH   6   8
ATOM      8  C   UNL     1       4.096   2.826  18.223  0.00  0.00    +0.000 C 
ATOM      9  O   UNL     1       3.468   1.798  18.021  0.00  0.00    +0.000 OA
BRANCH   8  10
ATOM     10  O   UNL     1       5.072   2.896  19.157  0.00  0.00    +0.000 OA
ATOM     11  H   UNL     1       4.771   2.792  20.079  0.00  0.00    +0.000 HD
ENDBRANCH   8  10
ENDBRANCH   6   8
BRANCH   1  12
ATOM     12  C   UNL     1       5.752   3.690  15.723  0.00  0.00    +0.000 C 
BRANCH  12  13
ATOM     13  C   UNL     1       6.361   4.448  14.538  0.00  0.00    +0.000 C 
BRANCH  13  15
ATOM     14  C   UNL     1       5.835   3.253  12.210  0.00  0.00    +0.000 C 
ATOM     15  C   UNL     1       6.090   3.775  13.262  0.00  0.00    +0.000 C 
ENDBRANCH  13  15
ENDBRANCH  12  13
ENDBRANCH   1  12
TORSDOF 5
ENDMDL
MODEL 8
REMARK VINA RESULT:      -5.4      2.669      3.689
REMARK  Name = 
REMARK  5 active torsions:
REMARK  status: ('A' for Active; 'I' for Inactive)
REMARK    1  A    between atoms: C_2  and  C_3
REMARK    2  A    between atoms: C_3  and  C_4
REMARK    3  A    between atoms: C_4  and  C_5
REMARK    4  A    between atoms: C_10  and  C_11
REMARK    5  A    between atoms: C_11  and  O_13
REMARK                            x       y       z     vdW  Elec       q    Type
REMARK                         _______ _______ _______ _____ _____    ______ ____
ROOT
ATOM      1  C   UNL     1       2.849   4.311  18.130  0.00  0.00    +0.000 C 
ATOM      2  C   UNL     1       3.540   3.588  16.956  0.00  0.00    +0.000 C 
ATOM      3  C   UNL     1       5.014   3.962  16.841  0.00  0.00    +0.000 C 
ATOM      4  N   UNL     1       5.186   5.405  16.692  0.00  0.00    +0.000 NA
ATOM      5  C   UNL     1       4.621   6.109  17.845  0.00  0.00    +0.000 C 
ATOM      6  C   UNL     1       3.122   5.834  18.025  0.00  0.00    +0.000 C 
ATOM      7  H   UNL     1       4.728   5.710  15.834  0.00  0.00    +0.000 HD
ENDROOT
BRANCH   6   8
ATOM      8  C   UNL     1       2.681   6.585  19.267  0.00  0.00    +0.000 C 
ATOM      9  O   UNL     1       2.086   7.652  19.261  0.00  0.00    +0.000 OA
BRANCH   8  10
ATOM     10  O   UNL     1       2.981   5.939  20.418  0.00  0.00    +0.000 OA
ATOM     11  H   UNL     1       3.674   5.258  20.341  0.00  0.00    +0.000 HD
ENDBRANCH   8  10
ENDBRANCH   6   8
BRANCH   1  12
ATOM     12  C   UNL     1       1.334   3.996  18.162  0.00  0.00    +0.000 C 
BRANCH  12  13
ATOM     13  C   UNL     1       1.016   2.695  18.908  0.00  0.00    +0.000 C 
BRANCH  13  15
ATOM     14  C   UNL     1       1.563   2.845  21.516  0.00  0.00    +0.000 C 
ATOM     15  C   UNL     1       1.311   2.802  20.341  0.00  0.00    +0.000 C 
ENDBRANCH  13  15
ENDBRANCH  12  13
ENDBRANCH   1  12
TORSDOF 5
ENDMDL
MODEL 9
REMARK VINA RESULT:      -5.4      2.402      3.586
REMARK  Name = 
REMARK  5 active torsions:
REMARK  status: ('A' for Active; 'I' for Inactive)
REMARK    1  A    between atoms: C_2  and  C_3
REMARK    2  A    between atoms: C_3  and  C_4
REMARK    3  A    between atoms: C_4  and  C_5
REMARK    4  A    between atoms: C_10  and  C_11
REMARK    5  A    between atoms: C_11  and  O_13
REMARK                            x       y       z     vdW  Elec       q    Type
REMARK                         _______ _______ _______ _____ _____    ______ ____
ROOT
ATOM      1  C   UNL     1       2.761   5.393  19.205  0.00  0.00    +0.000 C 
ATOM      2  C   UNL     1       2.493   6.912  19.214  0.00  0.00    +0.000 C 
ATOM      3  C   UNL     1       2.818   7.559  17.872  0.00  0.00    +0.000 C 
ATOM      4  N   UNL     1       4.206   7.312  17.486  0.00  0.00    +0.000 NA
ATOM      5  C   UNL     1       4.458   5.874  17.376  0.00  0.00    +0.000 C 
ATOM      6  C   UNL     1       4.202   5.130  18.695  0.00  0.00    +0.000 C 
ATOM      7  H   UNL     1       4.826   7.727  18.181  0.00  0.00    +0.000 HD
ENDROOT
BRANCH   6   8
ATOM      8  C   UNL     1       4.460   3.659  18.429  0.00  0.00    +0.000 C 
ATOM      9  O   UNL     1       3.970   3.021  17.509  0.00  0.00    +0.000 OA
BRANCH   8  10
ATOM     10  O   UNL     1       5.333   3.103  19.300  0.00  0.00    +0.000 OA
ATOM     11  H   UNL     1       6.065   3.685  19.581  0.00  0.00    +0.000 HD
ENDBRANCH   8  10
ENDBRANCH   6   8
BRANCH   1  12
ATOM     12  C   UNL     1       2.523   4.778  20.605  0.00  0.00    +0.000 C 
BRANCH  12  13
ATOM     13  C   UNL     1       1.165   4.076  20.720  0.00  0.00    +0.000 C 
BRANCH  13  15
ATOM     14  C   UNL     1       0.770   2.309  18.759  0.00  0.00    +0.000 C 
ATOM     15  C   UNL     1       0.967   3.092  19.649  0.00  0.00    +0.000 C 
ENDBRANCH  13  15
ENDBRANCH  12  13
ENDBRANCH   1  12
TORSDOF 5
ENDMDL
