MODEL 1
REMARK VINA RESULT:      -7.2      0.000      0.000
REMARK  Name = 
REMARK  5 active torsions:
REMARK  status: ('A' for Active; 'I' for Inactive)
REMARK    1  A    between atoms: C_1  and  C_2
REMARK    2  A    between atoms: C_5  and  N_6
REMARK    3  A    between atoms: N_9  and  C_10
REMARK    4  A    between atoms: C_10  and  C_11
REMARK    5  A    between atoms: N_13  and  C_14
REMARK                            x       y       z     vdW  Elec       q    Type
REMARK                         _______ _______ _______ _____ _____    ______ ____
ROOT
ATOM      1  C   UNL     1       2.197   5.544  20.317  0.00  0.00    +0.000 C 
ATOM      2  O   UNL     1       1.009   5.251  20.449  0.00  0.00    +0.000 OA
ATOM      3  N   UNL     1       2.681   6.844  20.261  0.00  0.00    +0.000 N 
ATOM      4  H   UNL     1       3.525   6.997  19.713  0.00  0.00    +0.000 HD
ENDROOT
BRANCH   3   5
ATOM      5  C   UNL     1       1.799   7.954  20.327  0.00  0.00    +0.000 A 
ATOM      6  C   UNL     1       1.156   8.287  21.524  0.00  0.00    +0.000 A 
ATOM      7  C   UNL     1       0.203   9.302  21.546  0.00  0.00    +0.000 A 
ATOM      8 CL   UNL     1      -0.594   9.693  23.019  0.00  0.00    +0.000 Cl
ATOM      9  C   UNL     1      -0.117   9.994  20.379  0.00  0.00    +0.000 A 
ATOM     10  C   UNL     1       0.556   9.701  19.191  0.00  0.00    +0.000 A 
ATOM     11  C   UNL     1       1.531   8.701  19.171  0.00  0.00    +0.000 A 
ATOM     12 CL   UNL     1       2.320   8.340  17.676  0.00  0.00    +0.000 Cl
ENDBRANCH   3   5
BRANCH   1  13
ATOM     13  C   UNL     1       3.239   4.474  20.142  0.00  0.00    +0.000 C 
BRANCH  13  19
ATOM     14  C   UNL     1       6.229   5.379  19.336  0.00  0.00    +0.000 C 
ATOM     15  C   UNL     1       5.178   4.788  18.464  0.00  0.00    +0.000 A 
ATOM     16  N   UNL     1       5.380   4.571  17.176  0.00  0.00    +0.000 NA
ATOM     17  C   UNL     1       4.238   4.014  16.690  0.00  0.00    +0.000 A 
ATOM     18  C   UNL     1       3.310   3.898  17.688  0.00  0.00    +0.000 A 
ATOM     19  N   UNL     1       3.903   4.388  18.839  0.00  0.00    +0.000 N 
BRANCH  18  20
ATOM     20  N   UNL     1       1.984   3.387  17.566  0.00  0.00    +0.000 N 
ATOM     21  O   UNL     1       1.111   4.193  17.232  0.00  0.00    +0.000 OA
ATOM     22  O   UNL     1       1.803   2.190  17.811  0.00  0.00    +0.000 OA
ENDBRANCH  18  20
ENDBRANCH  13  19
ENDBRANCH   1  13
TORSDOF 4
ENDMDL
MODEL 2
REMARK VINA RESULT:      -7.1      1.741      2.522
REMARK  Name = 
REMARK  5 active torsions:
REMARK  status: ('A' for Active; 'I' for Inactive)
REMARK    1  A    between atoms: C_1  and  C_2
REMARK    2  A    between atoms: C_5  and  N_6
REMARK    3  A    between atoms: N_9  and  C_10
REMARK    4  A    between atoms: C_10  and  C_11
REMARK    5  A    between atoms: N_13  and  C_14
REMARK                            x       y       z     vdW  Elec       q    Type
REMARK                         _______ _______ _______ _____ _____    ______ ____
ROOT
ATOM      1  C   UNL     1       1.859   5.623  20.497  0.00  0.00    +0.000 C 
ATOM      2  O   UNL     1       0.650   5.429  20.628  0.00  0.00    +0.000 OA
ATOM      3  N   UNL     1       2.447   6.878  20.429  0.00  0.00    +0.000 N 
ATOM      4  H   UNL     1       3.303   6.956  19.883  0.00  0.00    +0.000 HD
ENDROOT
BRANCH   3   5
ATOM      5  C   UNL     1       1.658   8.057  20.480  0.00  0.00    +0.000 A 
ATOM      6  C   UNL     1       1.057   8.465  21.676  0.00  0.00    +0.000 A 
ATOM      7  C   UNL     1       0.190   9.554  21.685  0.00  0.00    +0.000 A 
ATOM      8 CL   UNL     1      -0.558  10.037  23.157  0.00  0.00    +0.000 Cl
ATOM      9  C   UNL     1      -0.085  10.246  20.507  0.00  0.00    +0.000 A 
ATOM     10  C   UNL     1       0.549   9.876  19.319  0.00  0.00    +0.000 A 
ATOM     11  C   UNL     1       1.440   8.801  19.311  0.00  0.00    +0.000 A 
ATOM     12 CL   UNL     1       2.182   8.348  17.817  0.00  0.00    +0.000 Cl
ENDBRANCH   3   5
BRANCH   1  13
ATOM     13  C   UNL     1       2.811   4.470  20.337  0.00  0.00    +0.000 C 
BRANCH  13  19
ATOM     14  C   UNL     1       0.781   2.469  18.826  0.00  0.00    +0.000 C 
ATOM     15  C   UNL     1       2.084   3.001  18.341  0.00  0.00    +0.000 A 
ATOM     16  N   UNL     1       2.577   2.671  17.160  0.00  0.00    +0.000 NA
ATOM     17  C   UNL     1       3.755   3.338  17.028  0.00  0.00    +0.000 A 
ATOM     18  C   UNL     1       4.003   4.080  18.150  0.00  0.00    +0.000 A 
ATOM     19  N   UNL     1       2.932   3.878  19.003  0.00  0.00    +0.000 N 
BRANCH  18  20
ATOM     20  N   UNL     1       5.147   4.893  18.400  0.00  0.00    +0.000 N 
ATOM     21  O   UNL     1       6.108   4.340  18.942  0.00  0.00    +0.000 OA
ATOM     22  O   UNL     1       5.093   6.082  18.072  0.00  0.00    +0.000 OA
ENDBRANCH  18  20
ENDBRANCH  13  19
ENDBRANCH   1  13
TORSDOF 4
ENDMDL
MODEL 3
REMARK VINA RESULT:      -6.9      1.658      2.291
REMARK  Name = 
REMARK  5 active torsions:
REMARK  status: ('A' for Active; 'I' for Inactive)
REMARK    1  A    between atoms: C_1  and  C_2
REMARK    2  A    between atoms: C_5  and  N_6
REMARK    3  A    between atoms: N_9  and  C_10
REMARK    4  A    between atoms: C_10  and  C_11
REMARK    5  A    between atoms: N_13  and  C_14
REMARK                            x       y       z     vdW  Elec       q    Type
REMARK                         _______ _______ _______ _____ _____    ______ ____
ROOT
ATOM      1  C   UNL     1       2.235   6.017  20.271  0.00  0.00    +0.000 C 
ATOM      2  O   UNL     1       1.086   5.618  20.459  0.00  0.00    +0.000 OA
ATOM      3  N   UNL     1       2.598   7.355  20.211  0.00  0.00    +0.000 N 
ATOM      4  H   UNL     1       3.395   7.590  19.624  0.00  0.00    +0.000 HD
ENDROOT
BRANCH   3   5
ATOM      5  C   UNL     1       1.626   8.381  20.342  0.00  0.00    +0.000 A 
ATOM      6  C   UNL     1       1.055   8.673  21.585  0.00  0.00    +0.000 A 
ATOM      7  C   UNL     1       0.018   9.598  21.678  0.00  0.00    +0.000 A 
ATOM      8 CL   UNL     1      -0.689   9.937  23.209  0.00  0.00    +0.000 Cl
ATOM      9  C   UNL     1      -0.458  10.239  20.536  0.00  0.00    +0.000 A 
ATOM     10  C   UNL     1       0.139   9.990  19.298  0.00  0.00    +0.000 A 
ATOM     11  C   UNL     1       1.197   9.083  19.205  0.00  0.00    +0.000 A 
ATOM     12 CL   UNL     1       1.892   8.773  17.653  0.00  0.00    +0.000 Cl
ENDBRANCH   3   5
BRANCH   1  13
ATOM     13  C   UNL     1       3.357   5.046  20.024  0.00  0.00    +0.000 C 
BRANCH  13  19
ATOM     14  C   UNL     1       3.736   4.406  16.885  0.00  0.00    +0.000 C 
ATOM     15  C   UNL     1       3.171   3.526  17.944  0.00  0.00    +0.000 A 
ATOM     16  N   UNL     1       2.726   2.311  17.679  0.00  0.00    +0.000 NA
ATOM     17  C   UNL     1       2.301   1.783  18.858  0.00  0.00    +0.000 A 
ATOM     18  C   UNL     1       2.470   2.691  19.866  0.00  0.00    +0.000 A 
ATOM     19  N   UNL     1       3.035   3.818  19.295  0.00  0.00    +0.000 N 
BRANCH  18  20
ATOM     20  N   UNL     1       2.121   2.519  21.238  0.00  0.00    +0.000 N 
ATOM     21  O   UNL     1       0.928   2.656  21.525  0.00  0.00    +0.000 OA
ATOM     22  O   UNL     1       3.027   2.258  22.036  0.00  0.00    +0.000 OA
ENDBRANCH  18  20
ENDBRANCH  13  19
ENDBRANCH   1  13
TORSDOF 4
ENDMDL
MODEL 4
REMARK VINA RESULT:      -6.8      2.318      3.656
REMARK  Name = 
REMARK  5 active torsions:
REMARK  status: ('A' for Active; 'I' for Inactive)
REMARK    1  A    between atoms: C_1  and  C_2
REMARK    2  A    between atoms: C_5  and  N_6
REMARK    3  A    between atoms: N_9  and  C_10
REMARK    4  A    between atoms: C_10  and  C_11
REMARK    5  A    between atoms: N_13  and  C_14
REMARK                            x       y       z     vdW  Elec       q    Type
REMARK                         _______ _______ _______ _____ _____    ______ ____
ROOT
ATOM      1  C   UNL     1       2.926   4.561  17.567  0.00  0.00    +0.000 C 
ATOM      2  O   UNL     1       1.717   4.407  17.400  0.00  0.00    +0.000 OA
ATOM      3  N   UNL     1       3.491   5.604  18.287  0.00  0.00    +0.000 N 
ATOM      4  H   UNL     1       4.417   5.913  18.000  0.00  0.00    +0.000 HD
ENDROOT
BRANCH   3   5
ATOM      5  C   UNL     1       2.678   6.610  18.872  0.00  0.00    +0.000 A 
ATOM      6  C   UNL     1       2.454   7.824  18.213  0.00  0.00    +0.000 A 
ATOM      7  C   UNL     1       1.756   8.846  18.850  0.00  0.00    +0.000 A 
ATOM      8 CL   UNL     1       1.500  10.340  18.038  0.00  0.00    +0.000 Cl
ATOM      9  C   UNL     1       1.274   8.669  20.146  0.00  0.00    +0.000 A 
ATOM     10  C   UNL     1       1.450   7.443  20.792  0.00  0.00    +0.000 A 
ATOM     11  C   UNL     1       2.127   6.407  20.146  0.00  0.00    +0.000 A 
ATOM     12 CL   UNL     1       2.358   4.914  20.987  0.00  0.00    +0.000 Cl
ENDBRANCH   3   5
BRANCH   1  13
ATOM     13  C   UNL     1       3.916   3.625  16.929  0.00  0.00    +0.000 C 
BRANCH  13  19
ATOM     14  C   UNL     1       5.508   4.123  14.167  0.00  0.00    +0.000 C 
ATOM     15  C   UNL     1       5.993   4.324  15.560  0.00  0.00    +0.000 A 
ATOM     16  N   UNL     1       7.217   4.747  15.819  0.00  0.00    +0.000 NA
ATOM     17  C   UNL     1       7.322   4.836  17.173  0.00  0.00    +0.000 A 
ATOM     18  C   UNL     1       6.150   4.449  17.761  0.00  0.00    +0.000 A 
ATOM     19  N   UNL     1       5.281   4.120  16.735  0.00  0.00    +0.000 N 
BRANCH  18  20
ATOM     20  N   UNL     1       5.878   4.381  19.159  0.00  0.00    +0.000 N 
ATOM     21  O   UNL     1       5.425   3.314  19.581  0.00  0.00    +0.000 OA
ATOM     22  O   UNL     1       6.101   5.387  19.840  0.00  0.00    +0.000 OA
ENDBRANCH  18  20
ENDBRANCH  13  19
ENDBRANCH   1  13
TORSDOF 4
ENDMDL
MODEL 5
REMARK VINA RESULT:      -6.7      1.089      1.216
REMARK  Name = 
REMARK  5 active torsions:
REMARK  status: ('A' for Active; 'I' for Inactive)
REMARK    1  A    between atoms: C_1  and  C_2
REMARK    2  A    between atoms: C_5  and  N_6
REMARK    3  A    between atoms: N_9  and  C_10
REMARK    4  A    between atoms: C_10  and  C_11
REMARK    5  A    between atoms: N_13  and  C_14
REMARK                            x       y       z     vdW  Elec       q    Type
REMARK                         _______ _______ _______ _____ _____    ______ ____
ROOT
ATOM      1  C   UNL     1       1.974   5.814  20.444  0.00  0.00    +0.000 C 
ATOM      2  O   UNL     1       0.787   5.524  20.589  0.00  0.00    +0.000 OA
ATOM      3  N   UNL     1       2.461   7.112  20.385  0.00  0.00    +0.000 N 
ATOM      4  H   UNL     1       3.299   7.265  19.828  0.00  0.00    +0.000 HD
ENDROOT
BRANCH   3   5
ATOM      5  C   UNL     1       1.582   8.225  20.463  0.00  0.00    +0.000 A 
ATOM      6  C   UNL     1       0.991   8.587  21.678  0.00  0.00    +0.000 A 
ATOM      7  C   UNL     1       0.040   9.603  21.717  0.00  0.00    +0.000 A 
ATOM      8 CL   UNL     1      -0.693  10.029  23.213  0.00  0.00    +0.000 Cl
ATOM      9  C   UNL     1      -0.329  10.267  20.549  0.00  0.00    +0.000 A 
ATOM     10  C   UNL     1       0.292   9.946  19.340  0.00  0.00    +0.000 A 
ATOM     11  C   UNL     1       1.266   8.945  19.302  0.00  0.00    +0.000 A 
ATOM     12 CL   UNL     1       1.990   8.549  17.783  0.00  0.00    +0.000 Cl
ENDBRANCH   3   5
BRANCH   1  13
ATOM     13  C   UNL     1       3.012   4.742  20.255  0.00  0.00    +0.000 C 
BRANCH  13  19
ATOM     14  C   UNL     1       5.046   5.632  17.915  0.00  0.00    +0.000 C 
ATOM     15  C   UNL     1       4.015   4.559  17.882  0.00  0.00    +0.000 A 
ATOM     16  N   UNL     1       3.811   3.819  16.806  0.00  0.00    +0.000 NA
ATOM     17  C   UNL     1       2.825   2.936  17.120  0.00  0.00    +0.000 A 
ATOM     18  C   UNL     1       2.402   3.141  18.404  0.00  0.00    +0.000 A 
ATOM     19  N   UNL     1       3.163   4.181  18.911  0.00  0.00    +0.000 N 
BRANCH  18  20
ATOM     20  N   UNL     1       1.369   2.434  19.087  0.00  0.00    +0.000 N 
ATOM     21  O   UNL     1       0.278   2.364  18.513  0.00  0.00    +0.000 OA
ATOM     22  O   UNL     1       1.631   1.956  20.195  0.00  0.00    +0.000 OA
ENDBRANCH  18  20
ENDBRANCH  13  19
ENDBRANCH   1  13
TORSDOF 4
ENDMDL
MODEL 6
REMARK VINA RESULT:      -6.6      0.893      1.163
REMARK  Name = 
REMARK  5 active torsions:
REMARK  status: ('A' for Active; 'I' for Inactive)
REMARK    1  A    between atoms: C_1  and  C_2
REMARK    2  A    between atoms: C_5  and  N_6
REMARK    3  A    between atoms: N_9  and  C_10
REMARK    4  A    between atoms: C_10  and  C_11
REMARK    5  A    between atoms: N_13  and  C_14
REMARK                            x       y       z     vdW  Elec       q    Type
REMARK                         _______ _______ _______ _____ _____    ______ ____
ROOT
ATOM      1  C   UNL     1       2.559   5.702  19.778  0.00  0.00    +0.000 C 
ATOM      2  O   UNL     1       1.407   5.294  19.630  0.00  0.00    +0.000 OA
ATOM      3  N   UNL     1       2.892   7.019  20.058  0.00  0.00    +0.000 N 
ATOM      4  H   UNL     1       3.792   7.349  19.716  0.00  0.00    +0.000 HD
ENDROOT
BRANCH   3   5
ATOM      5  C   UNL     1       1.889   8.018  20.167  0.00  0.00    +0.000 A 
ATOM      6  C   UNL     1       1.211   8.223  21.373  0.00  0.00    +0.000 A 
ATOM      7  C   UNL     1       0.149   9.121  21.433  0.00  0.00    +0.000 A 
ATOM      8 CL   UNL     1      -0.690   9.353  22.917  0.00  0.00    +0.000 Cl
ATOM      9  C   UNL     1      -0.246   9.823  20.295  0.00  0.00    +0.000 A 
ATOM     10  C   UNL     1       0.458   9.661  19.100  0.00  0.00    +0.000 A 
ATOM     11  C   UNL     1       1.540   8.781  19.043  0.00  0.00    +0.000 A 
ATOM     12 CL   UNL     1       2.368   8.578  17.538  0.00  0.00    +0.000 Cl
ENDBRANCH   3   5
BRANCH   1  13
ATOM     13  C   UNL     1       3.732   4.777  19.601  0.00  0.00    +0.000 C 
BRANCH  13  19
ATOM     14  C   UNL     1       5.638   6.591  17.734  0.00  0.00    +0.000 C 
ATOM     15  C   UNL     1       4.988   5.293  17.404  0.00  0.00    +0.000 A 
ATOM     16  N   UNL     1       5.131   4.721  16.221  0.00  0.00    +0.000 NA
ATOM     17  C   UNL     1       4.430   3.556  16.263  0.00  0.00    +0.000 A 
ATOM     18  C   UNL     1       3.832   3.412  17.484  0.00  0.00    +0.000 A 
ATOM     19  N   UNL     1       4.186   4.520  18.233  0.00  0.00    +0.000 N 
BRANCH  18  20
ATOM     20  N   UNL     1       2.993   2.336  17.902  0.00  0.00    +0.000 N 
ATOM     21  O   UNL     1       3.561   1.348  18.375  0.00  0.00    +0.000 OA
ATOM     22  O   UNL     1       1.774   2.463  17.754  0.00  0.00    +0.000 OA
ENDBRANCH  18  20
ENDBRANCH  13  19
ENDBRANCH   1  13
TORSDOF 4
ENDMDL
MODEL 7
REMARK VINA RESULT:      -6.6      4.147      6.593
REMARK  Name = 
REMARK  5 active torsions:
REMARK  status: ('A' for Active; 'I' for Inactive)
REMARK    1  A    between atoms: C_1  and  C_2
REMARK    2  A    between atoms: C_5  and  N_6
REMARK    3  A    between atoms: N_9  and  C_10
REMARK    4  A    between atoms: C_10  and  C_11
REMARK    5  A    between atoms: N_13  and  C_14
REMARK                            x       y       z     vdW  Elec       q    Type
REMARK                         _______ _______ _______ _____ _____    ______ ____
ROOT
ATOM      1  C   UNL     1       4.050   5.363  18.162  0.00  0.00    +0.000 C 
ATOM      2  O   UNL     1       3.914   6.471  17.643  0.00  0.00    +0.000 OA
ATOM      3  N   UNL     1       4.869   4.361  17.662  0.00  0.00    +0.000 N 
ATOM      4  H   UNL     1       4.586   3.401  17.846  0.00  0.00    +0.000 HD
ENDROOT
BRANCH   3   5
ATOM      5  C   UNL     1       5.606   4.551  16.464  0.00  0.00    +0.000 A 
ATOM      6  C   UNL     1       5.112   4.091  15.239  0.00  0.00    +0.000 A 
ATOM      7  C   UNL     1       5.898   4.176  14.093  0.00  0.00    +0.000 A 
ATOM      8 CL   UNL     1       5.288   3.593  12.594  0.00  0.00    +0.000 Cl
ATOM      9  C   UNL     1       7.180   4.720  14.156  0.00  0.00    +0.000 A 
ATOM     10  C   UNL     1       7.662   5.226  15.365  0.00  0.00    +0.000 A 
ATOM     11  C   UNL     1       6.866   5.167  16.511  0.00  0.00    +0.000 A 
ATOM     12 CL   UNL     1       7.506   5.771  17.999  0.00  0.00    +0.000 Cl
ENDBRANCH   3   5
BRANCH   1  13
ATOM     13  C   UNL     1       3.262   4.984  19.386  0.00  0.00    +0.000 C 
BRANCH  13  19
ATOM     14  C   UNL     1       1.113   4.413  17.048  0.00  0.00    +0.000 C 
ATOM     15  C   UNL     1       1.373   3.614  18.277  0.00  0.00    +0.000 A 
ATOM     16  N   UNL     1       0.690   2.518  18.556  0.00  0.00    +0.000 NA
ATOM     17  C   UNL     1       1.188   2.034  19.725  0.00  0.00    +0.000 A 
ATOM     18  C   UNL     1       2.184   2.850  20.186  0.00  0.00    +0.000 A 
ATOM     19  N   UNL     1       2.319   3.871  19.261  0.00  0.00    +0.000 N 
BRANCH  18  20
ATOM     20  N   UNL     1       2.930   2.691  21.391  0.00  0.00    +0.000 N 
ATOM     21  O   UNL     1       2.419   3.145  22.419  0.00  0.00    +0.000 OA
ATOM     22  O   UNL     1       4.026   2.126  21.321  0.00  0.00    +0.000 OA
ENDBRANCH  18  20
ENDBRANCH  13  19
ENDBRANCH   1  13
TORSDOF 4
ENDMDL
MODEL 8
REMARK VINA RESULT:      -6.5      1.605      2.328
REMARK  Name = 
REMARK  5 active torsions:
REMARK  status: ('A' for Active; 'I' for Inactive)
REMARK    1  A    between atoms: C_1  and  C_2
REMARK    2  A    between atoms: C_5  and  N_6
REMARK    3  A    between atoms: N_9  and  C_10
REMARK    4  A    between atoms: C_10  and  C_11
REMARK    5  A    between atoms: N_13  and  C_14
REMARK                            x       y       z     vdW  Elec       q    Type
REMARK                         _______ _______ _______ _____ _____    ______ ____
ROOT
ATOM      1  C   UNL     1       2.025   6.028  20.432  0.00  0.00    +0.000 C 
ATOM      2  O   UNL     1       0.849   5.685  20.551  0.00  0.00    +0.000 OA
ATOM      3  N   UNL     1       2.456   7.346  20.393  0.00  0.00    +0.000 N 
ATOM      4  H   UNL     1       3.299   7.540  19.855  0.00  0.00    +0.000 HD
ENDROOT
BRANCH   3   5
ATOM      5  C   UNL     1       1.529   8.419  20.461  0.00  0.00    +0.000 A 
ATOM      6  C   UNL     1       0.931   8.773  21.676  0.00  0.00    +0.000 A 
ATOM      7  C   UNL     1      -0.064   9.746  21.706  0.00  0.00    +0.000 A 
ATOM      8 CL   UNL     1      -0.805  10.161  23.202  0.00  0.00    +0.000 Cl
ATOM      9  C   UNL     1      -0.472  10.374  20.531  0.00  0.00    +0.000 A 
ATOM     10  C   UNL     1       0.154  10.062  19.323  0.00  0.00    +0.000 A 
ATOM     11  C   UNL     1       1.172   9.106  19.292  0.00  0.00    +0.000 A 
ATOM     12 CL   UNL     1       1.902   8.719  17.774  0.00  0.00    +0.000 Cl
ENDBRANCH   3   5
BRANCH   1  13
ATOM     13  C   UNL     1       3.112   5.003  20.258  0.00  0.00    +0.000 C 
BRANCH  13  19
ATOM     14  C   UNL     1       1.437   2.468  21.344  0.00  0.00    +0.000 C 
ATOM     15  C   UNL     1       2.062   2.656  20.006  0.00  0.00    +0.000 A 
ATOM     16  N   UNL     1       1.996   1.728  19.068  0.00  0.00    +0.000 NA
ATOM     17  C   UNL     1       2.647   2.223  17.981  0.00  0.00    +0.000 A 
ATOM     18  C   UNL     1       3.136   3.470  18.255  0.00  0.00    +0.000 A 
ATOM     19  N   UNL     1       2.763   3.766  19.555  0.00  0.00    +0.000 N 
BRANCH  18  20
ATOM     20  N   UNL     1       3.895   4.301  17.379  0.00  0.00    +0.000 N 
ATOM     21  O   UNL     1       3.512   5.468  17.257  0.00  0.00    +0.000 OA
ATOM     22  O   UNL     1       4.865   3.798  16.803  0.00  0.00    +0.000 OA
ENDBRANCH  18  20
ENDBRANCH  13  19
ENDBRANCH   1  13
TORSDOF 4
ENDMDL
MODEL 9
REMARK VINA RESULT:      -6.5      3.627      6.545
REMARK  Name = 
REMARK  5 active torsions:
REMARK  status: ('A' for Active; 'I' for Inactive)
REMARK    1  A    between atoms: C_1  and  C_2
REMARK    2  A    between atoms: C_5  and  N_6
REMARK    3  A    between atoms: N_9  and  C_10
REMARK    4  A    between atoms: C_10  and  C_11
REMARK    5  A    between atoms: N_13  and  C_14
REMARK                            x       y       z     vdW  Elec       q    Type
REMARK                         _______ _______ _______ _____ _____    ______ ____
ROOT
ATOM      1  C   UNL     1       4.661   5.110  18.238  0.00  0.00    +0.000 C 
ATOM      2  O   UNL     1       4.220   6.141  17.729  0.00  0.00    +0.000 OA
ATOM      3  N   UNL     1       5.559   4.254  17.617  0.00  0.00    +0.000 N 
ATOM      4  H   UNL     1       5.508   3.270  17.872  0.00  0.00    +0.000 HD
ENDROOT
BRANCH   3   5
ATOM      5  C   UNL     1       6.019   4.510  16.299  0.00  0.00    +0.000 A 
ATOM      6  C   UNL     1       5.507   3.796  15.210  0.00  0.00    +0.000 A 
ATOM      7  C   UNL     1       6.052   3.972  13.941  0.00  0.00    +0.000 A 
ATOM      8 CL   UNL     1       5.425   3.077  12.613  0.00  0.00    +0.000 Cl
ATOM      9  C   UNL     1       7.109   4.858  13.745  0.00  0.00    +0.000 A 
ATOM     10  C   UNL     1       7.593   5.611  14.817  0.00  0.00    +0.000 A 
ATOM     11  C   UNL     1       7.032   5.457  16.086  0.00  0.00    +0.000 A 
ATOM     12 CL   UNL     1       7.678   6.379  17.398  0.00  0.00    +0.000 Cl
ENDBRANCH   3   5
BRANCH   1  13
ATOM     13  C   UNL     1       4.194   4.661  19.595  0.00  0.00    +0.000 C 
BRANCH  13  19
ATOM     14  C   UNL     1       1.494   5.953  20.798  0.00  0.00    +0.000 C 
ATOM     15  C   UNL     1       1.687   4.597  20.215  0.00  0.00    +0.000 A 
ATOM     16  N   UNL     1       0.700   3.722  20.138  0.00  0.00    +0.000 NA
ATOM     17  C   UNL     1       1.210   2.608  19.546  0.00  0.00    +0.000 A 
ATOM     18  C   UNL     1       2.535   2.791  19.265  0.00  0.00    +0.000 A 
ATOM     19  N   UNL     1       2.858   4.070  19.685  0.00  0.00    +0.000 N 
BRANCH  18  20
ATOM     20  N   UNL     1       3.420   1.845  18.669  0.00  0.00    +0.000 N 
ATOM     21  O   UNL     1       3.431   1.802  17.435  0.00  0.00    +0.000 OA
ATOM     22  O   UNL     1       4.097   1.135  19.419  0.00  0.00    +0.000 OA
ENDBRANCH  18  20
ENDBRANCH  13  19
ENDBRANCH   1  13
TORSDOF 4
ENDMDL
