MODEL 1
REMARK VINA RESULT:      -7.2      0.000      0.000
REMARK  Name = 
REMARK  9 active torsions:
REMARK  status: ('A' for Active; 'I' for Inactive)
REMARK    1  A    between atoms: C_1  and  O_2
REMARK    2  A    between atoms: O_2  and  C_3
REMARK    3  A    between atoms: C_6  and  C_7
REMARK    4  A    between atoms: C_7  and  C_8
REMARK    5  A    between atoms: C_8  and  N_9
REMARK    6  A    between atoms: N_9  and  C_10
REMARK    7  A    between atoms: C_10  and  C_11
REMARK    8  A    between atoms: C_18  and  O_19
REMARK    9  A    between atoms: O_19  and  C_20
REMARK                            x       y       z     vdW  Elec       q    Type
REMARK                         _______ _______ _______ _____ _____    ______ ____
ROOT
ATOM      1  C   UNL     1       4.814   6.624  16.613  0.00  0.00    +0.000 C 
ENDROOT
BRANCH   1   5
ATOM      2  C   UNL     1       1.979   4.459  19.065  0.00  0.00    +0.000 A 
ATOM      3  C   UNL     1       2.289   5.806  19.339  0.00  0.00    +0.000 A 
ATOM      4  C   UNL     1       3.210   6.508  18.561  0.00  0.00    +0.000 A 
ATOM      5  C   UNL     1       3.894   5.859  17.535  0.00  0.00    +0.000 A 
ATOM      6  C   UNL     1       3.666   4.490  17.338  0.00  0.00    +0.000 A 
ATOM      7  C   UNL     1       2.722   3.779  18.092  0.00  0.00    +0.000 A 
BRANCH   2   9
ATOM      8  C   UNL     1       1.345   3.290  21.016  0.00  0.00    +0.000 C 
ATOM      9  O   UNL     1       0.970   3.824  19.744  0.00  0.00    +0.000 OA
ENDBRANCH   2   9
BRANCH   7  10
ATOM     10  O   UNL     1       2.663   2.464  17.709  0.00  0.00    +0.000 OA
ATOM     11  C   UNL     1       3.447   1.499  18.368  0.00  0.00    +0.000 C 
ENDBRANCH   7  10
ENDBRANCH   1   5
BRANCH   1  12
ATOM     12  C   UNL     1       6.154   6.925  17.303  0.00  0.00    +0.000 C 
BRANCH  12  13
ATOM     13  N   UNL     1       7.299   6.493  16.490  0.00  0.00    +0.000 NA
ATOM     14  H   UNL     1       8.160   6.615  17.026  0.00  0.00    +0.000 HD
BRANCH  13  15
ATOM     15  C   UNL     1       7.170   5.058  16.175  0.00  0.00    +0.000 C 
BRANCH  15  16
ATOM     16  C   UNL     1       7.071   4.779  14.688  0.00  0.00    +0.000 A 
ATOM     17  C   UNL     1       6.165   3.832  14.206  0.00  0.00    +0.000 A 
ATOM     18  C   UNL     1       6.126   3.570  12.841  0.00  0.00    +0.000 A 
ATOM     19  C   UNL     1       6.987   4.254  11.991  0.00  0.00    +0.000 A 
ATOM     20  C   UNL     1       7.853   5.179  12.546  0.00  0.00    +0.000 A 
ATOM     21  N   UNL     1       7.914   5.458  13.866  0.00  0.00    +0.000 NA
ENDBRANCH  15  16
ENDBRANCH  13  15
ENDBRANCH  12  13
ENDBRANCH   1  12
TORSDOF 7
ENDMDL
MODEL 2
REMARK VINA RESULT:      -6.8      3.299      6.293
REMARK  Name = 
REMARK  9 active torsions:
REMARK  status: ('A' for Active; 'I' for Inactive)
REMARK    1  A    between atoms: C_1  and  O_2
REMARK    2  A    between atoms: O_2  and  C_3
REMARK    3  A    between atoms: C_6  and  C_7
REMARK    4  A    between atoms: C_7  and  C_8
REMARK    5  A    between atoms: C_8  and  N_9
REMARK    6  A    between atoms: N_9  and  C_10
REMARK    7  A    between atoms: C_10  and  C_11
REMARK    8  A    between atoms: C_18  and  O_19
REMARK    9  A    between atoms: O_19  and  C_20
REMARK                            x       y       z     vdW  Elec       q    Type
REMARK                         _______ _______ _______ _____ _____    ______ ____
ROOT
ATOM      1  C   UNL     1       2.674   6.473  18.168  0.00  0.00    +0.000 C 
ENDROOT
BRANCH   1   5
ATOM      2  C   UNL     1       6.265   5.272  16.070  0.00  0.00    +0.000 A 
ATOM      3  C   UNL     1       5.190   4.376  16.233  0.00  0.00    +0.000 A 
ATOM      4  C   UNL     1       4.034   4.750  16.917  0.00  0.00    +0.000 A 
ATOM      5  C   UNL     1       3.954   6.006  17.515  0.00  0.00    +0.000 A 
ATOM      6  C   UNL     1       5.069   6.853  17.448  0.00  0.00    +0.000 A 
ATOM      7  C   UNL     1       6.225   6.502  16.739  0.00  0.00    +0.000 A 
BRANCH   2   9
ATOM      8  C   UNL     1       6.989   4.530  13.950  0.00  0.00    +0.000 C 
ATOM      9  O   UNL     1       7.333   4.943  15.275  0.00  0.00    +0.000 OA
ENDBRANCH   2   9
BRANCH   7  10
ATOM     10  O   UNL     1       7.171   7.494  16.800  0.00  0.00    +0.000 OA
ATOM     11  C   UNL     1       7.898   7.704  17.986  0.00  0.00    +0.000 C 
ENDBRANCH   7  10
ENDBRANCH   1   5
BRANCH   1  12
ATOM     12  C   UNL     1       2.809   6.478  19.699  0.00  0.00    +0.000 C 
BRANCH  12  13
ATOM     13  N   UNL     1       1.697   5.775  20.350  0.00  0.00    +0.000 NA
ATOM     14  H   UNL     1       1.031   5.465  19.640  0.00  0.00    +0.000 HD
BRANCH  13  15
ATOM     15  C   UNL     1       2.204   4.573  21.039  0.00  0.00    +0.000 C 
BRANCH  15  16
ATOM     16  C   UNL     1       2.628   3.472  20.086  0.00  0.00    +0.000 A 
ATOM     17  C   UNL     1       1.724   2.958  19.155  0.00  0.00    +0.000 A 
ATOM     18  C   UNL     1       2.130   1.921  18.322  0.00  0.00    +0.000 A 
ATOM     19  C   UNL     1       3.422   1.421  18.437  0.00  0.00    +0.000 A 
ATOM     20  C   UNL     1       4.258   1.986  19.384  0.00  0.00    +0.000 A 
ATOM     21  N   UNL     1       3.895   2.995  20.205  0.00  0.00    +0.000 NA
ENDBRANCH  15  16
ENDBRANCH  13  15
ENDBRANCH  12  13
ENDBRANCH   1  12
TORSDOF 7
ENDMDL
MODEL 3
REMARK VINA RESULT:      -6.8      3.304      6.036
REMARK  Name = 
REMARK  9 active torsions:
REMARK  status: ('A' for Active; 'I' for Inactive)
REMARK    1  A    between atoms: C_1  and  O_2
REMARK    2  A    between atoms: O_2  and  C_3
REMARK    3  A    between atoms: C_6  and  C_7
REMARK    4  A    between atoms: C_7  and  C_8
REMARK    5  A    between atoms: C_8  and  N_9
REMARK    6  A    between atoms: N_9  and  C_10
REMARK    7  A    between atoms: C_10  and  C_11
REMARK    8  A    between atoms: C_18  and  O_19
REMARK    9  A    between atoms: O_19  and  C_20
REMARK                            x       y       z     vdW  Elec       q    Type
REMARK                         _______ _______ _______ _____ _____    ______ ____
ROOT
ATOM      1  C   UNL     1       3.035   6.562  19.526  0.00  0.00    +0.000 C 
ENDROOT
BRANCH   1   5
ATOM      2  C   UNL     1       5.562   4.321  16.818  0.00  0.00    +0.000 A 
ATOM      3  C   UNL     1       4.179   4.447  16.578  0.00  0.00    +0.000 A 
ATOM      4  C   UNL     1       3.356   5.157  17.451  0.00  0.00    +0.000 A 
ATOM      5  C   UNL     1       3.883   5.699  18.622  0.00  0.00    +0.000 A 
ATOM      6  C   UNL     1       5.236   5.476  18.913  0.00  0.00    +0.000 A 
ATOM      7  C   UNL     1       6.082   4.790  18.031  0.00  0.00    +0.000 A 
BRANCH   2   9
ATOM      8  C   UNL     1       6.974   4.662  14.958  0.00  0.00    +0.000 C 
ATOM      9  O   UNL     1       6.382   3.745  15.882  0.00  0.00    +0.000 OA
ENDBRANCH   2   9
BRANCH   7  10
ATOM     10  O   UNL     1       7.360   4.711  18.522  0.00  0.00    +0.000 OA
ATOM     11  C   UNL     1       7.874   5.747  19.324  0.00  0.00    +0.000 C 
ENDBRANCH   7  10
ENDBRANCH   1   5
BRANCH   1  12
ATOM     12  C   UNL     1       1.911   5.738  20.173  0.00  0.00    +0.000 C 
BRANCH  12  13
ATOM     13  N   UNL     1       2.354   5.084  21.412  0.00  0.00    +0.000 NA
ATOM     14  H   UNL     1       1.916   5.543  22.212  0.00  0.00    +0.000 HD
BRANCH  13  15
ATOM     15  C   UNL     1       1.917   3.675  21.412  0.00  0.00    +0.000 C 
BRANCH  15  16
ATOM     16  C   UNL     1       2.518   2.862  20.282  0.00  0.00    +0.000 A 
ATOM     17  C   UNL     1       1.730   2.465  19.201  0.00  0.00    +0.000 A 
ATOM     18  C   UNL     1       2.301   1.686  18.200  0.00  0.00    +0.000 A 
ATOM     19  C   UNL     1       3.639   1.322  18.300  0.00  0.00    +0.000 A 
ATOM     20  C   UNL     1       4.353   1.758  19.402  0.00  0.00    +0.000 A 
ATOM     21  N   UNL     1       3.829   2.517  20.388  0.00  0.00    +0.000 NA
ENDBRANCH  15  16
ENDBRANCH  13  15
ENDBRANCH  12  13
ENDBRANCH   1  12
TORSDOF 7
ENDMDL
MODEL 4
REMARK VINA RESULT:      -6.7      1.909      3.744
REMARK  Name = 
REMARK  9 active torsions:
REMARK  status: ('A' for Active; 'I' for Inactive)
REMARK    1  A    between atoms: C_1  and  O_2
REMARK    2  A    between atoms: O_2  and  C_3
REMARK    3  A    between atoms: C_6  and  C_7
REMARK    4  A    between atoms: C_7  and  C_8
REMARK    5  A    between atoms: C_8  and  N_9
REMARK    6  A    between atoms: N_9  and  C_10
REMARK    7  A    between atoms: C_10  and  C_11
REMARK    8  A    between atoms: C_18  and  O_19
REMARK    9  A    between atoms: O_19  and  C_20
REMARK                            x       y       z     vdW  Elec       q    Type
REMARK                         _______ _______ _______ _____ _____    ______ ____
ROOT
ATOM      1  C   UNL     1       4.115   3.293  17.163  0.00  0.00    +0.000 C 
ENDROOT
BRANCH   1   5
ATOM      2  C   UNL     1       2.251   6.136  19.844  0.00  0.00    +0.000 A 
ATOM      3  C   UNL     1       3.089   6.571  18.799  0.00  0.00    +0.000 A 
ATOM      4  C   UNL     1       3.703   5.663  17.937  0.00  0.00    +0.000 A 
ATOM      5  C   UNL     1       3.549   4.293  18.144  0.00  0.00    +0.000 A 
ATOM      6  C   UNL     1       2.807   3.862  19.252  0.00  0.00    +0.000 A 
ATOM      7  C   UNL     1       2.160   4.763  20.109  0.00  0.00    +0.000 A 
BRANCH   2   9
ATOM      8  C   UNL     1       1.693   8.403  20.188  0.00  0.00    +0.000 C 
ATOM      9  O   UNL     1       1.542   7.040  20.592  0.00  0.00    +0.000 OA
ENDBRANCH   2   9
BRANCH   7  10
ATOM     10  O   UNL     1       1.484   4.109  21.106  0.00  0.00    +0.000 OA
ATOM     11  C   UNL     1       2.096   3.046  21.796  0.00  0.00    +0.000 C 
ENDBRANCH   7  10
ENDBRANCH   1   5
BRANCH   1  12
ATOM     12  C   UNL     1       4.741   4.006  15.954  0.00  0.00    +0.000 C 
BRANCH  12  13
ATOM     13  N   UNL     1       6.018   3.397  15.560  0.00  0.00    +0.000 NA
ATOM     14  H   UNL     1       5.892   2.883  14.686  0.00  0.00    +0.000 HD
BRANCH  13  15
ATOM     15  C   UNL     1       7.018   4.453  15.315  0.00  0.00    +0.000 C 
BRANCH  15  16
ATOM     16  C   UNL     1       7.348   5.263  16.553  0.00  0.00    +0.000 A 
ATOM     17  C   UNL     1       7.599   4.624  17.768  0.00  0.00    +0.000 A 
ATOM     18  C   UNL     1       7.859   5.397  18.895  0.00  0.00    +0.000 A 
ATOM     19  C   UNL     1       7.862   6.782  18.786  0.00  0.00    +0.000 A 
ATOM     20  C   UNL     1       7.605   7.339  17.546  0.00  0.00    +0.000 A 
ATOM     21  N   UNL     1       7.352   6.618  16.432  0.00  0.00    +0.000 NA
ENDBRANCH  15  16
ENDBRANCH  13  15
ENDBRANCH  12  13
ENDBRANCH   1  12
TORSDOF 7
ENDMDL
MODEL 5
REMARK VINA RESULT:      -6.4      3.388      6.297
REMARK  Name = 
REMARK  9 active torsions:
REMARK  status: ('A' for Active; 'I' for Inactive)
REMARK    1  A    between atoms: C_1  and  O_2
REMARK    2  A    between atoms: O_2  and  C_3
REMARK    3  A    between atoms: C_6  and  C_7
REMARK    4  A    between atoms: C_7  and  C_8
REMARK    5  A    between atoms: C_8  and  N_9
REMARK    6  A    between atoms: N_9  and  C_10
REMARK    7  A    between atoms: C_10  and  C_11
REMARK    8  A    between atoms: C_18  and  O_19
REMARK    9  A    between atoms: O_19  and  C_20
REMARK                            x       y       z     vdW  Elec       q    Type
REMARK                         _______ _______ _______ _____ _____    ______ ____
ROOT
ATOM      1  C   UNL     1       2.424   6.549  18.043  0.00  0.00    +0.000 C 
ENDROOT
BRANCH   1   5
ATOM      2  C   UNL     1       6.261   5.670  16.243  0.00  0.00    +0.000 A 
ATOM      3  C   UNL     1       5.260   4.682  16.327  0.00  0.00    +0.000 A 
ATOM      4  C   UNL     1       4.025   4.953  16.916  0.00  0.00    +0.000 A 
ATOM      5  C   UNL     1       3.787   6.197  17.497  0.00  0.00    +0.000 A 
ATOM      6  C   UNL     1       4.825   7.139  17.511  0.00  0.00    +0.000 A 
ATOM      7  C   UNL     1       6.061   6.892  16.897  0.00  0.00    +0.000 A 
BRANCH   2   9
ATOM      8  C   UNL     1       7.230   4.736  14.303  0.00  0.00    +0.000 C 
ATOM      9  O   UNL     1       7.413   5.437  15.536  0.00  0.00    +0.000 OA
ENDBRANCH   2   9
BRANCH   7  10
ATOM     10  O   UNL     1       6.907   7.964  17.025  0.00  0.00    +0.000 OA
ATOM     11  C   UNL     1       7.975   7.915  17.940  0.00  0.00    +0.000 C 
ENDBRANCH   7  10
ENDBRANCH   1   5
BRANCH   1  12
ATOM     12  C   UNL     1       2.533   7.110  19.470  0.00  0.00    +0.000 C 
BRANCH  12  13
ATOM     13  N   UNL     1       2.788   6.053  20.457  0.00  0.00    +0.000 NA
ATOM     14  H   UNL     1       2.694   6.440  21.398  0.00  0.00    +0.000 HD
BRANCH  13  15
ATOM     15  C   UNL     1       1.781   4.985  20.312  0.00  0.00    +0.000 C 
BRANCH  15  16
ATOM     16  C   UNL     1       2.340   3.717  19.696  0.00  0.00    +0.000 A 
ATOM     17  C   UNL     1       3.575   3.215  20.111  0.00  0.00    +0.000 A 
ATOM     18  C   UNL     1       4.078   2.072  19.498  0.00  0.00    +0.000 A 
ATOM     19  C   UNL     1       3.344   1.460  18.490  0.00  0.00    +0.000 A 
ATOM     20  C   UNL     1       2.128   2.018  18.137  0.00  0.00    +0.000 A 
ATOM     21  N   UNL     1       1.610   3.124  18.714  0.00  0.00    +0.000 NA
ENDBRANCH  15  16
ENDBRANCH  13  15
ENDBRANCH  12  13
ENDBRANCH   1  12
TORSDOF 7
ENDMDL
MODEL 6
REMARK VINA RESULT:      -6.4      1.083      1.140
REMARK  Name = 
REMARK  9 active torsions:
REMARK  status: ('A' for Active; 'I' for Inactive)
REMARK    1  A    between atoms: C_1  and  O_2
REMARK    2  A    between atoms: O_2  and  C_3
REMARK    3  A    between atoms: C_6  and  C_7
REMARK    4  A    between atoms: C_7  and  C_8
REMARK    5  A    between atoms: C_8  and  N_9
REMARK    6  A    between atoms: N_9  and  C_10
REMARK    7  A    between atoms: C_10  and  C_11
REMARK    8  A    between atoms: C_18  and  O_19
REMARK    9  A    between atoms: O_19  and  C_20
REMARK                            x       y       z     vdW  Elec       q    Type
REMARK                         _______ _______ _______ _____ _____    ______ ____
ROOT
ATOM      1  C   UNL     1       4.714   7.040  17.628  0.00  0.00    +0.000 C 
ENDROOT
BRANCH   1   5
ATOM      2  C   UNL     1       2.017   3.697  18.169  0.00  0.00    +0.000 A 
ATOM      3  C   UNL     1       1.521   4.995  17.935  0.00  0.00    +0.000 A 
ATOM      4  C   UNL     1       2.381   6.079  17.771  0.00  0.00    +0.000 A 
ATOM      5  C   UNL     1       3.757   5.904  17.907  0.00  0.00    +0.000 A 
ATOM      6  C   UNL     1       4.241   4.635  18.252  0.00  0.00    +0.000 A 
ATOM      7  C   UNL     1       3.390   3.529  18.390  0.00  0.00    +0.000 A 
BRANCH   2   9
ATOM      8  C   UNL     1       0.653   2.281  19.474  0.00  0.00    +0.000 C 
ATOM      9  O   UNL     1       1.170   2.619  18.185  0.00  0.00    +0.000 OA
ENDBRANCH   2   9
BRANCH   7  10
ATOM     10  O   UNL     1       4.090   2.395  18.712  0.00  0.00    +0.000 OA
ATOM     11  C   UNL     1       4.471   2.154  20.045  0.00  0.00    +0.000 C 
ENDBRANCH   7  10
ENDBRANCH   1   5
BRANCH   1  12
ATOM     12  C   UNL     1       5.499   6.789  16.331  0.00  0.00    +0.000 C 
BRANCH  12  13
ATOM     13  N   UNL     1       6.903   6.448  16.597  0.00  0.00    +0.000 NA
ATOM     14  H   UNL     1       7.093   6.555  17.595  0.00  0.00    +0.000 HD
BRANCH  13  15
ATOM     15  C   UNL     1       7.146   5.036  16.247  0.00  0.00    +0.000 C 
BRANCH  15  16
ATOM     16  C   UNL     1       7.057   4.766  14.757  0.00  0.00    +0.000 A 
ATOM     17  C   UNL     1       6.158   3.819  14.264  0.00  0.00    +0.000 A 
ATOM     18  C   UNL     1       6.129   3.565  12.897  0.00  0.00    +0.000 A 
ATOM     19  C   UNL     1       6.993   4.257  12.057  0.00  0.00    +0.000 A 
ATOM     20  C   UNL     1       7.853   5.181  12.623  0.00  0.00    +0.000 A 
ATOM     21  N   UNL     1       7.904   5.453  13.945  0.00  0.00    +0.000 NA
ENDBRANCH  15  16
ENDBRANCH  13  15
ENDBRANCH  12  13
ENDBRANCH   1  12
TORSDOF 7
ENDMDL
MODEL 7
REMARK VINA RESULT:      -6.3      3.596      6.192
REMARK  Name = 
REMARK  9 active torsions:
REMARK  status: ('A' for Active; 'I' for Inactive)
REMARK    1  A    between atoms: C_1  and  O_2
REMARK    2  A    between atoms: O_2  and  C_3
REMARK    3  A    between atoms: C_6  and  C_7
REMARK    4  A    between atoms: C_7  and  C_8
REMARK    5  A    between atoms: C_8  and  N_9
REMARK    6  A    between atoms: N_9  and  C_10
REMARK    7  A    between atoms: C_10  and  C_11
REMARK    8  A    between atoms: C_18  and  O_19
REMARK    9  A    between atoms: O_19  and  C_20
REMARK                            x       y       z     vdW  Elec       q    Type
REMARK                         _______ _______ _______ _____ _____    ______ ____
ROOT
ATOM      1  C   UNL     1       4.524   6.019  17.436  0.00  0.00    +0.000 C 
ENDROOT
BRANCH   1   5
ATOM      2  C   UNL     1       1.598   8.014  19.925  0.00  0.00    +0.000 A 
ATOM      3  C   UNL     1       2.113   6.753  20.286  0.00  0.00    +0.000 A 
ATOM      4  C   UNL     1       3.047   6.098  19.485  0.00  0.00    +0.000 A 
ATOM      5  C   UNL     1       3.436   6.656  18.268  0.00  0.00    +0.000 A 
ATOM      6  C   UNL     1       2.837   7.855  17.859  0.00  0.00    +0.000 A 
ATOM      7  C   UNL     1       1.919   8.540  18.668  0.00  0.00    +0.000 A 
BRANCH   2   9
ATOM      8  C   UNL     1       1.387   9.011  22.054  0.00  0.00    +0.000 C 
ATOM      9  O   UNL     1       0.792   8.711  20.789  0.00  0.00    +0.000 OA
ENDBRANCH   2   9
BRANCH   7  10
ATOM     10  O   UNL     1       1.484   9.693  18.066  0.00  0.00    +0.000 OA
ATOM     11  C   UNL     1       0.108   9.980  18.002  0.00  0.00    +0.000 C 
ENDBRANCH   7  10
ENDBRANCH   1   5
BRANCH   1  12
ATOM     12  C   UNL     1       4.079   4.645  16.911  0.00  0.00    +0.000 C 
BRANCH  12  13
ATOM     13  N   UNL     1       4.775   3.545  17.592  0.00  0.00    +0.000 NA
ATOM     14  H   UNL     1       5.097   3.865  18.507  0.00  0.00    +0.000 HD
BRANCH  13  15
ATOM     15  C   UNL     1       3.839   2.427  17.814  0.00  0.00    +0.000 C 
BRANCH  15  16
ATOM     16  C   UNL     1       2.927   2.639  19.006  0.00  0.00    +0.000 A 
ATOM     17  C   UNL     1       3.437   2.584  20.304  0.00  0.00    +0.000 A 
ATOM     18  C   UNL     1       2.567   2.743  21.378  0.00  0.00    +0.000 A 
ATOM     19  C   UNL     1       1.215   2.951  21.134  0.00  0.00    +0.000 A 
ATOM     20  C   UNL     1       0.788   2.995  19.819  0.00  0.00    +0.000 A 
ATOM     21  N   UNL     1       1.607   2.848  18.755  0.00  0.00    +0.000 NA
ENDBRANCH  15  16
ENDBRANCH  13  15
ENDBRANCH  12  13
ENDBRANCH   1  12
TORSDOF 7
ENDMDL
MODEL 8
REMARK VINA RESULT:      -6.3      3.652      5.572
REMARK  Name = 
REMARK  9 active torsions:
REMARK  status: ('A' for Active; 'I' for Inactive)
REMARK    1  A    between atoms: C_1  and  O_2
REMARK    2  A    between atoms: O_2  and  C_3
REMARK    3  A    between atoms: C_6  and  C_7
REMARK    4  A    between atoms: C_7  and  C_8
REMARK    5  A    between atoms: C_8  and  N_9
REMARK    6  A    between atoms: N_9  and  C_10
REMARK    7  A    between atoms: C_10  and  C_11
REMARK    8  A    between atoms: C_18  and  O_19
REMARK    9  A    between atoms: O_19  and  C_20
REMARK                            x       y       z     vdW  Elec       q    Type
REMARK                         _______ _______ _______ _____ _____    ______ ____
ROOT
ATOM      1  C   UNL     1       2.749   5.580  19.671  0.00  0.00    +0.000 C 
ENDROOT
BRANCH   1   5
ATOM      2  C   UNL     1       1.356   9.586  18.807  0.00  0.00    +0.000 A 
ATOM      3  C   UNL     1       2.125   8.871  17.868  0.00  0.00    +0.000 A 
ATOM      4  C   UNL     1       2.588   7.585  18.142  0.00  0.00    +0.000 A 
ATOM      5  C   UNL     1       2.352   7.010  19.389  0.00  0.00    +0.000 A 
ATOM      6  C   UNL     1       1.684   7.768  20.361  0.00  0.00    +0.000 A 
ATOM      7  C   UNL     1       1.187   9.050  20.090  0.00  0.00    +0.000 A 
BRANCH   2   9
ATOM      8  C   UNL     1       1.626  11.928  18.679  0.00  0.00    +0.000 C 
ATOM      9  O   UNL     1       0.787  10.788  18.472  0.00  0.00    +0.000 OA
ENDBRANCH   2   9
BRANCH   7  10
ATOM     10  O   UNL     1       0.559   9.585  21.185  0.00  0.00    +0.000 OA
ATOM     11  C   UNL     1       0.980   9.239  22.482  0.00  0.00    +0.000 C 
ENDBRANCH   7  10
ENDBRANCH   1   5
BRANCH   1  12
ATOM     12  C   UNL     1       2.734   4.743  18.382  0.00  0.00    +0.000 C 
BRANCH  12  13
ATOM     13  N   UNL     1       3.826   3.762  18.352  0.00  0.00    +0.000 NA
ATOM     14  H   UNL     1       3.442   2.834  18.167  0.00  0.00    +0.000 HD
BRANCH  13  15
ATOM     15  C   UNL     1       4.755   4.086  17.252  0.00  0.00    +0.000 C 
BRANCH  15  16
ATOM     16  C   UNL     1       5.824   5.086  17.648  0.00  0.00    +0.000 A 
ATOM     17  C   UNL     1       5.893   6.331  17.021  0.00  0.00    +0.000 A 
ATOM     18  C   UNL     1       6.911   7.210  17.379  0.00  0.00    +0.000 A 
ATOM     19  C   UNL     1       7.831   6.829  18.347  0.00  0.00    +0.000 A 
ATOM     20  C   UNL     1       7.693   5.578  18.923  0.00  0.00    +0.000 A 
ATOM     21  N   UNL     1       6.716   4.703  18.601  0.00  0.00    +0.000 NA
ENDBRANCH  15  16
ENDBRANCH  13  15
ENDBRANCH  12  13
ENDBRANCH   1  12
TORSDOF 7
ENDMDL
MODEL 9
REMARK VINA RESULT:      -6.2      1.375      2.414
REMARK  Name = 
REMARK  9 active torsions:
REMARK  status: ('A' for Active; 'I' for Inactive)
REMARK    1  A    between atoms: C_1  and  O_2
REMARK    2  A    between atoms: O_2  and  C_3
REMARK    3  A    between atoms: C_6  and  C_7
REMARK    4  A    between atoms: C_7  and  C_8
REMARK    5  A    between atoms: C_8  and  N_9
REMARK    6  A    between atoms: N_9  and  C_10
REMARK    7  A    between atoms: C_10  and  C_11
REMARK    8  A    between atoms: C_18  and  O_19
REMARK    9  A    between atoms: O_19  and  C_20
REMARK                            x       y       z     vdW  Elec       q    Type
REMARK                         _______ _______ _______ _____ _____    ______ ____
ROOT
ATOM      1  C   UNL     1       4.263   6.288  16.914  0.00  0.00    +0.000 C 
ENDROOT
BRANCH   1   5
ATOM      2  C   UNL     1       1.540   4.390  19.692  0.00  0.00    +0.000 A 
ATOM      3  C   UNL     1       1.795   3.821  18.428  0.00  0.00    +0.000 A 
ATOM      4  C   UNL     1       2.662   4.432  17.522  0.00  0.00    +0.000 A 
ATOM      5  C   UNL     1       3.240   5.661  17.831  0.00  0.00    +0.000 A 
ATOM      6  C   UNL     1       2.897   6.279  19.042  0.00  0.00    +0.000 A 
ATOM      7  C   UNL     1       2.051   5.663  19.975  0.00  0.00    +0.000 A 
BRANCH   2   9
ATOM      8  C   UNL     1       1.559   2.839  21.471  0.00  0.00    +0.000 C 
ATOM      9  O   UNL     1       0.802   3.709  20.626  0.00  0.00    +0.000 OA
ENDBRANCH   2   9
BRANCH   7  10
ATOM     10  O   UNL     1       1.876   6.447  21.086  0.00  0.00    +0.000 OA
ATOM     11  C   UNL     1       1.166   7.658  20.991  0.00  0.00    +0.000 C 
ENDBRANCH   7  10
ENDBRANCH   1   5
BRANCH   1  12
ATOM     12  C   UNL     1       5.657   6.283  17.562  0.00  0.00    +0.000 C 
BRANCH  12  13
ATOM     13  N   UNL     1       6.166   4.919  17.757  0.00  0.00    +0.000 NA
ATOM     14  H   UNL     1       5.462   4.248  17.446  0.00  0.00    +0.000 HD
BRANCH  13  15
ATOM     15  C   UNL     1       7.371   4.716  16.931  0.00  0.00    +0.000 C 
BRANCH  15  16
ATOM     16  C   UNL     1       7.067   4.591  15.451  0.00  0.00    +0.000 A 
ATOM     17  C   UNL     1       6.023   3.776  15.011  0.00  0.00    +0.000 A 
ATOM     18  C   UNL     1       5.795   3.651  13.645  0.00  0.00    +0.000 A 
ATOM     19  C   UNL     1       6.610   4.337  12.752  0.00  0.00    +0.000 A 
ATOM     20  C   UNL     1       7.623   5.125  13.268  0.00  0.00    +0.000 A 
ATOM     21  N   UNL     1       7.868   5.271  14.588  0.00  0.00    +0.000 NA
ENDBRANCH  15  16
ENDBRANCH  13  15
ENDBRANCH  12  13
ENDBRANCH   1  12
TORSDOF 7
ENDMDL
