MODEL 1
REMARK VINA RESULT:      -7.6      0.000      0.000
REMARK  Name = 
REMARK  5 active torsions:
REMARK  status: ('A' for Active; 'I' for Inactive)
REMARK    1  A    between atoms: C_1  and  O_2
REMARK    2  A    between atoms: O_2  and  C_3
REMARK    3  A    between atoms: C_6  and  C_7
REMARK    4  A    between atoms: C_7  and  C_8
REMARK    5  A    between atoms: C_12  and  O_13
REMARK                            x       y       z     vdW  Elec       q    Type
REMARK                         _______ _______ _______ _____ _____    ______ ____
ROOT
ATOM      1  C   UNL     1       4.489   3.614  18.106  0.00  0.00    +0.000 C 
ATOM      2  N   UNL     1       4.146   2.306  17.495  0.00  0.00    +0.000 NA
ATOM      3  C   UNL     1       3.420   1.414  18.392  0.00  0.00    +0.000 C 
ATOM      4  C   UNL     1       2.130   2.060  18.890  0.00  0.00    +0.000 C 
ATOM      5  C   UNL     1       2.429   3.372  19.619  0.00  0.00    +0.000 C 
ATOM      6  C   UNL     1       1.129   4.049  20.093  0.00  0.00    +0.000 C 
ATOM      7  C   UNL     1       1.409   5.387  20.776  0.00  0.00    +0.000 C 
ATOM      8  C   UNL     1       2.214   6.317  19.874  0.00  0.00    +0.000 C 
ATOM      9  C   UNL     1       3.504   5.659  19.375  0.00  0.00    +0.000 C 
ATOM     10  C   UNL     1       3.209   4.316  18.670  0.00  0.00    +0.000 C 
ATOM     11  H   UNL     1       5.024   1.846  17.220  0.00  0.00    +0.000 HD
ENDROOT
BRANCH   5  12
ATOM     12  O   UNL     1       3.226   3.087  20.778  0.00  0.00    +0.000 OA
ATOM     13  H   UNL     1       2.996   2.194  21.088  0.00  0.00    +0.000 HD
ENDBRANCH   5  12
BRANCH   1  14
ATOM     14  C   UNL     1       5.205   4.484  17.026  0.00  0.00    +0.000 C 
BRANCH  14  18
ATOM     15  C   UNL     1       8.019   7.498  18.418  0.00  0.00    +0.000 A 
ATOM     16  C   UNL     1       7.081   7.795  17.424  0.00  0.00    +0.000 A 
ATOM     17  C   UNL     1       6.172   6.823  16.996  0.00  0.00    +0.000 A 
ATOM     18  C   UNL     1       6.183   5.536  17.530  0.00  0.00    +0.000 A 
ATOM     19  C   UNL     1       7.107   5.256  18.547  0.00  0.00    +0.000 A 
ATOM     20  C   UNL     1       8.037   6.229  18.973  0.00  0.00    +0.000 A 
BRANCH  15  22
ATOM     21  C   UNL     1       8.572   9.779  18.168  0.00  0.00    +0.000 C 
ATOM     22  O   UNL     1       8.868   8.518  18.759  0.00  0.00    +0.000 OA
ENDBRANCH  15  22
ENDBRANCH  14  18
ENDBRANCH   1  14
TORSDOF 4
ENDMDL
MODEL 2
REMARK VINA RESULT:      -7.5      0.148      1.082
REMARK  Name = 
REMARK  5 active torsions:
REMARK  status: ('A' for Active; 'I' for Inactive)
REMARK    1  A    between atoms: C_1  and  O_2
REMARK    2  A    between atoms: O_2  and  C_3
REMARK    3  A    between atoms: C_6  and  C_7
REMARK    4  A    between atoms: C_7  and  C_8
REMARK    5  A    between atoms: C_12  and  O_13
REMARK                            x       y       z     vdW  Elec       q    Type
REMARK                         _______ _______ _______ _____ _____    ______ ____
ROOT
ATOM      1  C   UNL     1       4.466   3.505  18.143  0.00  0.00    +0.000 C 
ATOM      2  N   UNL     1       4.088   2.175  17.605  0.00  0.00    +0.000 NA
ATOM      3  C   UNL     1       3.364   1.342  18.558  0.00  0.00    +0.000 C 
ATOM      4  C   UNL     1       2.094   2.036  19.046  0.00  0.00    +0.000 C 
ATOM      5  C   UNL     1       2.430   3.376  19.703  0.00  0.00    +0.000 C 
ATOM      6  C   UNL     1       1.153   4.100  20.167  0.00  0.00    +0.000 C 
ATOM      7  C   UNL     1       1.469   5.466  20.777  0.00  0.00    +0.000 C 
ATOM      8  C   UNL     1       2.273   6.334  19.815  0.00  0.00    +0.000 C 
ATOM      9  C   UNL     1       3.541   5.628  19.326  0.00  0.00    +0.000 C 
ATOM     10  C   UNL     1       3.209   4.258  18.695  0.00  0.00    +0.000 C 
ATOM     11  H   UNL     1       4.952   1.685  17.337  0.00  0.00    +0.000 HD
ENDROOT
BRANCH   5  12
ATOM     12  O   UNL     1       3.245   3.135  20.860  0.00  0.00    +0.000 OA
ATOM     13  H   UNL     1       4.154   2.964  20.556  0.00  0.00    +0.000 HD
ENDBRANCH   5  12
BRANCH   1  14
ATOM     14  C   UNL     1       5.176   4.306  17.008  0.00  0.00    +0.000 C 
BRANCH  14  18
ATOM     15  C   UNL     1       7.895   7.451  18.296  0.00  0.00    +0.000 A 
ATOM     16  C   UNL     1       7.926   6.186  18.891  0.00  0.00    +0.000 A 
ATOM     17  C   UNL     1       7.058   5.180  18.458  0.00  0.00    +0.000 A 
ATOM     18  C   UNL     1       6.134   5.408  17.441  0.00  0.00    +0.000 A 
ATOM     19  C   UNL     1       6.130   6.670  16.830  0.00  0.00    +0.000 A 
ATOM     20  C   UNL     1       6.994   7.695  17.273  0.00  0.00    +0.000 A 
BRANCH  15  22
ATOM     21  C   UNL     1       8.659   9.685  18.270  0.00  0.00    +0.000 C 
ATOM     22  O   UNL     1       8.781   8.368  18.799  0.00  0.00    +0.000 OA
ENDBRANCH  15  22
ENDBRANCH  14  18
ENDBRANCH   1  14
TORSDOF 4
ENDMDL
MODEL 3
REMARK VINA RESULT:      -7.3      3.060      5.611
REMARK  Name = 
REMARK  5 active torsions:
REMARK  status: ('A' for Active; 'I' for Inactive)
REMARK    1  A    between atoms: C_1  and  O_2
REMARK    2  A    between atoms: O_2  and  C_3
REMARK    3  A    between atoms: C_6  and  C_7
REMARK    4  A    between atoms: C_7  and  C_8
REMARK    5  A    between atoms: C_12  and  O_13
REMARK                            x       y       z     vdW  Elec       q    Type
REMARK                         _______ _______ _______ _____ _____    ______ ____
ROOT
ATOM      1  C   UNL     1       3.407   6.272  18.230  0.00  0.00    +0.000 C 
ATOM      2  N   UNL     1       4.623   6.577  17.438  0.00  0.00    +0.000 NA
ATOM      3  C   UNL     1       5.711   5.629  17.645  0.00  0.00    +0.000 C 
ATOM      4  C   UNL     1       5.273   4.204  17.313  0.00  0.00    +0.000 C 
ATOM      5  C   UNL     1       4.076   3.793  18.173  0.00  0.00    +0.000 C 
ATOM      6  C   UNL     1       3.604   2.370  17.820  0.00  0.00    +0.000 C 
ATOM      7  C   UNL     1       2.375   1.967  18.634  0.00  0.00    +0.000 C 
ATOM      8  C   UNL     1       1.243   2.976  18.474  0.00  0.00    +0.000 C 
ATOM      9  C   UNL     1       1.693   4.402  18.803  0.00  0.00    +0.000 C 
ATOM     10  C   UNL     1       2.923   4.807  17.962  0.00  0.00    +0.000 C 
ATOM     11  H   UNL     1       4.952   7.513  17.713  0.00  0.00    +0.000 HD
ENDROOT
BRANCH   5  12
ATOM     12  O   UNL     1       4.472   3.796  19.553  0.00  0.00    +0.000 OA
ATOM     13  H   UNL     1       5.434   3.946  19.588  0.00  0.00    +0.000 HD
ENDBRANCH   5  12
BRANCH   1  14
ATOM     14  C   UNL     1       2.313   7.324  17.870  0.00  0.00    +0.000 C 
BRANCH  14  18
ATOM     15  C   UNL     1       0.815   9.788  21.130  0.00  0.00    +0.000 A 
ATOM     16  C   UNL     1       1.342   8.516  21.374  0.00  0.00    +0.000 A 
ATOM     17  C   UNL     1       1.834   7.740  20.321  0.00  0.00    +0.000 A 
ATOM     18  C   UNL     1       1.801   8.199  19.006  0.00  0.00    +0.000 A 
ATOM     19  C   UNL     1       1.299   9.488  18.774  0.00  0.00    +0.000 A 
ATOM     20  C   UNL     1       0.787  10.270  19.832  0.00  0.00    +0.000 A 
BRANCH  15  22
ATOM     21  C   UNL     1      -0.208   9.646  23.253  0.00  0.00    +0.000 C 
ATOM     22  O   UNL     1       0.353  10.463  22.230  0.00  0.00    +0.000 OA
ENDBRANCH  15  22
ENDBRANCH  14  18
ENDBRANCH   1  14
TORSDOF 4
ENDMDL
MODEL 4
REMARK VINA RESULT:      -7.3      3.210      5.633
REMARK  Name = 
REMARK  5 active torsions:
REMARK  status: ('A' for Active; 'I' for Inactive)
REMARK    1  A    between atoms: C_1  and  O_2
REMARK    2  A    between atoms: O_2  and  C_3
REMARK    3  A    between atoms: C_6  and  C_7
REMARK    4  A    between atoms: C_7  and  C_8
REMARK    5  A    between atoms: C_12  and  O_13
REMARK                            x       y       z     vdW  Elec       q    Type
REMARK                         _______ _______ _______ _____ _____    ______ ____
ROOT
ATOM      1  C   UNL     1       3.413   6.506  18.195  0.00  0.00    +0.000 C 
ATOM      2  N   UNL     1       4.601   6.860  17.381  0.00  0.00    +0.000 NA
ATOM      3  C   UNL     1       5.709   5.924  17.523  0.00  0.00    +0.000 C 
ATOM      4  C   UNL     1       5.285   4.505  17.151  0.00  0.00    +0.000 C 
ATOM      5  C   UNL     1       4.119   4.042  18.029  0.00  0.00    +0.000 C 
ATOM      6  C   UNL     1       3.661   2.625  17.637  0.00  0.00    +0.000 C 
ATOM      7  C   UNL     1       2.461   2.172  18.469  0.00  0.00    +0.000 C 
ATOM      8  C   UNL     1       1.309   3.166  18.377  0.00  0.00    +0.000 C 
ATOM      9  C   UNL     1       1.745   4.587  18.746  0.00  0.00    +0.000 C 
ATOM     10  C   UNL     1       2.945   5.043  17.887  0.00  0.00    +0.000 C 
ATOM     11  H   UNL     1       4.922   7.791  17.680  0.00  0.00    +0.000 HD
ENDROOT
BRANCH   5  12
ATOM     12  O   UNL     1       4.554   4.003  19.396  0.00  0.00    +0.000 OA
ATOM     13  H   UNL     1       5.256   4.669  19.506  0.00  0.00    +0.000 HD
ENDBRANCH   5  12
BRANCH   1  14
ATOM     14  C   UNL     1       2.291   7.551  17.903  0.00  0.00    +0.000 C 
BRANCH  14  18
ATOM     15  C   UNL     1       0.821   9.852  21.293  0.00  0.00    +0.000 A 
ATOM     16  C   UNL     1       0.782  10.376  19.997  0.00  0.00    +0.000 A 
ATOM     17  C   UNL     1       1.243   9.622  18.915  0.00  0.00    +0.000 A 
ATOM     18  C   UNL     1       1.765   8.343  19.093  0.00  0.00    +0.000 A 
ATOM     19  C   UNL     1       1.773   7.813  20.391  0.00  0.00    +0.000 A 
ATOM     20  C   UNL     1       1.323   8.576  21.491  0.00  0.00    +0.000 A 
BRANCH  15  22
ATOM     21  C   UNL     1      -0.743  10.161  23.034  0.00  0.00    +0.000 C 
ATOM     22  O   UNL     1       0.353  10.675  22.283  0.00  0.00    +0.000 OA
ENDBRANCH  15  22
ENDBRANCH  14  18
ENDBRANCH   1  14
TORSDOF 4
ENDMDL
MODEL 5
REMARK VINA RESULT:      -7.2      2.667      5.710
REMARK  Name = 
REMARK  5 active torsions:
REMARK  status: ('A' for Active; 'I' for Inactive)
REMARK    1  A    between atoms: C_1  and  O_2
REMARK    2  A    between atoms: O_2  and  C_3
REMARK    3  A    between atoms: C_6  and  C_7
REMARK    4  A    between atoms: C_7  and  C_8
REMARK    5  A    between atoms: C_12  and  O_13
REMARK                            x       y       z     vdW  Elec       q    Type
REMARK                         _______ _______ _______ _____ _____    ______ ____
ROOT
ATOM      1  C   UNL     1       5.403   4.456  18.641  0.00  0.00    +0.000 C 
ATOM      2  N   UNL     1       5.980   5.425  19.603  0.00  0.00    +0.000 NA
ATOM      3  C   UNL     1       7.399   5.686  19.393  0.00  0.00    +0.000 C 
ATOM      4  C   UNL     1       7.663   6.203  17.982  0.00  0.00    +0.000 C 
ATOM      5  C   UNL     1       7.176   5.197  16.937  0.00  0.00    +0.000 C 
ATOM      6  C   UNL     1       7.405   5.727  15.509  0.00  0.00    +0.000 C 
ATOM      7  C   UNL     1       6.874   4.754  14.456  0.00  0.00    +0.000 C 
ATOM      8  C   UNL     1       5.403   4.427  14.690  0.00  0.00    +0.000 C 
ATOM      9  C   UNL     1       5.147   3.914  16.110  0.00  0.00    +0.000 C 
ATOM     10  C   UNL     1       5.670   4.911  17.167  0.00  0.00    +0.000 C 
ATOM     11  H   UNL     1       5.857   5.041  20.550  0.00  0.00    +0.000 HD
ENDROOT
BRANCH   5  12
ATOM     12  O   UNL     1       7.923   3.980  17.081  0.00  0.00    +0.000 OA
ATOM     13  H   UNL     1       8.852   4.217  17.252  0.00  0.00    +0.000 HD
ENDBRANCH   5  12
BRANCH   1  14
ATOM     14  C   UNL     1       3.878   4.318  18.942  0.00  0.00    +0.000 C 
BRANCH  14  18
ATOM     15  C   UNL     1       1.706   8.037  19.572  0.00  0.00    +0.000 A 
ATOM     16  C   UNL     1       2.374   7.790  18.369  0.00  0.00    +0.000 A 
ATOM     17  C   UNL     1       3.055   6.585  18.172  0.00  0.00    +0.000 A 
ATOM     18  C   UNL     1       3.103   5.609  19.165  0.00  0.00    +0.000 A 
ATOM     19  C   UNL     1       2.405   5.853  20.358  0.00  0.00    +0.000 A 
ATOM     20  C   UNL     1       1.727   7.074  20.568  0.00  0.00    +0.000 A 
BRANCH  15  22
ATOM     21  C   UNL     1       1.087  10.034  18.477  0.00  0.00    +0.000 C 
ATOM     22  O   UNL     1       1.076   9.250  19.666  0.00  0.00    +0.000 OA
ENDBRANCH  15  22
ENDBRANCH  14  18
ENDBRANCH   1  14
TORSDOF 4
ENDMDL
MODEL 6
REMARK VINA RESULT:      -7.1      2.651      5.924
REMARK  Name = 
REMARK  5 active torsions:
REMARK  status: ('A' for Active; 'I' for Inactive)
REMARK    1  A    between atoms: C_1  and  O_2
REMARK    2  A    between atoms: O_2  and  C_3
REMARK    3  A    between atoms: C_6  and  C_7
REMARK    4  A    between atoms: C_7  and  C_8
REMARK    5  A    between atoms: C_12  and  O_13
REMARK                            x       y       z     vdW  Elec       q    Type
REMARK                         _______ _______ _______ _____ _____    ______ ____
ROOT
ATOM      1  C   UNL     1       5.259   4.519  18.537  0.00  0.00    +0.000 C 
ATOM      2  N   UNL     1       5.828   5.463  19.530  0.00  0.00    +0.000 NA
ATOM      3  C   UNL     1       7.264   5.671  19.385  0.00  0.00    +0.000 C 
ATOM      4  C   UNL     1       7.610   6.184  17.990  0.00  0.00    +0.000 C 
ATOM      5  C   UNL     1       7.133   5.200  16.919  0.00  0.00    +0.000 C 
ATOM      6  C   UNL     1       7.446   5.727  15.506  0.00  0.00    +0.000 C 
ATOM      7  C   UNL     1       6.926   4.779  14.425  0.00  0.00    +0.000 C 
ATOM      8  C   UNL     1       5.435   4.506  14.591  0.00  0.00    +0.000 C 
ATOM      9  C   UNL     1       5.097   3.997  15.995  0.00  0.00    +0.000 C 
ATOM     10  C   UNL     1       5.609   4.970  17.079  0.00  0.00    +0.000 C 
ATOM     11  H   UNL     1       5.649   5.080  20.469  0.00  0.00    +0.000 HD
ENDROOT
BRANCH   5  12
ATOM     12  O   UNL     1       7.828   3.956  17.089  0.00  0.00    +0.000 OA
ATOM     13  H   UNL     1       7.692   3.660  18.007  0.00  0.00    +0.000 HD
ENDBRANCH   5  12
BRANCH   1  14
ATOM     14  C   UNL     1       3.718   4.437  18.770  0.00  0.00    +0.000 C 
BRANCH  14  18
ATOM     15  C   UNL     1       1.631   8.135  19.726  0.00  0.00    +0.000 A 
ATOM     16  C   UNL     1       1.679   7.079  20.642  0.00  0.00    +0.000 A 
ATOM     17  C   UNL     1       2.366   5.903  20.330  0.00  0.00    +0.000 A 
ATOM     18  C   UNL     1       3.004   5.740  19.102  0.00  0.00    +0.000 A 
ATOM     19  C   UNL     1       2.975   6.815  18.201  0.00  0.00    +0.000 A 
ATOM     20  C   UNL     1       2.271   8.000  18.505  0.00  0.00    +0.000 A 
BRANCH  15  22
ATOM     21  C   UNL     1       0.060   9.037  21.239  0.00  0.00    +0.000 C 
ATOM     22  O   UNL     1       0.926   9.239  20.127  0.00  0.00    +0.000 OA
ENDBRANCH  15  22
ENDBRANCH  14  18
ENDBRANCH   1  14
TORSDOF 4
ENDMDL
MODEL 7
REMARK VINA RESULT:      -6.9      2.676      3.968
REMARK  Name = 
REMARK  5 active torsions:
REMARK  status: ('A' for Active; 'I' for Inactive)
REMARK    1  A    between atoms: C_1  and  O_2
REMARK    2  A    between atoms: O_2  and  C_3
REMARK    3  A    between atoms: C_6  and  C_7
REMARK    4  A    between atoms: C_7  and  C_8
REMARK    5  A    between atoms: C_12  and  O_13
REMARK                            x       y       z     vdW  Elec       q    Type
REMARK                         _______ _______ _______ _____ _____    ______ ____
ROOT
ATOM      1  C   UNL     1       3.621   5.550  18.933  0.00  0.00    +0.000 C 
ATOM      2  N   UNL     1       3.156   6.396  20.059  0.00  0.00    +0.000 NA
ATOM      3  C   UNL     1       1.748   6.212  20.388  0.00  0.00    +0.000 C 
ATOM      4  C   UNL     1       1.446   4.755  20.731  0.00  0.00    +0.000 C 
ATOM      5  C   UNL     1       1.815   3.837  19.563  0.00  0.00    +0.000 C 
ATOM      6  C   UNL     1       1.548   2.362  19.913  0.00  0.00    +0.000 C 
ATOM      7  C   UNL     1       1.962   1.429  18.776  0.00  0.00    +0.000 C 
ATOM      8  C   UNL     1       3.419   1.644  18.380  0.00  0.00    +0.000 C 
ATOM      9  C   UNL     1       3.714   3.108  18.043  0.00  0.00    +0.000 C 
ATOM     10  C   UNL     1       3.309   4.041  19.206  0.00  0.00    +0.000 C 
ATOM     11  H   UNL     1       3.302   7.380  19.796  0.00  0.00    +0.000 HD
ENDROOT
BRANCH   5  12
ATOM     12  O   UNL     1       1.000   4.176  18.431  0.00  0.00    +0.000 OA
ATOM     13  H   UNL     1       0.524   4.999  18.640  0.00  0.00    +0.000 HD
ENDBRANCH   5  12
BRANCH   1  14
ATOM     14  C   UNL     1       5.147   5.804  18.730  0.00  0.00    +0.000 C 
BRANCH  14  18
ATOM     15  C   UNL     1       6.743   4.842  14.796  0.00  0.00    +0.000 A 
ATOM     16  C   UNL     1       5.560   5.576  14.932  0.00  0.00    +0.000 A 
ATOM     17  C   UNL     1       5.066   5.892  16.200  0.00  0.00    +0.000 A 
ATOM     18  C   UNL     1       5.721   5.476  17.358  0.00  0.00    +0.000 A 
ATOM     19  C   UNL     1       6.922   4.766  17.212  0.00  0.00    +0.000 A 
ATOM     20  C   UNL     1       7.419   4.431  15.933  0.00  0.00    +0.000 A 
BRANCH  15  22
ATOM     21  C   UNL     1       6.269   3.723  12.771  0.00  0.00    +0.000 C 
ATOM     22  O   UNL     1       7.136   4.579  13.510  0.00  0.00    +0.000 OA
ENDBRANCH  15  22
ENDBRANCH  14  18
ENDBRANCH   1  14
TORSDOF 4
ENDMDL
MODEL 8
REMARK VINA RESULT:      -6.8      3.118      4.520
REMARK  Name = 
REMARK  5 active torsions:
REMARK  status: ('A' for Active; 'I' for Inactive)
REMARK    1  A    between atoms: C_1  and  O_2
REMARK    2  A    between atoms: O_2  and  C_3
REMARK    3  A    between atoms: C_6  and  C_7
REMARK    4  A    between atoms: C_7  and  C_8
REMARK    5  A    between atoms: C_12  and  O_13
REMARK                            x       y       z     vdW  Elec       q    Type
REMARK                         _______ _______ _______ _____ _____    ______ ____
ROOT
ATOM      1  C   UNL     1       4.171   5.370  18.033  0.00  0.00    +0.000 C 
ATOM      2  N   UNL     1       3.847   6.814  18.129  0.00  0.00    +0.000 NA
ATOM      3  C   UNL     1       2.477   7.080  18.549  0.00  0.00    +0.000 C 
ATOM      4  C   UNL     1       2.178   6.435  19.900  0.00  0.00    +0.000 C 
ATOM      5  C   UNL     1       2.400   4.922  19.837  0.00  0.00    +0.000 C 
ATOM      6  C   UNL     1       2.135   4.268  21.206  0.00  0.00    +0.000 C 
ATOM      7  C   UNL     1       2.407   2.764  21.172  0.00  0.00    +0.000 C 
ATOM      8  C   UNL     1       3.819   2.462  20.683  0.00  0.00    +0.000 C 
ATOM      9  C   UNL     1       4.112   3.117  19.331  0.00  0.00    +0.000 C 
ATOM     10  C   UNL     1       3.853   4.639  19.380  0.00  0.00    +0.000 C 
ATOM     11  H   UNL     1       3.988   7.232  17.199  0.00  0.00    +0.000 HD
ENDROOT
BRANCH   5  12
ATOM     12  O   UNL     1       1.480   4.357  18.893  0.00  0.00    +0.000 OA
ATOM     13  H   UNL     1       1.693   3.411  18.796  0.00  0.00    +0.000 HD
ENDBRANCH   5  12
BRANCH   1  14
ATOM     14  C   UNL     1       5.674   5.233  17.634  0.00  0.00    +0.000 C 
BRANCH  14  18
ATOM     15  C   UNL     1       6.513   4.166  13.499  0.00  0.00    +0.000 A 
ATOM     16  C   UNL     1       5.307   3.801  14.105  0.00  0.00    +0.000 A 
ATOM     17  C   UNL     1       5.042   4.162  15.428  0.00  0.00    +0.000 A 
ATOM     18  C   UNL     1       5.969   4.877  16.183  0.00  0.00    +0.000 A 
ATOM     19  C   UNL     1       7.163   5.266  15.558  0.00  0.00    +0.000 A 
ATOM     20  C   UNL     1       7.443   4.891  14.226  0.00  0.00    +0.000 A 
BRANCH  15  22
ATOM     21  C   UNL     1       5.803   2.713  11.779  0.00  0.00    +0.000 C 
ATOM     22  O   UNL     1       6.676   3.756  12.201  0.00  0.00    +0.000 OA
ENDBRANCH  15  22
ENDBRANCH  14  18
ENDBRANCH   1  14
TORSDOF 4
ENDMDL
MODEL 9
REMARK VINA RESULT:      -6.8      3.647      5.816
REMARK  Name = 
REMARK  5 active torsions:
REMARK  status: ('A' for Active; 'I' for Inactive)
REMARK    1  A    between atoms: C_1  and  O_2
REMARK    2  A    between atoms: O_2  and  C_3
REMARK    3  A    between atoms: C_6  and  C_7
REMARK    4  A    between atoms: C_7  and  C_8
REMARK    5  A    between atoms: C_12  and  O_13
REMARK                            x       y       z     vdW  Elec       q    Type
REMARK                         _______ _______ _______ _____ _____    ______ ____
ROOT
ATOM      1  C   UNL     1       1.863   5.630  19.595  0.00  0.00    +0.000 C 
ATOM      2  N   UNL     1       1.293   4.705  20.605  0.00  0.00    +0.000 NA
ATOM      3  C   UNL     1       0.911   3.407  20.061  0.00  0.00    +0.000 C 
ATOM      4  C   UNL     1       2.099   2.714  19.399  0.00  0.00    +0.000 C 
ATOM      5  C   UNL     1       2.673   3.581  18.276  0.00  0.00    +0.000 C 
ATOM      6  C   UNL     1       3.894   2.906  17.625  0.00  0.00    +0.000 C 
ATOM      7  C   UNL     1       4.511   3.786  16.537  0.00  0.00    +0.000 C 
ATOM      8  C   UNL     1       4.868   5.168  17.073  0.00  0.00    +0.000 C 
ATOM      9  C   UNL     1       3.672   5.853  17.741  0.00  0.00    +0.000 C 
ATOM     10  C   UNL     1       3.069   4.964  18.851  0.00  0.00    +0.000 C 
ATOM     11  H   UNL     1       0.454   5.149  21.003  0.00  0.00    +0.000 HD
ENDROOT
BRANCH   5  12
ATOM     12  O   UNL     1       1.671   3.751  17.262  0.00  0.00    +0.000 OA
ATOM     13  H   UNL     1       1.913   4.528  16.728  0.00  0.00    +0.000 HD
ENDBRANCH   5  12
BRANCH   1  14
ATOM     14  C   UNL     1       2.279   6.947  20.320  0.00  0.00    +0.000 C 
BRANCH  14  18
ATOM     15  C   UNL     1       0.295  10.591  19.003  0.00  0.00    +0.000 A 
ATOM     16  C   UNL     1       0.120  10.107  20.303  0.00  0.00    +0.000 A 
ATOM     17  C   UNL     1       0.774   8.945  20.719  0.00  0.00    +0.000 A 
ATOM     18  C   UNL     1       1.601   8.230  19.855  0.00  0.00    +0.000 A 
ATOM     19  C   UNL     1       1.795   8.738  18.563  0.00  0.00    +0.000 A 
ATOM     20  C   UNL     1       1.125   9.904  18.132  0.00  0.00    +0.000 A 
BRANCH  15  22
ATOM     21  C   UNL     1      -1.641  11.529  18.030  0.00  0.00    +0.000 C 
ATOM     22  O   UNL     1      -0.397  11.733  18.694  0.00  0.00    +0.000 OA
ENDBRANCH  15  22
ENDBRANCH  14  18
ENDBRANCH   1  14
TORSDOF 4
ENDMDL
