MODEL 1
REMARK VINA RESULT:      -7.6      0.000      0.000
REMARK  Name = 
REMARK  8 active torsions:
REMARK  status: ('A' for Active; 'I' for Inactive)
REMARK    1  A    between atoms: C_1  and  C_2
REMARK    2  A    between atoms: C_2  and  C_4
REMARK    3  A    between atoms: C_6  and  C_7
REMARK    4  A    between atoms: N_9  and  C_10
REMARK    5  A    between atoms: N_9  and  C_14
REMARK    6  A    between atoms: C_10  and  C_11
REMARK    7  A    between atoms: C_14  and  C_15
REMARK    8  A    between atoms: C_21  and  C_22
REMARK                            x       y       z     vdW  Elec       q    Type
REMARK                         _______ _______ _______ _____ _____    ______ ____
ROOT
ATOM      1  C   UNL     1       4.191   3.264  18.984  0.00  0.00    +0.000 C 
ATOM      2  O   UNL     1       4.534   2.349  19.732  0.00  0.00    +0.000 OA
ATOM      3  N   UNL     1       2.842   3.549  18.680  0.00  0.00    +0.000 N 
ENDROOT
BRANCH   1   6
ATOM      4  C   UNL     1       6.547   5.135  16.637  0.00  0.00    +0.000 A 
ATOM      5  C   UNL     1       5.699   4.126  17.135  0.00  0.00    +0.000 A 
ATOM      6  C   UNL     1       5.287   4.140  18.467  0.00  0.00    +0.000 A 
ATOM      7  C   UNL     1       5.898   5.030  19.353  0.00  0.00    +0.000 A 
ATOM      8  C   UNL     1       6.771   6.011  18.873  0.00  0.00    +0.000 A 
ATOM      9  C   UNL     1       7.034   6.133  17.499  0.00  0.00    +0.000 A 
ATOM     10  C   UNL     1       7.767   7.355  17.022  0.00  0.00    +0.000 C 
BRANCH   4  12
ATOM     11  C   UNL     1       5.658   4.699  14.243  0.00  0.00    +0.000 C 
ATOM     12  C   UNL     1       6.771   5.112  15.167  0.00  0.00    +0.000 C 
ATOM     13  O   UNL     1       7.871   5.453  14.734  0.00  0.00    +0.000 OA
ENDBRANCH   4  12
ENDBRANCH   1   6
BRANCH   3  14
ATOM     14  C   UNL     1       1.826   2.637  19.224  0.00  0.00    +0.000 C 
BRANCH  14  15
ATOM     15  C   UNL     1       1.201   3.179  20.476  0.00  0.00    +0.000 C 
ATOM     16  C   UNL     1       1.494   2.541  21.808  0.00  0.00    +0.000 C 
ATOM     17  C   UNL     1       2.043   3.905  21.498  0.00  0.00    +0.000 C 
ENDBRANCH  14  15
ENDBRANCH   3  14
BRANCH   3  18
ATOM     18  C   UNL     1       2.421   4.659  17.782  0.00  0.00    +0.000 C 
BRANCH  18  19
ATOM     19  C   UNL     1       2.612   6.145  18.136  0.00  0.00    +0.000 C 
ATOM     20  F   UNL     1       1.553   6.928  17.863  0.00  0.00    +0.000 F 
ATOM     21  F   UNL     1       2.876   6.282  19.458  0.00  0.00    +0.000 F 
ATOM     22  F   UNL     1       3.673   6.655  17.467  0.00  0.00    +0.000 F 
ENDBRANCH  18  19
ENDBRANCH   3  18
TORSDOF 6
ENDMDL
MODEL 2
REMARK VINA RESULT:      -7.4      3.240      6.045
REMARK  Name = 
REMARK  8 active torsions:
REMARK  status: ('A' for Active; 'I' for Inactive)
REMARK    1  A    between atoms: C_1  and  C_2
REMARK    2  A    between atoms: C_2  and  C_4
REMARK    3  A    between atoms: C_6  and  C_7
REMARK    4  A    between atoms: N_9  and  C_10
REMARK    5  A    between atoms: N_9  and  C_14
REMARK    6  A    between atoms: C_10  and  C_11
REMARK    7  A    between atoms: C_14  and  C_15
REMARK    8  A    between atoms: C_21  and  C_22
REMARK                            x       y       z     vdW  Elec       q    Type
REMARK                         _______ _______ _______ _____ _____    ______ ____
ROOT
ATOM      1  C   UNL     1       3.536   5.166  17.544  0.00  0.00    +0.000 C 
ATOM      2  O   UNL     1       2.728   4.318  17.167  0.00  0.00    +0.000 OA
ATOM      3  N   UNL     1       4.868   5.225  17.078  0.00  0.00    +0.000 N 
ENDROOT
BRANCH   1   6
ATOM      4  C   UNL     1       1.927   8.352  18.892  0.00  0.00    +0.000 A 
ATOM      5  C   UNL     1       2.649   7.489  18.045  0.00  0.00    +0.000 A 
ATOM      6  C   UNL     1       3.011   6.213  18.473  0.00  0.00    +0.000 A 
ATOM      7  C   UNL     1       2.849   5.883  19.820  0.00  0.00    +0.000 A 
ATOM      8  C   UNL     1       2.167   6.749  20.680  0.00  0.00    +0.000 A 
ATOM      9  C   UNL     1       1.618   7.952  20.204  0.00  0.00    +0.000 A 
ATOM     10  C   UNL     1       0.682   8.710  21.104  0.00  0.00    +0.000 C 
BRANCH   4  12
ATOM     11  C   UNL     1      -0.018   9.795  17.973  0.00  0.00    +0.000 C 
ATOM     12  C   UNL     1       1.447   9.611  18.263  0.00  0.00    +0.000 C 
ATOM     13  O   UNL     1       2.267  10.492  18.008  0.00  0.00    +0.000 OA
ENDBRANCH   4  12
ENDBRANCH   1   6
BRANCH   3  14
ATOM     14  C   UNL     1       5.308   4.156  16.170  0.00  0.00    +0.000 C 
BRANCH  14  15
ATOM     15  C   UNL     1       5.589   4.675  14.790  0.00  0.00    +0.000 C 
ATOM     16  C   UNL     1       7.009   4.836  14.315  0.00  0.00    +0.000 C 
ATOM     17  C   UNL     1       6.144   3.756  13.727  0.00  0.00    +0.000 C 
ENDBRANCH  14  15
ENDBRANCH   3  14
BRANCH   3  18
ATOM     18  C   UNL     1       5.848   6.253  17.525  0.00  0.00    +0.000 C 
BRANCH  18  19
ATOM     19  C   UNL     1       7.058   5.926  18.418  0.00  0.00    +0.000 C 
ATOM     20  F   UNL     1       7.816   4.902  17.986  0.00  0.00    +0.000 F 
ATOM     21  F   UNL     1       7.872   7.005  18.520  0.00  0.00    +0.000 F 
ATOM     22  F   UNL     1       6.648   5.622  19.673  0.00  0.00    +0.000 F 
ENDBRANCH  18  19
ENDBRANCH   3  18
TORSDOF 6
ENDMDL
MODEL 3
REMARK VINA RESULT:      -7.3      1.368      2.326
REMARK  Name = 
REMARK  8 active torsions:
REMARK  status: ('A' for Active; 'I' for Inactive)
REMARK    1  A    between atoms: C_1  and  C_2
REMARK    2  A    between atoms: C_2  and  C_4
REMARK    3  A    between atoms: C_6  and  C_7
REMARK    4  A    between atoms: N_9  and  C_10
REMARK    5  A    between atoms: N_9  and  C_14
REMARK    6  A    between atoms: C_10  and  C_11
REMARK    7  A    between atoms: C_14  and  C_15
REMARK    8  A    between atoms: C_21  and  C_22
REMARK                            x       y       z     vdW  Elec       q    Type
REMARK                         _______ _______ _______ _____ _____    ______ ____
ROOT
ATOM      1  C   UNL     1       3.134   3.091  18.093  0.00  0.00    +0.000 C 
ATOM      2  O   UNL     1       3.297   1.887  18.285  0.00  0.00    +0.000 OA
ATOM      3  N   UNL     1       2.051   3.820  18.633  0.00  0.00    +0.000 N 
ENDROOT
BRANCH   1   6
ATOM      4  C   UNL     1       6.463   4.678  17.118  0.00  0.00    +0.000 A 
ATOM      5  C   UNL     1       5.378   4.262  17.912  0.00  0.00    +0.000 A 
ATOM      6  C   UNL     1       4.207   3.789  17.320  0.00  0.00    +0.000 A 
ATOM      7  C   UNL     1       4.037   3.944  15.943  0.00  0.00    +0.000 A 
ATOM      8  C   UNL     1       5.097   4.394  15.150  0.00  0.00    +0.000 A 
ATOM      9  C   UNL     1       6.351   4.679  15.716  0.00  0.00    +0.000 A 
ATOM     10  C   UNL     1       7.512   4.906  14.791  0.00  0.00    +0.000 C 
BRANCH   4  12
ATOM     11  C   UNL     1       7.882   6.334  18.517  0.00  0.00    +0.000 C 
ATOM     12  C   UNL     1       7.715   4.991  17.860  0.00  0.00    +0.000 C 
ATOM     13  O   UNL     1       8.586   4.126  17.934  0.00  0.00    +0.000 OA
ENDBRANCH   4  12
ENDBRANCH   1   6
BRANCH   3  14
ATOM     14  C   UNL     1       1.037   3.059  19.376  0.00  0.00    +0.000 C 
BRANCH  14  15
ATOM     15  C   UNL     1       1.032   3.412  20.835  0.00  0.00    +0.000 C 
ATOM     16  C   UNL     1       1.199   2.338  21.877  0.00  0.00    +0.000 C 
ATOM     17  C   UNL     1       2.303   3.330  21.645  0.00  0.00    +0.000 C 
ENDBRANCH  14  15
ENDBRANCH   3  14
BRANCH   3  18
ATOM     18  C   UNL     1       1.852   5.278  18.410  0.00  0.00    +0.000 C 
BRANCH  18  19
ATOM     19  C   UNL     1       2.654   6.359  19.158  0.00  0.00    +0.000 C 
ATOM     20  F   UNL     1       1.906   7.228  19.861  0.00  0.00    +0.000 F 
ATOM     21  F   UNL     1       3.516   5.783  20.031  0.00  0.00    +0.000 F 
ATOM     22  F   UNL     1       3.399   7.080  18.286  0.00  0.00    +0.000 F 
ENDBRANCH  18  19
ENDBRANCH   3  18
TORSDOF 6
ENDMDL
MODEL 4
REMARK VINA RESULT:      -7.3      1.492      2.590
REMARK  Name = 
REMARK  8 active torsions:
REMARK  status: ('A' for Active; 'I' for Inactive)
REMARK    1  A    between atoms: C_1  and  C_2
REMARK    2  A    between atoms: C_2  and  C_4
REMARK    3  A    between atoms: C_6  and  C_7
REMARK    4  A    between atoms: N_9  and  C_10
REMARK    5  A    between atoms: N_9  and  C_14
REMARK    6  A    between atoms: C_10  and  C_11
REMARK    7  A    between atoms: C_14  and  C_15
REMARK    8  A    between atoms: C_21  and  C_22
REMARK                            x       y       z     vdW  Elec       q    Type
REMARK                         _______ _______ _______ _____ _____    ______ ____
ROOT
ATOM      1  C   UNL     1       3.144   3.021  17.832  0.00  0.00    +0.000 C 
ATOM      2  O   UNL     1       3.275   1.798  17.860  0.00  0.00    +0.000 OA
ATOM      3  N   UNL     1       2.090   3.700  18.483  0.00  0.00    +0.000 N 
ENDROOT
BRANCH   1   6
ATOM      4  C   UNL     1       6.418   4.842  17.111  0.00  0.00    +0.000 A 
ATOM      5  C   UNL     1       5.301   4.356  17.818  0.00  0.00    +0.000 A 
ATOM      6  C   UNL     1       4.224   3.787  17.139  0.00  0.00    +0.000 A 
ATOM      7  C   UNL     1       4.164   3.908  15.750  0.00  0.00    +0.000 A 
ATOM      8  C   UNL     1       5.252   4.425  15.041  0.00  0.00    +0.000 A 
ATOM      9  C   UNL     1       6.427   4.813  15.705  0.00  0.00    +0.000 A 
ATOM     10  C   UNL     1       7.645   5.114  14.878  0.00  0.00    +0.000 C 
BRANCH   4  12
ATOM     11  C   UNL     1       7.775   6.715  18.279  0.00  0.00    +0.000 C 
ATOM     12  C   UNL     1       7.573   5.260  17.950  0.00  0.00    +0.000 C 
ATOM     13  O   UNL     1       8.335   4.394  18.377  0.00  0.00    +0.000 OA
ENDBRANCH   4  12
ENDBRANCH   1   6
BRANCH   3  14
ATOM     14  C   UNL     1       1.065   2.874  19.137  0.00  0.00    +0.000 C 
BRANCH  14  15
ATOM     15  C   UNL     1       1.587   2.218  20.382  0.00  0.00    +0.000 C 
ATOM     16  C   UNL     1       2.659   2.888  21.201  0.00  0.00    +0.000 C 
ATOM     17  C   UNL     1       1.260   2.789  21.741  0.00  0.00    +0.000 C 
ENDBRANCH  14  15
ENDBRANCH   3  14
BRANCH   3  18
ATOM     18  C   UNL     1       1.929   5.179  18.459  0.00  0.00    +0.000 C 
BRANCH  18  19
ATOM     19  C   UNL     1       2.421   6.096  19.594  0.00  0.00    +0.000 C 
ATOM     20  F   UNL     1       3.660   5.820  20.042  0.00  0.00    +0.000 F 
ATOM     21  F   UNL     1       2.426   7.388  19.185  0.00  0.00    +0.000 F 
ATOM     22  F   UNL     1       1.583   6.022  20.655  0.00  0.00    +0.000 F 
ENDBRANCH  18  19
ENDBRANCH   3  18
TORSDOF 6
ENDMDL
MODEL 5
REMARK VINA RESULT:      -7.2      3.252      6.025
REMARK  Name = 
REMARK  8 active torsions:
REMARK  status: ('A' for Active; 'I' for Inactive)
REMARK    1  A    between atoms: C_1  and  C_2
REMARK    2  A    between atoms: C_2  and  C_4
REMARK    3  A    between atoms: C_6  and  C_7
REMARK    4  A    between atoms: N_9  and  C_10
REMARK    5  A    between atoms: N_9  and  C_14
REMARK    6  A    between atoms: C_10  and  C_11
REMARK    7  A    between atoms: C_14  and  C_15
REMARK    8  A    between atoms: C_21  and  C_22
REMARK                            x       y       z     vdW  Elec       q    Type
REMARK                         _______ _______ _______ _____ _____    ______ ____
ROOT
ATOM      1  C   UNL     1       3.796   5.102  17.387  0.00  0.00    +0.000 C 
ATOM      2  O   UNL     1       3.007   4.243  16.994  0.00  0.00    +0.000 OA
ATOM      3  N   UNL     1       5.130   5.190  16.934  0.00  0.00    +0.000 N 
ENDROOT
BRANCH   1   6
ATOM      4  C   UNL     1       2.058   8.211  18.755  0.00  0.00    +0.000 A 
ATOM      5  C   UNL     1       2.799   7.379  17.894  0.00  0.00    +0.000 A 
ATOM      6  C   UNL     1       3.243   6.129  18.322  0.00  0.00    +0.000 A 
ATOM      7  C   UNL     1       3.141   5.806  19.677  0.00  0.00    +0.000 A 
ATOM      8  C   UNL     1       2.439   6.644  20.549  0.00  0.00    +0.000 A 
ATOM      9  C   UNL     1       1.812   7.809  20.080  0.00  0.00    +0.000 A 
ATOM     10  C   UNL     1       0.864   8.526  21.001  0.00  0.00    +0.000 C 
BRANCH   4  12
ATOM     11  C   UNL     1       2.299  10.704  18.095  0.00  0.00    +0.000 C 
ATOM     12  C   UNL     1       1.491   9.436  18.129  0.00  0.00    +0.000 C 
ATOM     13  O   UNL     1       0.368   9.376  17.631  0.00  0.00    +0.000 OA
ENDBRANCH   4  12
ENDBRANCH   1   6
BRANCH   3  14
ATOM     14  C   UNL     1       5.598   4.139  16.019  0.00  0.00    +0.000 C 
BRANCH  14  15
ATOM     15  C   UNL     1       5.698   4.632  14.605  0.00  0.00    +0.000 C 
ATOM     16  C   UNL     1       7.046   4.843  13.969  0.00  0.00    +0.000 C 
ATOM     17  C   UNL     1       6.173   3.710  13.507  0.00  0.00    +0.000 C 
ENDBRANCH  14  15
ENDBRANCH   3  14
BRANCH   3  18
ATOM     18  C   UNL     1       6.087   6.230  17.401  0.00  0.00    +0.000 C 
BRANCH  18  19
ATOM     19  C   UNL     1       7.160   5.964  18.473  0.00  0.00    +0.000 C 
ATOM     20  F   UNL     1       7.993   6.995  18.702  0.00  0.00    +0.000 F 
ATOM     21  F   UNL     1       6.575   5.657  19.656  0.00  0.00    +0.000 F 
ATOM     22  F   UNL     1       7.922   4.900  18.122  0.00  0.00    +0.000 F 
ENDBRANCH  18  19
ENDBRANCH   3  18
TORSDOF 6
ENDMDL
MODEL 6
REMARK VINA RESULT:      -7.2      1.956      5.833
REMARK  Name = 
REMARK  8 active torsions:
REMARK  status: ('A' for Active; 'I' for Inactive)
REMARK    1  A    between atoms: C_1  and  C_2
REMARK    2  A    between atoms: C_2  and  C_4
REMARK    3  A    between atoms: C_6  and  C_7
REMARK    4  A    between atoms: N_9  and  C_10
REMARK    5  A    between atoms: N_9  and  C_14
REMARK    6  A    between atoms: C_10  and  C_11
REMARK    7  A    between atoms: C_14  and  C_15
REMARK    8  A    between atoms: C_21  and  C_22
REMARK                            x       y       z     vdW  Elec       q    Type
REMARK                         _______ _______ _______ _____ _____    ______ ____
ROOT
ATOM      1  C   UNL     1       5.830   4.732  17.953  0.00  0.00    +0.000 C 
ATOM      2  O   UNL     1       6.906   4.262  18.322  0.00  0.00    +0.000 OA
ATOM      3  N   UNL     1       5.725   5.915  17.189  0.00  0.00    +0.000 N 
ENDROOT
BRANCH   1   6
ATOM      4  C   UNL     1       2.701   3.419  19.697  0.00  0.00    +0.000 A 
ATOM      5  C   UNL     1       3.977   3.987  19.518  0.00  0.00    +0.000 A 
ATOM      6  C   UNL     1       4.611   3.928  18.277  0.00  0.00    +0.000 A 
ATOM      7  C   UNL     1       4.073   3.109  17.283  0.00  0.00    +0.000 A 
ATOM      8  C   UNL     1       2.824   2.509  17.466  0.00  0.00    +0.000 A 
ATOM      9  C   UNL     1       2.082   2.731  18.638  0.00  0.00    +0.000 A 
ATOM     10  C   UNL     1       0.651   2.275  18.670  0.00  0.00    +0.000 C 
BRANCH   4  12
ATOM     11  C   UNL     1       1.762   2.571  21.958  0.00  0.00    +0.000 C 
ATOM     12  C   UNL     1       2.055   3.700  21.007  0.00  0.00    +0.000 C 
ATOM     13  O   UNL     1       1.789   4.866  21.294  0.00  0.00    +0.000 OA
ENDBRANCH   4  12
ENDBRANCH   1   6
BRANCH   3  14
ATOM     14  C   UNL     1       6.970   6.648  16.917  0.00  0.00    +0.000 C 
BRANCH  14  15
ATOM     15  C   UNL     1       7.166   7.790  17.872  0.00  0.00    +0.000 C 
ATOM     16  C   UNL     1       8.454   7.924  18.640  0.00  0.00    +0.000 C 
ATOM     17  C   UNL     1       8.134   8.902  17.544  0.00  0.00    +0.000 C 
ENDBRANCH  14  15
ENDBRANCH   3  14
BRANCH   3  18
ATOM     18  C   UNL     1       4.428   6.484  16.733  0.00  0.00    +0.000 C 
BRANCH  18  19
ATOM     19  C   UNL     1       3.350   7.002  17.704  0.00  0.00    +0.000 C 
ATOM     20  F   UNL     1       3.754   7.119  18.981  0.00  0.00    +0.000 F 
ATOM     21  F   UNL     1       2.913   8.223  17.312  0.00  0.00    +0.000 F 
ATOM     22  F   UNL     1       2.275   6.177  17.696  0.00  0.00    +0.000 F 
ENDBRANCH  18  19
ENDBRANCH   3  18
TORSDOF 6
ENDMDL
MODEL 7
REMARK VINA RESULT:      -7.2      3.543      6.334
REMARK  Name = 
REMARK  8 active torsions:
REMARK  status: ('A' for Active; 'I' for Inactive)
REMARK    1  A    between atoms: C_1  and  C_2
REMARK    2  A    between atoms: C_2  and  C_4
REMARK    3  A    between atoms: C_6  and  C_7
REMARK    4  A    between atoms: N_9  and  C_10
REMARK    5  A    between atoms: N_9  and  C_14
REMARK    6  A    between atoms: C_10  and  C_11
REMARK    7  A    between atoms: C_14  and  C_15
REMARK    8  A    between atoms: C_21  and  C_22
REMARK                            x       y       z     vdW  Elec       q    Type
REMARK                         _______ _______ _______ _____ _____    ______ ____
ROOT
ATOM      1  C   UNL     1       3.606   6.564  18.358  0.00  0.00    +0.000 C 
ATOM      2  O   UNL     1       4.724   7.039  18.159  0.00  0.00    +0.000 OA
ATOM      3  N   UNL     1       3.346   5.176  18.358  0.00  0.00    +0.000 N 
ENDROOT
BRANCH   1   6
ATOM      4  C   UNL     1       1.205   8.792  20.313  0.00  0.00    +0.000 A 
ATOM      5  C   UNL     1       2.032   7.699  19.992  0.00  0.00    +0.000 A 
ATOM      6  C   UNL     1       2.524   7.539  18.697  0.00  0.00    +0.000 A 
ATOM      7  C   UNL     1       2.010   8.340  17.676  0.00  0.00    +0.000 A 
ATOM      8  C   UNL     1       1.157   9.406  17.981  0.00  0.00    +0.000 A 
ATOM      9  C   UNL     1       0.818   9.700  19.311  0.00  0.00    +0.000 A 
ATOM     10  C   UNL     1       0.116  10.998  19.594  0.00  0.00    +0.000 C 
BRANCH   4  12
ATOM     11  C   UNL     1      -0.475   8.590  22.275  0.00  0.00    +0.000 C 
ATOM     12  C   UNL     1       0.891   8.953  21.758  0.00  0.00    +0.000 C 
ATOM     13  O   UNL     1       1.773   9.367  22.510  0.00  0.00    +0.000 OA
ENDBRANCH   4  12
ENDBRANCH   1   6
BRANCH   3  14
ATOM     14  C   UNL     1       4.462   4.286  18.010  0.00  0.00    +0.000 C 
BRANCH  14  15
ATOM     15  C   UNL     1       4.521   4.013  16.535  0.00  0.00    +0.000 C 
ATOM     16  C   UNL     1       5.134   5.023  15.601  0.00  0.00    +0.000 C 
ATOM     17  C   UNL     1       5.842   3.723  15.864  0.00  0.00    +0.000 C 
ENDBRANCH  14  15
ENDBRANCH   3  14
BRANCH   3  18
ATOM     18  C   UNL     1       1.998   4.595  18.604  0.00  0.00    +0.000 C 
BRANCH  18  19
ATOM     19  C   UNL     1       1.590   3.959  19.946  0.00  0.00    +0.000 C 
ATOM     20  F   UNL     1       1.509   2.616  19.929  0.00  0.00    +0.000 F 
ATOM     21  F   UNL     1       2.481   4.290  20.912  0.00  0.00    +0.000 F 
ATOM     22  F   UNL     1       0.384   4.431  20.343  0.00  0.00    +0.000 F 
ENDBRANCH  18  19
ENDBRANCH   3  18
TORSDOF 6
ENDMDL
MODEL 8
REMARK VINA RESULT:      -7.2      0.734      1.061
REMARK  Name = 
REMARK  8 active torsions:
REMARK  status: ('A' for Active; 'I' for Inactive)
REMARK    1  A    between atoms: C_1  and  C_2
REMARK    2  A    between atoms: C_2  and  C_4
REMARK    3  A    between atoms: C_6  and  C_7
REMARK    4  A    between atoms: N_9  and  C_10
REMARK    5  A    between atoms: N_9  and  C_14
REMARK    6  A    between atoms: C_10  and  C_11
REMARK    7  A    between atoms: C_14  and  C_15
REMARK    8  A    between atoms: C_21  and  C_22
REMARK                            x       y       z     vdW  Elec       q    Type
REMARK                         _______ _______ _______ _____ _____    ______ ____
ROOT
ATOM      1  C   UNL     1       4.418   3.215  19.139  0.00  0.00    +0.000 C 
ATOM      2  O   UNL     1       4.841   2.377  19.935  0.00  0.00    +0.000 OA
ATOM      3  N   UNL     1       3.048   3.363  18.829  0.00  0.00    +0.000 N 
ENDROOT
BRANCH   1   6
ATOM      4  C   UNL     1       6.350   5.442  16.718  0.00  0.00    +0.000 A 
ATOM      5  C   UNL     1       5.570   4.372  17.198  0.00  0.00    +0.000 A 
ATOM      6  C   UNL     1       5.431   4.155  18.568  0.00  0.00    +0.000 A 
ATOM      7  C   UNL     1       6.249   4.863  19.449  0.00  0.00    +0.000 A 
ATOM      8  C   UNL     1       7.057   5.902  18.978  0.00  0.00    +0.000 A 
ATOM      9  C   UNL     1       7.048   6.264  17.620  0.00  0.00    +0.000 A 
ATOM     10  C   UNL     1       7.732   7.541  17.221  0.00  0.00    +0.000 C 
BRANCH   4  12
ATOM     11  C   UNL     1       7.125   4.860  14.315  0.00  0.00    +0.000 C 
ATOM     12  C   UNL     1       6.277   5.678  15.251  0.00  0.00    +0.000 C 
ATOM     13  O   UNL     1       5.502   6.536  14.831  0.00  0.00    +0.000 OA
ENDBRANCH   4  12
ENDBRANCH   1   6
BRANCH   3  14
ATOM     14  C   UNL     1       2.117   2.397  19.428  0.00  0.00    +0.000 C 
BRANCH  14  15
ATOM     15  C   UNL     1       1.340   2.999  20.562  0.00  0.00    +0.000 C 
ATOM     16  C   UNL     1       1.398   2.382  21.934  0.00  0.00    +0.000 C 
ATOM     17  C   UNL     1       2.055   3.711  21.686  0.00  0.00    +0.000 C 
ENDBRANCH  14  15
ENDBRANCH   3  14
BRANCH   3  18
ATOM     18  C   UNL     1       2.530   4.380  17.873  0.00  0.00    +0.000 C 
BRANCH  18  19
ATOM     19  C   UNL     1       2.404   5.874  18.222  0.00  0.00    +0.000 C 
ATOM     20  F   UNL     1       2.405   6.145  19.540  0.00  0.00    +0.000 F 
ATOM     21  F   UNL     1       3.427   6.572  17.674  0.00  0.00    +0.000 F 
ATOM     22  F   UNL     1       1.259   6.383  17.707  0.00  0.00    +0.000 F 
ENDBRANCH  18  19
ENDBRANCH   3  18
TORSDOF 6
ENDMDL
MODEL 9
REMARK VINA RESULT:      -7.2      1.177      1.568
REMARK  Name = 
REMARK  8 active torsions:
REMARK  status: ('A' for Active; 'I' for Inactive)
REMARK    1  A    between atoms: C_1  and  C_2
REMARK    2  A    between atoms: C_2  and  C_4
REMARK    3  A    between atoms: C_6  and  C_7
REMARK    4  A    between atoms: N_9  and  C_10
REMARK    5  A    between atoms: N_9  and  C_14
REMARK    6  A    between atoms: C_10  and  C_11
REMARK    7  A    between atoms: C_14  and  C_15
REMARK    8  A    between atoms: C_21  and  C_22
REMARK                            x       y       z     vdW  Elec       q    Type
REMARK                         _______ _______ _______ _____ _____    ______ ____
ROOT
ATOM      1  C   UNL     1       4.311   3.750  19.481  0.00  0.00    +0.000 C 
ATOM      2  O   UNL     1       4.498   2.537  19.580  0.00  0.00    +0.000 OA
ATOM      3  N   UNL     1       3.209   4.411  20.068  0.00  0.00    +0.000 N 
ENDROOT
BRANCH   1   6
ATOM      4  C   UNL     1       6.260   5.615  16.784  0.00  0.00    +0.000 A 
ATOM      5  C   UNL     1       5.402   4.675  17.386  0.00  0.00    +0.000 A 
ATOM      6  C   UNL     1       5.372   4.528  18.772  0.00  0.00    +0.000 A 
ATOM      7  C   UNL     1       6.357   5.156  19.538  0.00  0.00    +0.000 A 
ATOM      8  C   UNL     1       7.239   6.063  18.942  0.00  0.00    +0.000 A 
ATOM      9  C   UNL     1       7.141   6.372  17.576  0.00  0.00    +0.000 A 
ATOM     10  C   UNL     1       7.937   7.534  17.052  0.00  0.00    +0.000 C 
BRANCH   4  12
ATOM     11  C   UNL     1       6.749   4.874  14.350  0.00  0.00    +0.000 C 
ATOM     12  C   UNL     1       6.073   5.805  15.320  0.00  0.00    +0.000 C 
ATOM     13  O   UNL     1       5.345   6.718  14.933  0.00  0.00    +0.000 OA
ENDBRANCH   4  12
ENDBRANCH   1   6
BRANCH   3  14
ATOM     14  C   UNL     1       2.207   3.574  20.743  0.00  0.00    +0.000 C 
BRANCH  14  15
ATOM     15  C   UNL     1       0.987   3.369  19.894  0.00  0.00    +0.000 C 
ATOM     16  C   UNL     1       1.124   3.093  18.420  0.00  0.00    +0.000 C 
ATOM     17  C   UNL     1       0.660   2.002  19.343  0.00  0.00    +0.000 C 
ENDBRANCH  14  15
ENDBRANCH   3  14
BRANCH   3  18
ATOM     18  C   UNL     1       2.981   5.878  19.958  0.00  0.00    +0.000 C 
BRANCH  18  19
ATOM     19  C   UNL     1       2.633   6.577  18.631  0.00  0.00    +0.000 C 
ATOM     20  F   UNL     1       2.204   5.753  17.658  0.00  0.00    +0.000 F 
ATOM     21  F   UNL     1       1.660   7.499  18.827  0.00  0.00    +0.000 F 
ATOM     22  F   UNL     1       3.713   7.239  18.151  0.00  0.00    +0.000 F 
ENDBRANCH  18  19
ENDBRANCH   3  18
TORSDOF 6
ENDMDL
