MODEL 1
REMARK VINA RESULT:      -7.6      0.000      0.000
REMARK  Name = 
REMARK  8 active torsions:
REMARK  status: ('A' for Active; 'I' for Inactive)
REMARK    1  A    between atoms: C_1  and  O_2
REMARK    2  A    between atoms: O_2  and  C_3
REMARK    3  A    between atoms: C_3  and  C_5
REMARK    4  A    between atoms: C_7  and  N_8
REMARK    5  A    between atoms: C_9  and  C_11
REMARK    6  A    between atoms: C_12  and  C_13
REMARK    7  A    between atoms: C_16  and  C_17
REMARK    8  A    between atoms: C_20  and  N_21
REMARK                            x       y       z     vdW  Elec       q    Type
REMARK                         _______ _______ _______ _____ _____    ______ ____
ROOT
ATOM      1  C   UNL     1       0.652   9.139  20.625  0.00  0.00    +0.000 A 
ATOM      2  C   UNL     1       1.391   7.951  20.798  0.00  0.00    +0.000 A 
ATOM      3  C   UNL     1       2.178   7.416  19.782  0.00  0.00    +0.000 A 
ATOM      4  C   UNL     1       2.253   8.117  18.583  0.00  0.00    +0.000 A 
ATOM      5  C   UNL     1       1.514   9.304  18.401  0.00  0.00    +0.000 A 
ATOM      6  C   UNL     1       0.682   9.847  19.402  0.00  0.00    +0.000 A 
ENDROOT
BRANCH   6   7
ATOM      7  N   UNL     1      -0.026  11.014  19.170  0.00  0.00    +0.000 N 
ATOM      8  C   UNL     1       0.611  12.311  18.883  0.00  0.00    +0.000 C 
ATOM      9  C   UNL     1      -0.246  13.449  19.482  0.00  0.00    +0.000 C 
ATOM     10  O   UNL     1      -1.623  13.384  19.068  0.00  0.00    +0.000 OA
ATOM     11  C   UNL     1      -2.190  12.114  19.444  0.00  0.00    +0.000 C 
ATOM     12  C   UNL     1      -1.437  10.976  18.738  0.00  0.00    +0.000 C 
ENDBRANCH   6   7
BRANCH   3  13
ATOM     13  N   UNL     1       2.908   6.218  19.937  0.00  0.00    +0.000 N 
ATOM     14  C   UNL     1       2.590   5.002  19.344  0.00  0.00    +0.000 C 
ATOM     15  O   UNL     1       1.680   4.832  18.541  0.00  0.00    +0.000 OA
ATOM     16  H   UNL     1       3.800   6.281  20.414  0.00  0.00    +0.000 HD
BRANCH  14  17
ATOM     17  C   UNL     1       3.462   3.894  19.670  0.00  0.00    +0.000 A 
ATOM     18  C   UNL     1       3.217   2.870  20.629  0.00  0.00    +0.000 A 
ATOM     19  C   UNL     1       2.020   2.650  21.481  0.00  0.00    +0.000 C 
ATOM     20  N   UNL     1       4.252   2.026  20.716  0.00  0.00    +0.000 NA
ATOM     21  O   UNL     1       5.208   2.513  19.851  0.00  0.00    +0.000 OA
ATOM     22  C   UNL     1       4.747   3.635  19.237  0.00  0.00    +0.000 A 
ATOM     23  C   UNL     1       5.713   4.317  18.354  0.00  0.00    +0.000 C 
ENDBRANCH  14  17
ENDBRANCH   3  13
BRANCH   1  24
ATOM     24  C   UNL     1      -0.031   9.643  21.849  0.00  0.00    +0.000 C 
ATOM     25  O   UNL     1      -0.770   8.994  22.568  0.00  0.00    +0.000 OA
BRANCH  24  27
ATOM     26  C   UNL     1      -0.702  11.729  22.685  0.00  0.00    +0.000 C 
ATOM     27  O   UNL     1       0.309  10.948  22.048  0.00  0.00    +0.000 OA
ENDBRANCH  24  27
ENDBRANCH   1  24
TORSDOF 5
ENDMDL
MODEL 2
REMARK VINA RESULT:      -7.5      1.450      1.528
REMARK  Name = 
REMARK  8 active torsions:
REMARK  status: ('A' for Active; 'I' for Inactive)
REMARK    1  A    between atoms: C_1  and  O_2
REMARK    2  A    between atoms: O_2  and  C_3
REMARK    3  A    between atoms: C_3  and  C_5
REMARK    4  A    between atoms: C_7  and  N_8
REMARK    5  A    between atoms: C_9  and  C_11
REMARK    6  A    between atoms: C_12  and  C_13
REMARK    7  A    between atoms: C_16  and  C_17
REMARK    8  A    between atoms: C_20  and  N_21
REMARK                            x       y       z     vdW  Elec       q    Type
REMARK                         _______ _______ _______ _____ _____    ______ ____
ROOT
ATOM      1  C   UNL     1       1.277   8.911  20.480  0.00  0.00    +0.000 A 
ATOM      2  C   UNL     1       1.818   7.625  20.275  0.00  0.00    +0.000 A 
ATOM      3  C   UNL     1       2.259   7.199  19.026  0.00  0.00    +0.000 A 
ATOM      4  C   UNL     1       2.190   8.103  17.971  0.00  0.00    +0.000 A 
ATOM      5  C   UNL     1       1.647   9.390  18.166  0.00  0.00    +0.000 A 
ATOM      6  C   UNL     1       1.162   9.833  19.414  0.00  0.00    +0.000 A 
ENDROOT
BRANCH   6   7
ATOM      7  N   UNL     1       0.633  11.105  19.551  0.00  0.00    +0.000 N 
ATOM      8  C   UNL     1       1.454  12.329  19.591  0.00  0.00    +0.000 C 
ATOM      9  C   UNL     1       0.789  13.364  20.527  0.00  0.00    +0.000 C 
ATOM     10  O   UNL     1      -0.589  13.609  20.193  0.00  0.00    +0.000 OA
ATOM     11  C   UNL     1      -1.334  12.378  20.242  0.00  0.00    +0.000 C 
ATOM     12  C   UNL     1      -0.775  11.387  19.210  0.00  0.00    +0.000 C 
ENDBRANCH   6   7
BRANCH   3  13
ATOM     13  N   UNL     1       2.785   5.908  18.806  0.00  0.00    +0.000 N 
ATOM     14  C   UNL     1       2.149   4.891  18.105  0.00  0.00    +0.000 C 
ATOM     15  O   UNL     1       1.082   5.009  17.514  0.00  0.00    +0.000 OA
ATOM     16  H   UNL     1       3.752   5.754  19.070  0.00  0.00    +0.000 HD
BRANCH  14  17
ATOM     17  C   UNL     1       2.863   3.634  18.031  0.00  0.00    +0.000 A 
ATOM     18  C   UNL     1       2.604   2.461  18.797  0.00  0.00    +0.000 A 
ATOM     19  C   UNL     1       1.539   2.212  19.802  0.00  0.00    +0.000 C 
ATOM     20  N   UNL     1       3.483   1.491  18.514  0.00  0.00    +0.000 NA
ATOM     21  O   UNL     1       4.357   2.031  17.596  0.00  0.00    +0.000 OA
ATOM     22  C   UNL     1       4.000   3.314  17.317  0.00  0.00    +0.000 A 
ATOM     23  C   UNL     1       4.914   4.045  16.418  0.00  0.00    +0.000 C 
ENDBRANCH  14  17
ENDBRANCH   3  13
BRANCH   1  24
ATOM     24  C   UNL     1       0.976   9.253  21.898  0.00  0.00    +0.000 C 
ATOM     25  O   UNL     1       1.800   9.531  22.752  0.00  0.00    +0.000 OA
BRANCH  24  27
ATOM     26  C   UNL     1      -0.847  10.113  23.097  0.00  0.00    +0.000 C 
ATOM     27  O   UNL     1      -0.372   9.217  22.092  0.00  0.00    +0.000 OA
ENDBRANCH  24  27
ENDBRANCH   1  24
TORSDOF 5
ENDMDL
MODEL 3
REMARK VINA RESULT:      -7.4      1.439      1.773
REMARK  Name = 
REMARK  8 active torsions:
REMARK  status: ('A' for Active; 'I' for Inactive)
REMARK    1  A    between atoms: C_1  and  O_2
REMARK    2  A    between atoms: O_2  and  C_3
REMARK    3  A    between atoms: C_3  and  C_5
REMARK    4  A    between atoms: C_7  and  N_8
REMARK    5  A    between atoms: C_9  and  C_11
REMARK    6  A    between atoms: C_12  and  C_13
REMARK    7  A    between atoms: C_16  and  C_17
REMARK    8  A    between atoms: C_20  and  N_21
REMARK                            x       y       z     vdW  Elec       q    Type
REMARK                         _______ _______ _______ _____ _____    ______ ____
ROOT
ATOM      1  C   UNL     1       1.256   8.952  20.490  0.00  0.00    +0.000 A 
ATOM      2  C   UNL     1       1.794   7.663  20.300  0.00  0.00    +0.000 A 
ATOM      3  C   UNL     1       2.244   7.225  19.058  0.00  0.00    +0.000 A 
ATOM      4  C   UNL     1       2.186   8.121  17.995  0.00  0.00    +0.000 A 
ATOM      5  C   UNL     1       1.646   9.411  18.175  0.00  0.00    +0.000 A 
ATOM      6  C   UNL     1       1.152   9.866  19.416  0.00  0.00    +0.000 A 
ENDROOT
BRANCH   6   7
ATOM      7  N   UNL     1       0.627  11.140  19.538  0.00  0.00    +0.000 N 
ATOM      8  C   UNL     1      -0.812  11.442  19.440  0.00  0.00    +0.000 C 
ATOM      9  C   UNL     1      -1.004  12.834  18.796  0.00  0.00    +0.000 C 
ATOM     10  O   UNL     1      -0.248  13.862  19.461  0.00  0.00    +0.000 OA
ATOM     11  C   UNL     1       1.152  13.524  19.456  0.00  0.00    +0.000 C 
ATOM     12  C   UNL     1       1.378  12.212  20.222  0.00  0.00    +0.000 C 
ENDBRANCH   6   7
BRANCH   3  13
ATOM     13  N   UNL     1       2.768   5.931  18.852  0.00  0.00    +0.000 N 
ATOM     14  C   UNL     1       2.146   4.918  18.132  0.00  0.00    +0.000 C 
ATOM     15  O   UNL     1       1.096   5.043  17.511  0.00  0.00    +0.000 OA
ATOM     16  H   UNL     1       3.726   5.771  19.143  0.00  0.00    +0.000 HD
BRANCH  14  17
ATOM     17  C   UNL     1       2.853   3.656  18.079  0.00  0.00    +0.000 A 
ATOM     18  C   UNL     1       2.611   2.509  18.888  0.00  0.00    +0.000 A 
ATOM     19  C   UNL     1       1.573   2.296  19.928  0.00  0.00    +0.000 C 
ATOM     20  N   UNL     1       3.479   1.527  18.611  0.00  0.00    +0.000 NA
ATOM     21  O   UNL     1       4.329   2.035  17.653  0.00  0.00    +0.000 OA
ATOM     22  C   UNL     1       3.969   3.309  17.344  0.00  0.00    +0.000 A 
ATOM     23  C   UNL     1       4.860   4.009  16.398  0.00  0.00    +0.000 C 
ENDBRANCH  14  17
ENDBRANCH   3  13
BRANCH   1  24
ATOM     24  C   UNL     1       0.945   9.306  21.902  0.00  0.00    +0.000 C 
ATOM     25  O   UNL     1       1.763   9.577  22.764  0.00  0.00    +0.000 OA
BRANCH  24  27
ATOM     26  C   UNL     1      -0.874  10.170  23.104  0.00  0.00    +0.000 C 
ATOM     27  O   UNL     1      -0.406   9.290  22.082  0.00  0.00    +0.000 OA
ENDBRANCH  24  27
ENDBRANCH   1  24
TORSDOF 5
ENDMDL
MODEL 4
REMARK VINA RESULT:      -7.4      0.629      1.667
REMARK  Name = 
REMARK  8 active torsions:
REMARK  status: ('A' for Active; 'I' for Inactive)
REMARK    1  A    between atoms: C_1  and  O_2
REMARK    2  A    between atoms: O_2  and  C_3
REMARK    3  A    between atoms: C_3  and  C_5
REMARK    4  A    between atoms: C_7  and  N_8
REMARK    5  A    between atoms: C_9  and  C_11
REMARK    6  A    between atoms: C_12  and  C_13
REMARK    7  A    between atoms: C_16  and  C_17
REMARK    8  A    between atoms: C_20  and  N_21
REMARK                            x       y       z     vdW  Elec       q    Type
REMARK                         _______ _______ _______ _____ _____    ______ ____
ROOT
ATOM      1  C   UNL     1       0.874   9.301  20.401  0.00  0.00    +0.000 A 
ATOM      2  C   UNL     1       1.509   8.074  20.684  0.00  0.00    +0.000 A 
ATOM      3  C   UNL     1       2.272   7.400  19.735  0.00  0.00    +0.000 A 
ATOM      4  C   UNL     1       2.429   7.997  18.487  0.00  0.00    +0.000 A 
ATOM      5  C   UNL     1       1.793   9.220  18.195  0.00  0.00    +0.000 A 
ATOM      6  C   UNL     1       0.987   9.905  19.128  0.00  0.00    +0.000 A 
ENDROOT
BRANCH   6   7
ATOM      7  N   UNL     1       0.381  11.103  18.788  0.00  0.00    +0.000 N 
ATOM      8  C   UNL     1       1.127  12.339  18.493  0.00  0.00    +0.000 C 
ATOM      9  C   UNL     1       0.308  13.560  18.970  0.00  0.00    +0.000 C 
ATOM     10  O   UNL     1      -1.034  13.565  18.452  0.00  0.00    +0.000 OA
ATOM     11  C   UNL     1      -1.715  12.356  18.839  0.00  0.00    +0.000 C 
ATOM     12  C   UNL     1      -0.993  11.136  18.248  0.00  0.00    +0.000 C 
ENDBRANCH   6   7
BRANCH   3  13
ATOM     13  N   UNL     1       2.897   6.164  20.001  0.00  0.00    +0.000 N 
ATOM     14  C   UNL     1       2.491   4.933  19.499  0.00  0.00    +0.000 C 
ATOM     15  O   UNL     1       1.584   4.773  18.691  0.00  0.00    +0.000 OA
ATOM     16  H   UNL     1       3.784   6.193  20.492  0.00  0.00    +0.000 HD
BRANCH  14  17
ATOM     17  C   UNL     1       3.264   3.789  19.932  0.00  0.00    +0.000 A 
ATOM     18  C   UNL     1       4.511   3.353  19.402  0.00  0.00    +0.000 A 
ATOM     19  C   UNL     1       5.344   3.965  18.335  0.00  0.00    +0.000 C 
ATOM     20  N   UNL     1       4.930   2.230  20.001  0.00  0.00    +0.000 NA
ATOM     21  O   UNL     1       3.938   1.890  20.896  0.00  0.00    +0.000 OA
ATOM     22  C   UNL     1       2.936   2.808  20.848  0.00  0.00    +0.000 A 
ATOM     23  C   UNL     1       1.762   2.511  21.690  0.00  0.00    +0.000 C 
ENDBRANCH  14  17
ENDBRANCH   3  13
BRANCH   1  24
ATOM     24  C   UNL     1       0.208   9.952  21.563  0.00  0.00    +0.000 C 
ATOM     25  O   UNL     1      -0.662   9.452  22.255  0.00  0.00    +0.000 OA
BRANCH  24  27
ATOM     26  C   UNL     1      -0.208  12.175  22.185  0.00  0.00    +0.000 C 
ATOM     27  O   UNL     1       0.733  11.197  21.742  0.00  0.00    +0.000 OA
ENDBRANCH  24  27
ENDBRANCH   1  24
TORSDOF 5
ENDMDL
MODEL 5
REMARK VINA RESULT:      -7.3      1.026      1.730
REMARK  Name = 
REMARK  8 active torsions:
REMARK  status: ('A' for Active; 'I' for Inactive)
REMARK    1  A    between atoms: C_1  and  O_2
REMARK    2  A    between atoms: O_2  and  C_3
REMARK    3  A    between atoms: C_3  and  C_5
REMARK    4  A    between atoms: C_7  and  N_8
REMARK    5  A    between atoms: C_9  and  C_11
REMARK    6  A    between atoms: C_12  and  C_13
REMARK    7  A    between atoms: C_16  and  C_17
REMARK    8  A    between atoms: C_20  and  N_21
REMARK                            x       y       z     vdW  Elec       q    Type
REMARK                         _______ _______ _______ _____ _____    ______ ____
ROOT
ATOM      1  C   UNL     1       0.684   9.363  21.063  0.00  0.00    +0.000 A 
ATOM      2  C   UNL     1       1.344   8.118  21.100  0.00  0.00    +0.000 A 
ATOM      3  C   UNL     1       1.997   7.594  19.988  0.00  0.00    +0.000 A 
ATOM      4  C   UNL     1       2.018   8.361  18.828  0.00  0.00    +0.000 A 
ATOM      5  C   UNL     1       1.357   9.605  18.781  0.00  0.00    +0.000 A 
ATOM      6  C   UNL     1       0.659  10.142  19.883  0.00  0.00    +0.000 A 
ENDROOT
BRANCH   6   7
ATOM      7  N   UNL     1       0.022  11.366  19.783  0.00  0.00    +0.000 N 
ATOM      8  C   UNL     1       0.674  12.652  20.086  0.00  0.00    +0.000 C 
ATOM      9  C   UNL     1      -0.363  13.628  20.686  0.00  0.00    +0.000 C 
ATOM     10  O   UNL     1      -1.538  13.762  19.866  0.00  0.00    +0.000 OA
ATOM     11  C   UNL     1      -2.153  12.474  19.673  0.00  0.00    +0.000 C 
ATOM     12  C   UNL     1      -1.181  11.534  18.944  0.00  0.00    +0.000 C 
ENDBRANCH   6   7
BRANCH   3  13
ATOM     13  N   UNL     1       2.646   6.341  20.009  0.00  0.00    +0.000 N 
ATOM     14  C   UNL     1       2.561   5.376  19.012  0.00  0.00    +0.000 C 
ATOM     15  O   UNL     1       1.976   5.523  17.945  0.00  0.00    +0.000 OA
ATOM     16  H   UNL     1       3.326   6.187  20.745  0.00  0.00    +0.000 HD
BRANCH  14  17
ATOM     17  C   UNL     1       3.285   4.148  19.259  0.00  0.00    +0.000 A 
ATOM     18  C   UNL     1       4.700   3.988  19.304  0.00  0.00    +0.000 A 
ATOM     19  C   UNL     1       5.766   5.012  19.165  0.00  0.00    +0.000 C 
ATOM     20  N   UNL     1       5.039   2.708  19.507  0.00  0.00    +0.000 NA
ATOM     21  O   UNL     1       3.853   2.007  19.549  0.00  0.00    +0.000 OA
ATOM     22  C   UNL     1       2.806   2.860  19.386  0.00  0.00    +0.000 A 
ATOM     23  C   UNL     1       1.476   2.224  19.312  0.00  0.00    +0.000 C 
ENDBRANCH  14  17
ENDBRANCH   3  13
BRANCH   1  24
ATOM     24  C   UNL     1       0.150   9.835  22.371  0.00  0.00    +0.000 C 
ATOM     25  O   UNL     1       0.745   9.805  23.434  0.00  0.00    +0.000 OA
BRANCH  24  27
ATOM     26  C   UNL     1      -1.518  11.278  23.170  0.00  0.00    +0.000 C 
ATOM     27  O   UNL     1      -1.111  10.321  22.192  0.00  0.00    +0.000 OA
ENDBRANCH  24  27
ENDBRANCH   1  24
TORSDOF 5
ENDMDL
MODEL 6
REMARK VINA RESULT:      -7.2      1.274      2.098
REMARK  Name = 
REMARK  8 active torsions:
REMARK  status: ('A' for Active; 'I' for Inactive)
REMARK    1  A    between atoms: C_1  and  O_2
REMARK    2  A    between atoms: O_2  and  C_3
REMARK    3  A    between atoms: C_3  and  C_5
REMARK    4  A    between atoms: C_7  and  N_8
REMARK    5  A    between atoms: C_9  and  C_11
REMARK    6  A    between atoms: C_12  and  C_13
REMARK    7  A    between atoms: C_16  and  C_17
REMARK    8  A    between atoms: C_20  and  N_21
REMARK                            x       y       z     vdW  Elec       q    Type
REMARK                         _______ _______ _______ _____ _____    ______ ____
ROOT
ATOM      1  C   UNL     1       1.142   9.528  20.107  0.00  0.00    +0.000 A 
ATOM      2  C   UNL     1       1.607   8.202  20.223  0.00  0.00    +0.000 A 
ATOM      3  C   UNL     1       2.206   7.534  19.160  0.00  0.00    +0.000 A 
ATOM      4  C   UNL     1       2.377   8.232  17.969  0.00  0.00    +0.000 A 
ATOM      5  C   UNL     1       1.911   9.557  17.843  0.00  0.00    +0.000 A 
ATOM      6  C   UNL     1       1.269  10.244  18.894  0.00  0.00    +0.000 A 
ENDROOT
BRANCH   6   7
ATOM      7  N   UNL     1       0.826  11.543  18.718  0.00  0.00    +0.000 N 
ATOM      8  C   UNL     1       1.718  12.674  18.410  0.00  0.00    +0.000 C 
ATOM      9  C   UNL     1       1.168  13.959  19.070  0.00  0.00    +0.000 C 
ATOM     10  O   UNL     1      -0.209  14.209  18.735  0.00  0.00    +0.000 OA
ATOM     11  C   UNL     1      -1.022  13.087  19.129  0.00  0.00    +0.000 C 
ATOM     12  C   UNL     1      -0.580  11.828  18.367  0.00  0.00    +0.000 C 
ENDBRANCH   6   7
BRANCH   3  13
ATOM     13  N   UNL     1       2.659   6.201  19.259  0.00  0.00    +0.000 N 
ATOM     14  C   UNL     1       2.162   5.128  18.530  0.00  0.00    +0.000 C 
ATOM     15  O   UNL     1       1.319   5.214  17.644  0.00  0.00    +0.000 OA
ATOM     16  H   UNL     1       3.495   6.039  19.809  0.00  0.00    +0.000 HD
BRANCH  14  17
ATOM     17  C   UNL     1       2.755   3.840  18.819  0.00  0.00    +0.000 A 
ATOM     18  C   UNL     1       3.784   3.190  18.078  0.00  0.00    +0.000 A 
ATOM     19  C   UNL     1       4.528   3.670  16.886  0.00  0.00    +0.000 C 
ATOM     20  N   UNL     1       4.068   1.986  18.591  0.00  0.00    +0.000 NA
ATOM     21  O   UNL     1       3.195   1.811  19.644  0.00  0.00    +0.000 OA
ATOM     22  C   UNL     1       2.400   2.907  19.773  0.00  0.00    +0.000 A 
ATOM     23  C   UNL     1       1.350   2.811  20.805  0.00  0.00    +0.000 C 
ENDBRANCH  14  17
ENDBRANCH   3  13
BRANCH   1  24
ATOM     24  C   UNL     1       0.646  10.138  21.373  0.00  0.00    +0.000 C 
ATOM     25  O   UNL     1       0.871  11.275  21.749  0.00  0.00    +0.000 OA
BRANCH  24  27
ATOM     26  C   UNL     1      -0.552   9.658  23.332  0.00  0.00    +0.000 C 
ATOM     27  O   UNL     1      -0.111   9.225  22.044  0.00  0.00    +0.000 OA
ENDBRANCH  24  27
ENDBRANCH   1  24
TORSDOF 5
ENDMDL
MODEL 7
REMARK VINA RESULT:      -7.1      1.509      1.588
REMARK  Name = 
REMARK  8 active torsions:
REMARK  status: ('A' for Active; 'I' for Inactive)
REMARK    1  A    between atoms: C_1  and  O_2
REMARK    2  A    between atoms: O_2  and  C_3
REMARK    3  A    between atoms: C_3  and  C_5
REMARK    4  A    between atoms: C_7  and  N_8
REMARK    5  A    between atoms: C_9  and  C_11
REMARK    6  A    between atoms: C_12  and  C_13
REMARK    7  A    between atoms: C_16  and  C_17
REMARK    8  A    between atoms: C_20  and  N_21
REMARK                            x       y       z     vdW  Elec       q    Type
REMARK                         _______ _______ _______ _____ _____    ______ ____
ROOT
ATOM      1  C   UNL     1       1.127   9.214  20.569  0.00  0.00    +0.000 A 
ATOM      2  C   UNL     1       1.598   7.928  20.233  0.00  0.00    +0.000 A 
ATOM      3  C   UNL     1       1.995   7.600  18.940  0.00  0.00    +0.000 A 
ATOM      4  C   UNL     1       1.954   8.604  17.976  0.00  0.00    +0.000 A 
ATOM      5  C   UNL     1       1.481   9.891  18.303  0.00  0.00    +0.000 A 
ATOM      6  C   UNL     1       1.040  10.237  19.597  0.00  0.00    +0.000 A 
ENDROOT
BRANCH   6   7
ATOM      7  N   UNL     1       0.580  11.515  19.865  0.00  0.00    +0.000 N 
ATOM      8  C   UNL     1       1.442  12.608  20.348  0.00  0.00    +0.000 C 
ATOM      9  C   UNL     1       0.632  13.523  21.293  0.00  0.00    +0.000 C 
ATOM     10  O   UNL     1      -0.596  13.983  20.702  0.00  0.00    +0.000 OA
ATOM     11  C   UNL     1      -1.409  12.858  20.319  0.00  0.00    +0.000 C 
ATOM     12  C   UNL     1      -0.674  12.015  19.266  0.00  0.00    +0.000 C 
ENDBRANCH   6   7
BRANCH   3  13
ATOM     13  N   UNL     1       2.450   6.313  18.588  0.00  0.00    +0.000 N 
ATOM     14  C   UNL     1       2.339   5.177  19.381  0.00  0.00    +0.000 C 
ATOM     15  O   UNL     1       1.754   5.129  20.457  0.00  0.00    +0.000 OA
ATOM     16  H   UNL     1       2.768   6.181  17.634  0.00  0.00    +0.000 HD
BRANCH  14  17
ATOM     17  C   UNL     1       2.908   3.965  18.831  0.00  0.00    +0.000 A 
ATOM     18  C   UNL     1       2.221   2.746  18.563  0.00  0.00    +0.000 A 
ATOM     19  C   UNL     1       0.780   2.426  18.725  0.00  0.00    +0.000 C 
ATOM     20  N   UNL     1       3.056   1.807  18.101  0.00  0.00    +0.000 NA
ATOM     21  O   UNL     1       4.309   2.383  18.106  0.00  0.00    +0.000 OA
ATOM     22  C   UNL     1       4.227   3.665  18.555  0.00  0.00    +0.000 A 
ATOM     23  C   UNL     1       5.515   4.368  18.704  0.00  0.00    +0.000 C 
ENDBRANCH  14  17
ENDBRANCH   3  13
BRANCH   1  24
ATOM     24  C   UNL     1       0.868   9.433  22.019  0.00  0.00    +0.000 C 
ATOM     25  O   UNL     1       1.719   9.604  22.875  0.00  0.00    +0.000 OA
BRANCH  24  27
ATOM     26  C   UNL     1      -0.937  10.468  23.101  0.00  0.00    +0.000 C 
ATOM     27  O   UNL     1      -0.476   9.425  22.242  0.00  0.00    +0.000 OA
ENDBRANCH  24  27
ENDBRANCH   1  24
TORSDOF 5
ENDMDL
MODEL 8
REMARK VINA RESULT:      -7.1      1.457      2.110
REMARK  Name = 
REMARK  8 active torsions:
REMARK  status: ('A' for Active; 'I' for Inactive)
REMARK    1  A    between atoms: C_1  and  O_2
REMARK    2  A    between atoms: O_2  and  C_3
REMARK    3  A    between atoms: C_3  and  C_5
REMARK    4  A    between atoms: C_7  and  N_8
REMARK    5  A    between atoms: C_9  and  C_11
REMARK    6  A    between atoms: C_12  and  C_13
REMARK    7  A    between atoms: C_16  and  C_17
REMARK    8  A    between atoms: C_20  and  N_21
REMARK                            x       y       z     vdW  Elec       q    Type
REMARK                         _______ _______ _______ _____ _____    ______ ____
ROOT
ATOM      1  C   UNL     1       1.005   9.071  20.849  0.00  0.00    +0.000 A 
ATOM      2  C   UNL     1       1.365   7.718  20.685  0.00  0.00    +0.000 A 
ATOM      3  C   UNL     1       1.832   7.218  19.474  0.00  0.00    +0.000 A 
ATOM      4  C   UNL     1       1.977   8.112  18.417  0.00  0.00    +0.000 A 
ATOM      5  C   UNL     1       1.616   9.466  18.570  0.00  0.00    +0.000 A 
ATOM      6  C   UNL     1       1.108   9.989  19.778  0.00  0.00    +0.000 A 
ENDROOT
BRANCH   6   7
ATOM      7  N   UNL     1       0.763  11.326  19.875  0.00  0.00    +0.000 N 
ATOM      8  C   UNL     1       1.686  12.373  20.348  0.00  0.00    +0.000 C 
ATOM      9  C   UNL     1       0.889  13.456  21.110  0.00  0.00    +0.000 C 
ATOM     10  O   UNL     1      -0.218  13.970  20.347  0.00  0.00    +0.000 OA
ATOM     11  C   UNL     1      -1.105  12.896  19.982  0.00  0.00    +0.000 C 
ATOM     12  C   UNL     1      -0.363  11.882  19.098  0.00  0.00    +0.000 C 
ENDBRANCH   6   7
BRANCH   3  13
ATOM     13  N   UNL     1       2.177   5.862  19.293  0.00  0.00    +0.000 N 
ATOM     14  C   UNL     1       3.472   5.356  19.297  0.00  0.00    +0.000 C 
ATOM     15  O   UNL     1       4.479   6.012  19.539  0.00  0.00    +0.000 OA
ATOM     16  H   UNL     1       1.418   5.190  19.289  0.00  0.00    +0.000 HD
BRANCH  14  17
ATOM     17  C   UNL     1       3.594   3.934  19.059  0.00  0.00    +0.000 A 
ATOM     18  C   UNL     1       4.012   3.305  17.851  0.00  0.00    +0.000 A 
ATOM     19  C   UNL     1       4.464   3.923  16.578  0.00  0.00    +0.000 C 
ATOM     20  N   UNL     1       3.967   1.971  17.956  0.00  0.00    +0.000 NA
ATOM     21  O   UNL     1       3.473   1.709  19.216  0.00  0.00    +0.000 OA
ATOM     22  C   UNL     1       3.235   2.877  19.871  0.00  0.00    +0.000 A 
ATOM     23  C   UNL     1       2.610   2.742  21.201  0.00  0.00    +0.000 C 
ENDBRANCH  14  17
ENDBRANCH   3  13
BRANCH   1  24
ATOM     24  C   UNL     1       0.651   9.469  22.240  0.00  0.00    +0.000 C 
ATOM     25  O   UNL     1       1.439   9.623  23.157  0.00  0.00    +0.000 OA
BRANCH  24  27
ATOM     26  C   UNL     1      -1.093  10.815  23.043  0.00  0.00    +0.000 C 
ATOM     27  O   UNL     1      -0.697   9.645  22.327  0.00  0.00    +0.000 OA
ENDBRANCH  24  27
ENDBRANCH   1  24
TORSDOF 5
ENDMDL
MODEL 9
REMARK VINA RESULT:      -7.1      1.487      2.334
REMARK  Name = 
REMARK  8 active torsions:
REMARK  status: ('A' for Active; 'I' for Inactive)
REMARK    1  A    between atoms: C_1  and  O_2
REMARK    2  A    between atoms: O_2  and  C_3
REMARK    3  A    between atoms: C_3  and  C_5
REMARK    4  A    between atoms: C_7  and  N_8
REMARK    5  A    between atoms: C_9  and  C_11
REMARK    6  A    between atoms: C_12  and  C_13
REMARK    7  A    between atoms: C_16  and  C_17
REMARK    8  A    between atoms: C_20  and  N_21
REMARK                            x       y       z     vdW  Elec       q    Type
REMARK                         _______ _______ _______ _____ _____    ______ ____
ROOT
ATOM      1  C   UNL     1       1.117   9.085  20.535  0.00  0.00    +0.000 A 
ATOM      2  C   UNL     1       1.472   7.727  20.400  0.00  0.00    +0.000 A 
ATOM      3  C   UNL     1       1.918   7.196  19.194  0.00  0.00    +0.000 A 
ATOM      4  C   UNL     1       2.049   8.063  18.113  0.00  0.00    +0.000 A 
ATOM      5  C   UNL     1       1.693   9.421  18.239  0.00  0.00    +0.000 A 
ATOM      6  C   UNL     1       1.205   9.975  19.440  0.00  0.00    +0.000 A 
ENDROOT
BRANCH   6   7
ATOM      7  N   UNL     1       0.865  11.315  19.509  0.00  0.00    +0.000 N 
ATOM      8  C   UNL     1      -0.498  11.824  19.274  0.00  0.00    +0.000 C 
ATOM      9  C   UNL     1      -0.420  13.218  18.611  0.00  0.00    +0.000 C 
ATOM     10  O   UNL     1       0.414  14.134  19.344  0.00  0.00    +0.000 OA
ATOM     11  C   UNL     1       1.743  13.594  19.472  0.00  0.00    +0.000 C 
ATOM     12  C   UNL     1       1.699  12.276  20.259  0.00  0.00    +0.000 C 
ENDBRANCH   6   7
BRANCH   3  13
ATOM     13  N   UNL     1       2.259   5.835  19.042  0.00  0.00    +0.000 N 
ATOM     14  C   UNL     1       3.533   5.303  19.201  0.00  0.00    +0.000 C 
ATOM     15  O   UNL     1       4.513   5.936  19.575  0.00  0.00    +0.000 OA
ATOM     16  H   UNL     1       1.494   5.178  18.934  0.00  0.00    +0.000 HD
BRANCH  14  17
ATOM     17  C   UNL     1       3.657   3.881  18.963  0.00  0.00    +0.000 A 
ATOM     18  C   UNL     1       4.074   3.253  17.754  0.00  0.00    +0.000 A 
ATOM     19  C   UNL     1       4.523   3.871  16.481  0.00  0.00    +0.000 C 
ATOM     20  N   UNL     1       4.031   1.918  17.860  0.00  0.00    +0.000 NA
ATOM     21  O   UNL     1       3.540   1.656  19.120  0.00  0.00    +0.000 OA
ATOM     22  C   UNL     1       3.301   2.824  19.776  0.00  0.00    +0.000 A 
ATOM     23  C   UNL     1       2.678   2.688  21.107  0.00  0.00    +0.000 C 
ENDBRANCH  14  17
ENDBRANCH   3  13
BRANCH   1  24
ATOM     24  C   UNL     1       0.786   9.517  21.921  0.00  0.00    +0.000 C 
ATOM     25  O   UNL     1       1.589   9.700  22.820  0.00  0.00    +0.000 OA
BRANCH  24  27
ATOM     26  C   UNL     1      -0.958  10.640  23.016  0.00  0.00    +0.000 C 
ATOM     27  O   UNL     1      -0.562   9.688  22.028  0.00  0.00    +0.000 OA
ENDBRANCH  24  27
ENDBRANCH   1  24
TORSDOF 5
ENDMDL
