MODEL 1
REMARK VINA RESULT:      -7.0      0.000      0.000
REMARK  Name = 
REMARK  6 active torsions:
REMARK  status: ('A' for Active; 'I' for Inactive)
REMARK    1  A    between atoms: C_1  and  C_2
REMARK    2  A    between atoms: N_4  and  C_5
REMARK    3  A    between atoms: C_5  and  C_6
REMARK    4  A    between atoms: C_6  and  C_7
REMARK    5  A    between atoms: C_7  and  C_8
REMARK    6  A    between atoms: C_14  and  C_15
REMARK                            x       y       z     vdW  Elec       q    Type
REMARK                         _______ _______ _______ _____ _____    ______ ____
ROOT
ATOM      1  C   UNL     1       3.829   4.981  17.790  0.00  0.00    +0.000 A 
ATOM      2  C   UNL     1       3.791   6.320  17.352  0.00  0.00    +0.000 A 
ATOM      3  C   UNL     1       3.110   7.316  18.064  0.00  0.00    +0.000 A 
ATOM      4  C   UNL     1       2.434   7.020  19.255  0.00  0.00    +0.000 A 
ATOM      5  C   UNL     1       2.450   5.696  19.709  0.00  0.00    +0.000 A 
ATOM      6  N   UNL     1       1.889   5.125  20.823  0.00  0.00    +0.000 NA
ATOM      7  C   UNL     1       2.244   3.859  20.733  0.00  0.00    +0.000 A 
ATOM      8  C   UNL     1       1.930   2.748  21.655  0.00  0.00    +0.000 C 
ATOM      9  O   UNL     1       3.006   3.546  19.637  0.00  0.00    +0.000 OA
ATOM     10  C   UNL     1       3.135   4.738  18.977  0.00  0.00    +0.000 A 
ENDROOT
BRANCH   1  11
ATOM     11  C   UNL     1       4.618   3.939  17.049  0.00  0.00    +0.000 C 
BRANCH  11  12
ATOM     12  C   UNL     1       5.429   4.567  15.913  0.00  0.00    +0.000 C 
BRANCH  12  13
ATOM     13  C   UNL     1       6.901   4.697  16.296  0.00  0.00    +0.000 C 
BRANCH  13  17
ATOM     14  C   UNL     1       7.888   8.099  17.635  0.00  0.00    +0.000 C 
ATOM     15  C   UNL     1       7.448   6.662  17.687  0.00  0.00    +0.000 C 
ATOM     16  O   UNL     1       7.241   6.074  18.743  0.00  0.00    +0.000 OA
ATOM     17  N   UNL     1       7.302   6.083  16.446  0.00  0.00    +0.000 N 
ATOM     18  H   UNL     1       7.551   6.611  15.620  0.00  0.00    +0.000 HD
ENDBRANCH  13  17
ENDBRANCH  12  13
ENDBRANCH  11  12
ENDBRANCH   1  11
TORSDOF 4
ENDMDL
MODEL 2
REMARK VINA RESULT:      -6.9      2.183      6.056
REMARK  Name = 
REMARK  6 active torsions:
REMARK  status: ('A' for Active; 'I' for Inactive)
REMARK    1  A    between atoms: C_1  and  C_2
REMARK    2  A    between atoms: N_4  and  C_5
REMARK    3  A    between atoms: C_5  and  C_6
REMARK    4  A    between atoms: C_6  and  C_7
REMARK    5  A    between atoms: C_7  and  C_8
REMARK    6  A    between atoms: C_14  and  C_15
REMARK                            x       y       z     vdW  Elec       q    Type
REMARK                         _______ _______ _______ _____ _____    ______ ____
ROOT
ATOM      1  C   UNL     1       5.199   4.123  17.889  0.00  0.00    +0.000 A 
ATOM      2  C   UNL     1       5.676   4.857  18.994  0.00  0.00    +0.000 A 
ATOM      3  C   UNL     1       6.745   5.756  18.882  0.00  0.00    +0.000 A 
ATOM      4  C   UNL     1       7.389   5.965  17.656  0.00  0.00    +0.000 A 
ATOM      5  C   UNL     1       6.940   5.243  16.545  0.00  0.00    +0.000 A 
ATOM      6  N   UNL     1       7.369   5.246  15.242  0.00  0.00    +0.000 NA
ATOM      7  C   UNL     1       6.569   4.381  14.651  0.00  0.00    +0.000 A 
ATOM      8  C   UNL     1       6.553   3.963  13.235  0.00  0.00    +0.000 C 
ATOM      9  O   UNL     1       5.634   3.803  15.469  0.00  0.00    +0.000 OA
ATOM     10  C   UNL     1       5.879   4.363  16.694  0.00  0.00    +0.000 A 
ENDROOT
BRANCH   1  11
ATOM     11  C   UNL     1       4.010   3.212  18.012  0.00  0.00    +0.000 C 
BRANCH  11  12
ATOM     12  C   UNL     1       2.855   3.693  17.130  0.00  0.00    +0.000 C 
BRANCH  12  13
ATOM     13  C   UNL     1       1.777   4.382  17.964  0.00  0.00    +0.000 C 
BRANCH  13  17
ATOM     14  C   UNL     1       1.312   2.775  21.361  0.00  0.00    +0.000 C 
ATOM     15  C   UNL     1       1.068   3.023  19.898  0.00  0.00    +0.000 C 
ATOM     16  O   UNL     1       0.237   2.391  19.253  0.00  0.00    +0.000 OA
ATOM     17  N   UNL     1       1.859   4.016  19.365  0.00  0.00    +0.000 N 
ATOM     18  H   UNL     1       2.566   4.450  19.943  0.00  0.00    +0.000 HD
ENDBRANCH  13  17
ENDBRANCH  12  13
ENDBRANCH  11  12
ENDBRANCH   1  11
TORSDOF 4
ENDMDL
MODEL 3
REMARK VINA RESULT:      -6.7      2.197      5.757
REMARK  Name = 
REMARK  6 active torsions:
REMARK  status: ('A' for Active; 'I' for Inactive)
REMARK    1  A    between atoms: C_1  and  C_2
REMARK    2  A    between atoms: N_4  and  C_5
REMARK    3  A    between atoms: C_5  and  C_6
REMARK    4  A    between atoms: C_6  and  C_7
REMARK    5  A    between atoms: C_7  and  C_8
REMARK    6  A    between atoms: C_14  and  C_15
REMARK                            x       y       z     vdW  Elec       q    Type
REMARK                         _______ _______ _______ _____ _____    ______ ____
ROOT
ATOM      1  C   UNL     1       4.669   4.583  17.809  0.00  0.00    +0.000 A 
ATOM      2  C   UNL     1       5.214   4.980  19.046  0.00  0.00    +0.000 A 
ATOM      3  C   UNL     1       6.566   5.319  19.187  0.00  0.00    +0.000 A 
ATOM      4  C   UNL     1       7.440   5.278  18.094  0.00  0.00    +0.000 A 
ATOM      5  C   UNL     1       6.926   4.881  16.854  0.00  0.00    +0.000 A 
ATOM      6  N   UNL     1       7.535   4.754  15.631  0.00  0.00    +0.000 NA
ATOM      7  C   UNL     1       6.558   4.358  14.840  0.00  0.00    +0.000 A 
ATOM      8  C   UNL     1       6.610   4.056  13.395  0.00  0.00    +0.000 C 
ATOM      9  O   UNL     1       5.339   4.216  15.450  0.00  0.00    +0.000 OA
ATOM     10  C   UNL     1       5.583   4.553  16.753  0.00  0.00    +0.000 A 
ENDROOT
BRANCH   1  11
ATOM     11  C   UNL     1       3.203   4.285  17.660  0.00  0.00    +0.000 C 
BRANCH  11  12
ATOM     12  C   UNL     1       2.975   2.822  17.273  0.00  0.00    +0.000 C 
BRANCH  12  13
ATOM     13  C   UNL     1       3.032   1.914  18.499  0.00  0.00    +0.000 C 
BRANCH  13  17
ATOM     14  C   UNL     1       2.048   3.251  21.902  0.00  0.00    +0.000 C 
ATOM     15  C   UNL     1       2.931   2.619  20.862  0.00  0.00    +0.000 C 
ATOM     16  O   UNL     1       4.078   2.257  21.104  0.00  0.00    +0.000 OA
ATOM     17  N   UNL     1       2.329   2.487  19.631  0.00  0.00    +0.000 N 
ATOM     18  H   UNL     1       1.402   2.865  19.489  0.00  0.00    +0.000 HD
ENDBRANCH  13  17
ENDBRANCH  12  13
ENDBRANCH  11  12
ENDBRANCH   1  11
TORSDOF 4
ENDMDL
MODEL 4
REMARK VINA RESULT:      -6.6      1.760      2.342
REMARK  Name = 
REMARK  6 active torsions:
REMARK  status: ('A' for Active; 'I' for Inactive)
REMARK    1  A    between atoms: C_1  and  C_2
REMARK    2  A    between atoms: N_4  and  C_5
REMARK    3  A    between atoms: C_5  and  C_6
REMARK    4  A    between atoms: C_6  and  C_7
REMARK    5  A    between atoms: C_7  and  C_8
REMARK    6  A    between atoms: C_14  and  C_15
REMARK                            x       y       z     vdW  Elec       q    Type
REMARK                         _______ _______ _______ _____ _____    ______ ____
ROOT
ATOM      1  C   UNL     1       3.873   5.499  17.979  0.00  0.00    +0.000 A 
ATOM      2  C   UNL     1       3.749   6.813  17.485  0.00  0.00    +0.000 A 
ATOM      3  C   UNL     1       2.920   7.762  18.097  0.00  0.00    +0.000 A 
ATOM      4  C   UNL     1       2.172   7.440  19.237  0.00  0.00    +0.000 A 
ATOM      5  C   UNL     1       2.272   6.140  19.745  0.00  0.00    +0.000 A 
ATOM      6  N   UNL     1       1.670   5.554  20.830  0.00  0.00    +0.000 NA
ATOM      7  C   UNL     1       2.148   4.326  20.821  0.00  0.00    +0.000 A 
ATOM      8  C   UNL     1       1.859   3.221  21.757  0.00  0.00    +0.000 C 
ATOM      9  O   UNL     1       3.028   4.052  19.807  0.00  0.00    +0.000 OA
ATOM     10  C   UNL     1       3.103   5.229  19.112  0.00  0.00    +0.000 A 
ENDROOT
BRANCH   1  11
ATOM     11  C   UNL     1       4.817   4.514  17.349  0.00  0.00    +0.000 C 
BRANCH  11  12
ATOM     12  C   UNL     1       6.247   4.723  17.852  0.00  0.00    +0.000 C 
BRANCH  12  13
ATOM     13  C   UNL     1       7.258   4.549  16.721  0.00  0.00    +0.000 C 
BRANCH  13  17
ATOM     14  C   UNL     1       6.196   3.826  13.159  0.00  0.00    +0.000 C 
ATOM     15  C   UNL     1       6.913   4.531  14.277  0.00  0.00    +0.000 C 
ATOM     16  O   UNL     1       7.662   5.483  14.083  0.00  0.00    +0.000 OA
ATOM     17  N   UNL     1       6.644   4.010  15.523  0.00  0.00    +0.000 N 
ATOM     18  H   UNL     1       6.065   3.184  15.601  0.00  0.00    +0.000 HD
ENDBRANCH  13  17
ENDBRANCH  12  13
ENDBRANCH  11  12
ENDBRANCH   1  11
TORSDOF 4
ENDMDL
MODEL 5
REMARK VINA RESULT:      -6.6      3.289      4.130
REMARK  Name = 
REMARK  6 active torsions:
REMARK  status: ('A' for Active; 'I' for Inactive)
REMARK    1  A    between atoms: C_1  and  C_2
REMARK    2  A    between atoms: N_4  and  C_5
REMARK    3  A    between atoms: C_5  and  C_6
REMARK    4  A    between atoms: C_6  and  C_7
REMARK    5  A    between atoms: C_7  and  C_8
REMARK    6  A    between atoms: C_14  and  C_15
REMARK                            x       y       z     vdW  Elec       q    Type
REMARK                         _______ _______ _______ _____ _____    ______ ____
ROOT
ATOM      1  C   UNL     1       4.532   4.832  16.587  0.00  0.00    +0.000 A 
ATOM      2  C   UNL     1       4.861   6.202  16.631  0.00  0.00    +0.000 A 
ATOM      3  C   UNL     1       4.134   7.116  17.405  0.00  0.00    +0.000 A 
ATOM      4  C   UNL     1       3.040   6.702  18.176  0.00  0.00    +0.000 A 
ATOM      5  C   UNL     1       2.687   5.348  18.145  0.00  0.00    +0.000 A 
ATOM      6  N   UNL     1       1.684   4.669  18.788  0.00  0.00    +0.000 NA
ATOM      7  C   UNL     1       1.846   3.425  18.387  0.00  0.00    +0.000 A 
ATOM      8  C   UNL     1       1.056   2.231  18.750  0.00  0.00    +0.000 C 
ATOM      9  O   UNL     1       2.891   3.225  17.522  0.00  0.00    +0.000 OA
ATOM     10  C   UNL     1       3.430   4.473  17.367  0.00  0.00    +0.000 A 
ENDROOT
BRANCH   1  11
ATOM     11  C   UNL     1       5.361   3.854  15.803  0.00  0.00    +0.000 C 
BRANCH  11  12
ATOM     12  C   UNL     1       6.225   4.574  14.765  0.00  0.00    +0.000 C 
BRANCH  12  13
ATOM     13  C   UNL     1       6.366   3.740  13.494  0.00  0.00    +0.000 C 
BRANCH  13  17
ATOM     14  C   UNL     1       3.653   3.206  10.907  0.00  0.00    +0.000 C 
ATOM     15  C   UNL     1       4.904   2.910  11.686  0.00  0.00    +0.000 C 
ATOM     16  O   UNL     1       5.585   1.910  11.484  0.00  0.00    +0.000 OA
ATOM     17  N   UNL     1       5.205   3.864  12.633  0.00  0.00    +0.000 N 
ATOM     18  H   UNL     1       4.563   4.630  12.786  0.00  0.00    +0.000 HD
ENDBRANCH  13  17
ENDBRANCH  12  13
ENDBRANCH  11  12
ENDBRANCH   1  11
TORSDOF 4
ENDMDL
MODEL 6
REMARK VINA RESULT:      -6.5      2.075      6.206
REMARK  Name = 
REMARK  6 active torsions:
REMARK  status: ('A' for Active; 'I' for Inactive)
REMARK    1  A    between atoms: C_1  and  C_2
REMARK    2  A    between atoms: N_4  and  C_5
REMARK    3  A    between atoms: C_5  and  C_6
REMARK    4  A    between atoms: C_6  and  C_7
REMARK    5  A    between atoms: C_7  and  C_8
REMARK    6  A    between atoms: C_14  and  C_15
REMARK                            x       y       z     vdW  Elec       q    Type
REMARK                         _______ _______ _______ _____ _____    ______ ____
ROOT
ATOM      1  C   UNL     1       4.821   4.523  17.039  0.00  0.00    +0.000 A 
ATOM      2  C   UNL     1       5.255   5.257  18.162  0.00  0.00    +0.000 A 
ATOM      3  C   UNL     1       6.443   6.000  18.150  0.00  0.00    +0.000 A 
ATOM      4  C   UNL     1       7.257   6.045  17.011  0.00  0.00    +0.000 A 
ATOM      5  C   UNL     1       6.853   5.320  15.884  0.00  0.00    +0.000 A 
ATOM      6  N   UNL     1       7.436   5.184  14.650  0.00  0.00    +0.000 NA
ATOM      7  C   UNL     1       6.605   4.395  14.000  0.00  0.00    +0.000 A 
ATOM      8  C   UNL     1       6.706   3.894  12.614  0.00  0.00    +0.000 C 
ATOM      9  O   UNL     1       5.505   3.997  14.714  0.00  0.00    +0.000 OA
ATOM     10  C   UNL     1       5.671   4.596  15.933  0.00  0.00    +0.000 A 
ENDROOT
BRANCH   1  11
ATOM     11  C   UNL     1       3.513   3.785  17.047  0.00  0.00    +0.000 C 
BRANCH  11  12
ATOM     12  C   UNL     1       2.417   4.613  17.722  0.00  0.00    +0.000 C 
BRANCH  12  13
ATOM     13  C   UNL     1       1.229   3.738  18.113  0.00  0.00    +0.000 C 
BRANCH  13  17
ATOM     14  C   UNL     1       1.510   2.719  21.749  0.00  0.00    +0.000 C 
ATOM     15  C   UNL     1       1.769   2.664  20.269  0.00  0.00    +0.000 C 
ATOM     16  O   UNL     1       2.517   1.835  19.762  0.00  0.00    +0.000 OA
ATOM     17  N   UNL     1       1.090   3.624  19.552  0.00  0.00    +0.000 N 
ATOM     18  H   UNL     1       0.540   4.314  20.046  0.00  0.00    +0.000 HD
ENDBRANCH  13  17
ENDBRANCH  12  13
ENDBRANCH  11  12
ENDBRANCH   1  11
TORSDOF 4
ENDMDL
MODEL 7
REMARK VINA RESULT:      -6.5      2.299      6.221
REMARK  Name = 
REMARK  6 active torsions:
REMARK  status: ('A' for Active; 'I' for Inactive)
REMARK    1  A    between atoms: C_1  and  C_2
REMARK    2  A    between atoms: N_4  and  C_5
REMARK    3  A    between atoms: C_5  and  C_6
REMARK    4  A    between atoms: C_6  and  C_7
REMARK    5  A    between atoms: C_7  and  C_8
REMARK    6  A    between atoms: C_14  and  C_15
REMARK                            x       y       z     vdW  Elec       q    Type
REMARK                         _______ _______ _______ _____ _____    ______ ____
ROOT
ATOM      1  C   UNL     1       4.790   4.591  17.060  0.00  0.00    +0.000 A 
ATOM      2  C   UNL     1       5.214   5.265  18.223  0.00  0.00    +0.000 A 
ATOM      3  C   UNL     1       6.435   5.950  18.280  0.00  0.00    +0.000 A 
ATOM      4  C   UNL     1       7.292   5.995  17.173  0.00  0.00    +0.000 A 
ATOM      5  C   UNL     1       6.898   5.328  16.008  0.00  0.00    +0.000 A 
ATOM      6  N   UNL     1       7.521   5.206  14.791  0.00  0.00    +0.000 NA
ATOM      7  C   UNL     1       6.678   4.480  14.085  0.00  0.00    +0.000 A 
ATOM      8  C   UNL     1       6.808   4.021  12.687  0.00  0.00    +0.000 C 
ATOM      9  O   UNL     1       5.535   4.111  14.744  0.00  0.00    +0.000 OA
ATOM     10  C   UNL     1       5.683   4.660  15.989  0.00  0.00    +0.000 A 
ENDROOT
BRANCH   1  11
ATOM     11  C   UNL     1       3.449   3.916  16.995  0.00  0.00    +0.000 C 
BRANCH  11  12
ATOM     12  C   UNL     1       3.466   2.583  17.746  0.00  0.00    +0.000 C 
BRANCH  12  13
ATOM     13  C   UNL     1       2.061   2.186  18.192  0.00  0.00    +0.000 C 
BRANCH  13  17
ATOM     14  C   UNL     1       1.380   2.696  21.882  0.00  0.00    +0.000 C 
ATOM     15  C   UNL     1       1.401   3.030  20.416  0.00  0.00    +0.000 C 
ATOM     16  O   UNL     1       0.954   4.082  19.973  0.00  0.00    +0.000 OA
ATOM     17  N   UNL     1       1.968   2.048  19.633  0.00  0.00    +0.000 N 
ATOM     18  H   UNL     1       2.259   1.180  20.060  0.00  0.00    +0.000 HD
ENDBRANCH  13  17
ENDBRANCH  12  13
ENDBRANCH  11  12
ENDBRANCH   1  11
TORSDOF 4
ENDMDL
MODEL 8
REMARK VINA RESULT:      -6.5      1.321      5.988
REMARK  Name = 
REMARK  6 active torsions:
REMARK  status: ('A' for Active; 'I' for Inactive)
REMARK    1  A    between atoms: C_1  and  C_2
REMARK    2  A    between atoms: N_4  and  C_5
REMARK    3  A    between atoms: C_5  and  C_6
REMARK    4  A    between atoms: C_6  and  C_7
REMARK    5  A    between atoms: C_7  and  C_8
REMARK    6  A    between atoms: C_14  and  C_15
REMARK                            x       y       z     vdW  Elec       q    Type
REMARK                         _______ _______ _______ _____ _____    ______ ____
ROOT
ATOM      1  C   UNL     1       4.670   5.076  17.451  0.00  0.00    +0.000 A 
ATOM      2  C   UNL     1       4.585   3.944  16.615  0.00  0.00    +0.000 A 
ATOM      3  C   UNL     1       5.565   3.654  15.657  0.00  0.00    +0.000 A 
ATOM      4  C   UNL     1       6.682   4.483  15.490  0.00  0.00    +0.000 A 
ATOM      5  C   UNL     1       6.787   5.617  16.303  0.00  0.00    +0.000 A 
ATOM      6  N   UNL     1       7.753   6.589  16.363  0.00  0.00    +0.000 NA
ATOM      7  C   UNL     1       7.326   7.390  17.318  0.00  0.00    +0.000 A 
ATOM      8  C   UNL     1       7.956   8.622  17.835  0.00  0.00    +0.000 C 
ATOM      9  O   UNL     1       6.143   7.019  17.902  0.00  0.00    +0.000 OA
ATOM     10  C   UNL     1       5.797   5.872  17.240  0.00  0.00    +0.000 A 
ENDROOT
BRANCH   1  11
ATOM     11  C   UNL     1       3.644   5.338  18.518  0.00  0.00    +0.000 C 
BRANCH  11  12
ATOM     12  C   UNL     1       2.238   5.426  17.919  0.00  0.00    +0.000 C 
BRANCH  12  13
ATOM     13  C   UNL     1       1.480   4.113  18.102  0.00  0.00    +0.000 C 
BRANCH  13  17
ATOM     14  C   UNL     1       1.520   2.656  21.596  0.00  0.00    +0.000 C 
ATOM     15  C   UNL     1       1.891   2.792  20.146  0.00  0.00    +0.000 C 
ATOM     16  O   UNL     1       2.701   2.049  19.601  0.00  0.00    +0.000 OA
ATOM     17  N   UNL     1       1.237   3.818  19.501  0.00  0.00    +0.000 N 
ATOM     18  H   UNL     1       0.629   4.428  20.030  0.00  0.00    +0.000 HD
ENDBRANCH  13  17
ENDBRANCH  12  13
ENDBRANCH  11  12
ENDBRANCH   1  11
TORSDOF 4
ENDMDL
MODEL 9
REMARK VINA RESULT:      -6.5      1.297      2.394
REMARK  Name = 
REMARK  6 active torsions:
REMARK  status: ('A' for Active; 'I' for Inactive)
REMARK    1  A    between atoms: C_1  and  C_2
REMARK    2  A    between atoms: N_4  and  C_5
REMARK    3  A    between atoms: C_5  and  C_6
REMARK    4  A    between atoms: C_6  and  C_7
REMARK    5  A    between atoms: C_7  and  C_8
REMARK    6  A    between atoms: C_14  and  C_15
REMARK                            x       y       z     vdW  Elec       q    Type
REMARK                         _______ _______ _______ _____ _____    ______ ____
ROOT
ATOM      1  C   UNL     1       3.780   4.332  17.660  0.00  0.00    +0.000 A 
ATOM      2  C   UNL     1       3.692   2.941  17.453  0.00  0.00    +0.000 A 
ATOM      3  C   UNL     1       2.858   2.126  18.229  0.00  0.00    +0.000 A 
ATOM      4  C   UNL     1       2.069   2.665  19.254  0.00  0.00    +0.000 A 
ATOM      5  C   UNL     1       2.143   4.043  19.485  0.00  0.00    +0.000 A 
ATOM      6  N   UNL     1       1.495   4.833  20.400  0.00  0.00    +0.000 NA
ATOM      7  C   UNL     1       1.951   6.042  20.142  0.00  0.00    +0.000 A 
ATOM      8  C   UNL     1       1.611   7.315  20.810  0.00  0.00    +0.000 C 
ATOM      9  O   UNL     1       2.857   6.114  19.116  0.00  0.00    +0.000 OA
ATOM     10  C   UNL     1       2.980   4.818  18.696  0.00  0.00    +0.000 A 
ENDROOT
BRANCH   1  11
ATOM     11  C   UNL     1       4.630   5.201  16.776  0.00  0.00    +0.000 C 
BRANCH  11  12
ATOM     12  C   UNL     1       5.677   4.371  16.031  0.00  0.00    +0.000 C 
BRANCH  12  13
ATOM     13  C   UNL     1       7.088   4.712  16.506  0.00  0.00    +0.000 C 
BRANCH  13  17
ATOM     14  C   UNL     1       7.842   8.246  17.637  0.00  0.00    +0.000 C 
ATOM     15  C   UNL     1       7.643   6.761  17.765  0.00  0.00    +0.000 C 
ATOM     16  O   UNL     1       7.773   6.169  18.831  0.00  0.00    +0.000 OA
ATOM     17  N   UNL     1       7.303   6.144  16.581  0.00  0.00    +0.000 N 
ATOM     18  H   UNL     1       7.275   6.688  15.729  0.00  0.00    +0.000 HD
ENDBRANCH  13  17
ENDBRANCH  12  13
ENDBRANCH  11  12
ENDBRANCH   1  11
TORSDOF 4
ENDMDL
