MODEL 1
REMARK VINA RESULT:      -6.5      0.000      0.000
REMARK  Name = 
REMARK  7 active torsions:
REMARK  status: ('A' for Active; 'I' for Inactive)
REMARK    1  A    between atoms: C_1  and  O_2
REMARK    2  A    between atoms: O_2  and  C_3
REMARK    3  A    between atoms: C_3  and  C_5
REMARK    4  A    between atoms: C_5  and  C_6
REMARK    5  A    between atoms: C_8  and  C_9
REMARK    6  A    between atoms: C_11  and  C_12
REMARK    7  A    between atoms: C_17  and  C_18
REMARK                            x       y       z     vdW  Elec       q    Type
REMARK                         _______ _______ _______ _____ _____    ______ ____
ROOT
ATOM      1  C   UNL     1       6.194   4.819  17.427  0.00  0.00    +0.000 C 
ATOM      2  C   UNL     1       7.466   4.339  16.728  0.00  0.00    +0.000 C 
ATOM      3  C   UNL     1       5.237   5.549  16.475  0.00  0.00    +0.000 C 
ATOM      4  C   UNL     1       3.841   5.268  17.021  0.00  0.00    +0.000 C 
ATOM      5  C   UNL     1       3.975   3.848  17.637  0.00  0.00    +0.000 C 
ATOM      6  N   UNL     1       5.418   3.657  17.908  0.00  0.00    +0.000 NA
ATOM      7  H   UNL     1       5.743   2.772  17.526  0.00  0.00    +0.000 HD
ENDROOT
BRANCH   5   8
ATOM      8  C   UNL     1       3.115   3.466  18.854  0.00  0.00    +0.000 A 
ATOM      9  C   UNL     1       3.738   3.136  20.083  0.00  0.00    +0.000 A 
ATOM     10  C   UNL     1       3.010   2.716  21.198  0.00  0.00    +0.000 A 
ATOM     11  C   UNL     1       1.631   2.617  21.124  0.00  0.00    +0.000 A 
ATOM     12  C   UNL     1       0.982   2.974  19.946  0.00  0.00    +0.000 A 
ATOM     13  C   UNL     1       1.700   3.406  18.808  0.00  0.00    +0.000 A 
ATOM     14  C   UNL     1       0.902   3.870  17.623  0.00  0.00    +0.000 C 
ENDBRANCH   5   8
BRANCH   1  15
ATOM     15  C   UNL     1       6.650   5.742  18.588  0.00  0.00    +0.000 C 
ATOM     16  O   UNL     1       6.689   5.381  19.759  0.00  0.00    +0.000 OA
BRANCH  15  18
ATOM     17  C   UNL     1       8.209   7.501  18.429  0.00  0.00    +0.000 C 
ATOM     18  O   UNL     1       6.890   7.017  18.167  0.00  0.00    +0.000 OA
ENDBRANCH  15  18
ENDBRANCH   1  15
BRANCH   4  19
ATOM     19  C   UNL     1       3.453   6.221  18.140  0.00  0.00    +0.000 C 
ATOM     20  N   UNL     1       3.130   7.013  19.067  0.00  0.00    +0.000 NA
ENDBRANCH   4  19
TORSDOF 4
ENDMDL
MODEL 2
REMARK VINA RESULT:      -6.3      2.072      5.201
REMARK  Name = 
REMARK  7 active torsions:
REMARK  status: ('A' for Active; 'I' for Inactive)
REMARK    1  A    between atoms: C_1  and  O_2
REMARK    2  A    between atoms: O_2  and  C_3
REMARK    3  A    between atoms: C_3  and  C_5
REMARK    4  A    between atoms: C_5  and  C_6
REMARK    5  A    between atoms: C_8  and  C_9
REMARK    6  A    between atoms: C_11  and  C_12
REMARK    7  A    between atoms: C_17  and  C_18
REMARK                            x       y       z     vdW  Elec       q    Type
REMARK                         _______ _______ _______ _____ _____    ______ ____
ROOT
ATOM      1  C   UNL     1       3.015   3.278  19.333  0.00  0.00    +0.000 C 
ATOM      2  C   UNL     1       1.962   3.008  20.409  0.00  0.00    +0.000 C 
ATOM      3  C   UNL     1       2.396   3.542  17.954  0.00  0.00    +0.000 C 
ATOM      4  C   UNL     1       3.363   4.494  17.259  0.00  0.00    +0.000 C 
ATOM      5  C   UNL     1       3.943   5.334  18.429  0.00  0.00    +0.000 C 
ATOM      6  N   UNL     1       3.748   4.521  19.651  0.00  0.00    +0.000 NA
ATOM      7  H   UNL     1       3.307   5.071  20.384  0.00  0.00    +0.000 HD
ENDROOT
BRANCH   5   8
ATOM      8  C   UNL     1       5.380   5.877  18.334  0.00  0.00    +0.000 A 
ATOM      9  C   UNL     1       6.367   5.422  19.242  0.00  0.00    +0.000 A 
ATOM     10  C   UNL     1       7.667   5.932  19.245  0.00  0.00    +0.000 A 
ATOM     11  C   UNL     1       8.027   6.910  18.334  0.00  0.00    +0.000 A 
ATOM     12  C   UNL     1       7.095   7.349  17.398  0.00  0.00    +0.000 A 
ATOM     13  C   UNL     1       5.775   6.843  17.376  0.00  0.00    +0.000 A 
ATOM     14  C   UNL     1       4.878   7.303  16.262  0.00  0.00    +0.000 C 
ENDBRANCH   5   8
BRANCH   1  15
ATOM     15  C   UNL     1       3.947   2.037  19.308  0.00  0.00    +0.000 C 
ATOM     16  O   UNL     1       3.692   1.017  18.678  0.00  0.00    +0.000 OA
BRANCH  15  18
ATOM     17  C   UNL     1       5.210   1.091  21.057  0.00  0.00    +0.000 C 
ATOM     18  O   UNL     1       5.011   2.177  20.148  0.00  0.00    +0.000 OA
ENDBRANCH  15  18
ENDBRANCH   1  15
BRANCH   4  19
ATOM     19  C   UNL     1       4.521   3.763  16.598  0.00  0.00    +0.000 C 
ATOM     20  N   UNL     1       5.482   3.156  16.050  0.00  0.00    +0.000 NA
ENDBRANCH   4  19
TORSDOF 4
ENDMDL
MODEL 3
REMARK VINA RESULT:      -6.1      1.057      1.142
REMARK  Name = 
REMARK  7 active torsions:
REMARK  status: ('A' for Active; 'I' for Inactive)
REMARK    1  A    between atoms: C_1  and  O_2
REMARK    2  A    between atoms: O_2  and  C_3
REMARK    3  A    between atoms: C_3  and  C_5
REMARK    4  A    between atoms: C_5  and  C_6
REMARK    5  A    between atoms: C_8  and  C_9
REMARK    6  A    between atoms: C_11  and  C_12
REMARK    7  A    between atoms: C_17  and  C_18
REMARK                            x       y       z     vdW  Elec       q    Type
REMARK                         _______ _______ _______ _____ _____    ______ ____
ROOT
ATOM      1  C   UNL     1       6.108   4.472  16.249  0.00  0.00    +0.000 C 
ATOM      2  C   UNL     1       6.906   3.994  15.035  0.00  0.00    +0.000 C 
ATOM      3  C   UNL     1       5.056   5.528  15.884  0.00  0.00    +0.000 C 
ATOM      4  C   UNL     1       3.926   5.326  16.888  0.00  0.00    +0.000 C 
ATOM      5  C   UNL     1       3.960   3.798  17.166  0.00  0.00    +0.000 C 
ATOM      6  N   UNL     1       5.325   3.350  16.807  0.00  0.00    +0.000 NA
ATOM      7  H   UNL     1       5.289   2.541  16.192  0.00  0.00    +0.000 HD
ENDROOT
BRANCH   5   8
ATOM      8  C   UNL     1       3.535   3.269  18.547  0.00  0.00    +0.000 A 
ATOM      9  C   UNL     1       4.520   2.836  19.469  0.00  0.00    +0.000 A 
ATOM     10  C   UNL     1       4.187   2.283  20.708  0.00  0.00    +0.000 A 
ATOM     11  C   UNL     1       2.858   2.150  21.069  0.00  0.00    +0.000 A 
ATOM     12  C   UNL     1       1.865   2.604  20.206  0.00  0.00    +0.000 A 
ATOM     13  C   UNL     1       2.181   3.171  18.950  0.00  0.00    +0.000 A 
ATOM     14  C   UNL     1       1.046   3.727  18.138  0.00  0.00    +0.000 C 
ENDBRANCH   5   8
BRANCH   1  15
ATOM     15  C   UNL     1       7.141   5.029  17.264  0.00  0.00    +0.000 C 
ATOM     16  O   UNL     1       7.435   4.458  18.308  0.00  0.00    +0.000 OA
BRANCH  15  18
ATOM     17  C   UNL     1       7.771   7.176  18.001  0.00  0.00    +0.000 C 
ATOM     18  O   UNL     1       7.590   6.268  16.912  0.00  0.00    +0.000 OA
ENDBRANCH  15  18
ENDBRANCH   1  15
BRANCH   4  19
ATOM     19  C   UNL     1       4.184   6.040  18.205  0.00  0.00    +0.000 C 
ATOM     20  N   UNL     1       4.398   6.632  19.298  0.00  0.00    +0.000 NA
ENDBRANCH   4  19
TORSDOF 4
ENDMDL
MODEL 4
REMARK VINA RESULT:      -6.0      0.605      1.629
REMARK  Name = 
REMARK  7 active torsions:
REMARK  status: ('A' for Active; 'I' for Inactive)
REMARK    1  A    between atoms: C_1  and  O_2
REMARK    2  A    between atoms: O_2  and  C_3
REMARK    3  A    between atoms: C_3  and  C_5
REMARK    4  A    between atoms: C_5  and  C_6
REMARK    5  A    between atoms: C_8  and  C_9
REMARK    6  A    between atoms: C_11  and  C_12
REMARK    7  A    between atoms: C_17  and  C_18
REMARK                            x       y       z     vdW  Elec       q    Type
REMARK                         _______ _______ _______ _____ _____    ______ ____
ROOT
ATOM      1  C   UNL     1       5.775   4.675  17.430  0.00  0.00    +0.000 C 
ATOM      2  C   UNL     1       6.963   4.174  16.609  0.00  0.00    +0.000 C 
ATOM      3  C   UNL     1       4.755   5.448  16.583  0.00  0.00    +0.000 C 
ATOM      4  C   UNL     1       3.409   5.194  17.252  0.00  0.00    +0.000 C 
ATOM      5  C   UNL     1       3.558   3.760  17.829  0.00  0.00    +0.000 C 
ATOM      6  N   UNL     1       5.014   3.525  17.962  0.00  0.00    +0.000 NA
ATOM      7  H   UNL     1       5.277   2.639  17.537  0.00  0.00    +0.000 HD
ENDROOT
BRANCH   5   8
ATOM      8  C   UNL     1       2.803   3.378  19.114  0.00  0.00    +0.000 A 
ATOM      9  C   UNL     1       1.434   3.714  19.253  0.00  0.00    +0.000 A 
ATOM     10  C   UNL     1       0.719   3.453  20.424  0.00  0.00    +0.000 A 
ATOM     11  C   UNL     1       1.348   2.840  21.494  0.00  0.00    +0.000 A 
ATOM     12  C   UNL     1       2.680   2.457  21.377  0.00  0.00    +0.000 A 
ATOM     13  C   UNL     1       3.421   2.708  20.199  0.00  0.00    +0.000 A 
ATOM     14  C   UNL     1       4.818   2.162  20.132  0.00  0.00    +0.000 C 
ENDBRANCH   5   8
BRANCH   1  15
ATOM     15  C   UNL     1       6.362   5.563  18.560  0.00  0.00    +0.000 C 
ATOM     16  O   UNL     1       6.385   5.226  19.738  0.00  0.00    +0.000 OA
BRANCH  15  18
ATOM     17  C   UNL     1       8.073   7.179  18.445  0.00  0.00    +0.000 C 
ATOM     18  O   UNL     1       6.740   6.791  18.103  0.00  0.00    +0.000 OA
ENDBRANCH  15  18
ENDBRANCH   1  15
BRANCH   4  19
ATOM     19  C   UNL     1       3.152   6.136  18.417  0.00  0.00    +0.000 C 
ATOM     20  N   UNL     1       2.941   6.918  19.384  0.00  0.00    +0.000 NA
ENDBRANCH   4  19
TORSDOF 4
ENDMDL
MODEL 5
REMARK VINA RESULT:      -6.0      2.692      5.268
REMARK  Name = 
REMARK  7 active torsions:
REMARK  status: ('A' for Active; 'I' for Inactive)
REMARK    1  A    between atoms: C_1  and  O_2
REMARK    2  A    between atoms: O_2  and  C_3
REMARK    3  A    between atoms: C_3  and  C_5
REMARK    4  A    between atoms: C_5  and  C_6
REMARK    5  A    between atoms: C_8  and  C_9
REMARK    6  A    between atoms: C_11  and  C_12
REMARK    7  A    between atoms: C_17  and  C_18
REMARK                            x       y       z     vdW  Elec       q    Type
REMARK                         _______ _______ _______ _____ _____    ______ ____
ROOT
ATOM      1  C   UNL     1       1.716   2.734  19.044  0.00  0.00    +0.000 C 
ATOM      2  C   UNL     1       0.332   2.091  18.958  0.00  0.00    +0.000 C 
ATOM      3  C   UNL     1       2.851   1.703  18.979  0.00  0.00    +0.000 C 
ATOM      4  C   UNL     1       4.014   2.433  18.316  0.00  0.00    +0.000 C 
ATOM      5  C   UNL     1       3.312   3.421  17.344  0.00  0.00    +0.000 C 
ATOM      6  N   UNL     1       1.939   3.602  17.869  0.00  0.00    +0.000 NA
ATOM      7  H   UNL     1       1.251   3.465  17.133  0.00  0.00    +0.000 HD
ENDROOT
BRANCH   5   8
ATOM      8  C   UNL     1       3.978   4.770  17.022  0.00  0.00    +0.000 A 
ATOM      9  C   UNL     1       3.503   5.955  17.636  0.00  0.00    +0.000 A 
ATOM     10  C   UNL     1       4.024   7.213  17.328  0.00  0.00    +0.000 A 
ATOM     11  C   UNL     1       5.044   7.329  16.400  0.00  0.00    +0.000 A 
ATOM     12  C   UNL     1       5.565   6.181  15.809  0.00  0.00    +0.000 A 
ATOM     13  C   UNL     1       5.055   4.898  16.110  0.00  0.00    +0.000 A 
ATOM     14  C   UNL     1       5.754   3.716  15.502  0.00  0.00    +0.000 C 
ENDBRANCH   5   8
BRANCH   1  15
ATOM     15  C   UNL     1       1.751   3.530  20.376  0.00  0.00    +0.000 C 
ATOM     16  O   UNL     1       2.246   3.093  21.409  0.00  0.00    +0.000 OA
BRANCH  15  18
ATOM     17  C   UNL     1       1.803   5.860  20.723  0.00  0.00    +0.000 C 
ATOM     18  O   UNL     1       1.073   4.710  20.287  0.00  0.00    +0.000 OA
ENDBRANCH  15  18
ENDBRANCH   1  15
BRANCH   4  19
ATOM     19  C   UNL     1       4.822   3.257  19.306  0.00  0.00    +0.000 C 
ATOM     20  N   UNL     1       5.492   3.940  20.128  0.00  0.00    +0.000 NA
ENDBRANCH   4  19
TORSDOF 4
ENDMDL
MODEL 6
REMARK VINA RESULT:      -6.0      1.888      2.880
REMARK  Name = 
REMARK  7 active torsions:
REMARK  status: ('A' for Active; 'I' for Inactive)
REMARK    1  A    between atoms: C_1  and  O_2
REMARK    2  A    between atoms: O_2  and  C_3
REMARK    3  A    between atoms: C_3  and  C_5
REMARK    4  A    between atoms: C_5  and  C_6
REMARK    5  A    between atoms: C_8  and  C_9
REMARK    6  A    between atoms: C_11  and  C_12
REMARK    7  A    between atoms: C_17  and  C_18
REMARK                            x       y       z     vdW  Elec       q    Type
REMARK                         _______ _______ _______ _____ _____    ______ ____
ROOT
ATOM      1  C   UNL     1       7.127   5.775  18.363  0.00  0.00    +0.000 C 
ATOM      2  C   UNL     1       8.157   6.202  19.409  0.00  0.00    +0.000 C 
ATOM      3  C   UNL     1       7.641   4.653  17.451  0.00  0.00    +0.000 C 
ATOM      4  C   UNL     1       6.400   3.855  17.065  0.00  0.00    +0.000 C 
ATOM      5  C   UNL     1       5.488   3.980  18.315  0.00  0.00    +0.000 C 
ATOM      6  N   UNL     1       5.945   5.192  19.033  0.00  0.00    +0.000 NA
ATOM      7  H   UNL     1       6.101   4.991  20.017  0.00  0.00    +0.000 HD
ENDROOT
BRANCH   5   8
ATOM      8  C   UNL     1       3.959   3.968  18.142  0.00  0.00    +0.000 A 
ATOM      9  C   UNL     1       3.256   5.189  18.001  0.00  0.00    +0.000 A 
ATOM     10  C   UNL     1       1.863   5.240  17.911  0.00  0.00    +0.000 A 
ATOM     11  C   UNL     1       1.126   4.069  17.952  0.00  0.00    +0.000 A 
ATOM     12  C   UNL     1       1.787   2.848  18.046  0.00  0.00    +0.000 A 
ATOM     13  C   UNL     1       3.195   2.774  18.134  0.00  0.00    +0.000 A 
ATOM     14  C   UNL     1       3.818   1.408  18.125  0.00  0.00    +0.000 C 
ENDBRANCH   5   8
BRANCH   1  15
ATOM     15  C   UNL     1       6.771   7.048  17.549  0.00  0.00    +0.000 C 
ATOM     16  O   UNL     1       5.625   7.346  17.231  0.00  0.00    +0.000 OA
BRANCH  15  18
ATOM     17  C   UNL     1       8.024   9.039  17.682  0.00  0.00    +0.000 C 
ATOM     18  O   UNL     1       7.883   7.723  17.140  0.00  0.00    +0.000 OA
ENDBRANCH  15  18
ENDBRANCH   1  15
BRANCH   4  19
ATOM     19  C   UNL     1       5.658   4.468  15.888  0.00  0.00    +0.000 C 
ATOM     20  N   UNL     1       5.042   4.977  14.912  0.00  0.00    +0.000 NA
ENDBRANCH   4  19
TORSDOF 4
ENDMDL
MODEL 7
REMARK VINA RESULT:      -6.0      2.430      5.483
REMARK  Name = 
REMARK  7 active torsions:
REMARK  status: ('A' for Active; 'I' for Inactive)
REMARK    1  A    between atoms: C_1  and  O_2
REMARK    2  A    between atoms: O_2  and  C_3
REMARK    3  A    between atoms: C_3  and  C_5
REMARK    4  A    between atoms: C_5  and  C_6
REMARK    5  A    between atoms: C_8  and  C_9
REMARK    6  A    between atoms: C_11  and  C_12
REMARK    7  A    between atoms: C_17  and  C_18
REMARK                            x       y       z     vdW  Elec       q    Type
REMARK                         _______ _______ _______ _____ _____    ______ ____
ROOT
ATOM      1  C   UNL     1       4.061   2.725  19.945  0.00  0.00    +0.000 C 
ATOM      2  C   UNL     1       4.382   1.693  21.027  0.00  0.00    +0.000 C 
ATOM      3  C   UNL     1       3.700   4.098  20.528  0.00  0.00    +0.000 C 
ATOM      4  C   UNL     1       4.163   5.107  19.482  0.00  0.00    +0.000 C 
ATOM      5  C   UNL     1       5.409   4.427  18.852  0.00  0.00    +0.000 C 
ATOM      6  N   UNL     1       5.261   2.978  19.123  0.00  0.00    +0.000 NA
ATOM      7  H   UNL     1       6.113   2.599  19.528  0.00  0.00    +0.000 HD
ENDROOT
BRANCH   5   8
ATOM      8  C   UNL     1       5.755   4.696  17.377  0.00  0.00    +0.000 A 
ATOM      9  C   UNL     1       5.167   3.904  16.360  0.00  0.00    +0.000 A 
ATOM     10  C   UNL     1       5.498   4.059  15.012  0.00  0.00    +0.000 A 
ATOM     11  C   UNL     1       6.424   5.016  14.634  0.00  0.00    +0.000 A 
ATOM     12  C   UNL     1       6.989   5.841  15.603  0.00  0.00    +0.000 A 
ATOM     13  C   UNL     1       6.665   5.703  16.972  0.00  0.00    +0.000 A 
ATOM     14  C   UNL     1       7.246   6.709  17.924  0.00  0.00    +0.000 C 
ENDBRANCH   5   8
BRANCH   1  15
ATOM     15  C   UNL     1       2.891   2.138  19.111  0.00  0.00    +0.000 C 
ATOM     16  O   UNL     1       3.018   1.743  17.958  0.00  0.00    +0.000 OA
BRANCH  15  18
ATOM     17  C   UNL     1       0.586   2.604  18.957  0.00  0.00    +0.000 C 
ATOM     18  O   UNL     1       1.699   2.221  19.769  0.00  0.00    +0.000 OA
ENDBRANCH  15  18
ENDBRANCH   1  15
BRANCH   4  19
ATOM     19  C   UNL     1       3.139   5.309  18.377  0.00  0.00    +0.000 C 
ATOM     20  N   UNL     1       2.290   5.477  17.459  0.00  0.00    +0.000 NA
ENDBRANCH   4  19
TORSDOF 4
ENDMDL
MODEL 8
REMARK VINA RESULT:      -5.9      2.386      5.283
REMARK  Name = 
REMARK  7 active torsions:
REMARK  status: ('A' for Active; 'I' for Inactive)
REMARK    1  A    between atoms: C_1  and  O_2
REMARK    2  A    between atoms: O_2  and  C_3
REMARK    3  A    between atoms: C_3  and  C_5
REMARK    4  A    between atoms: C_5  and  C_6
REMARK    5  A    between atoms: C_8  and  C_9
REMARK    6  A    between atoms: C_11  and  C_12
REMARK    7  A    between atoms: C_17  and  C_18
REMARK                            x       y       z     vdW  Elec       q    Type
REMARK                         _______ _______ _______ _____ _____    ______ ____
ROOT
ATOM      1  C   UNL     1       1.714   3.181  18.826  0.00  0.00    +0.000 C 
ATOM      2  C   UNL     1       0.266   3.438  18.409  0.00  0.00    +0.000 C 
ATOM      3  C   UNL     1       2.181   1.757  18.492  0.00  0.00    +0.000 C 
ATOM      4  C   UNL     1       3.677   1.881  18.224  0.00  0.00    +0.000 C 
ATOM      5  C   UNL     1       3.815   3.301  17.610  0.00  0.00    +0.000 C 
ATOM      6  N   UNL     1       2.621   4.055  18.055  0.00  0.00    +0.000 NA
ATOM      7  H   UNL     1       2.166   4.508  17.266  0.00  0.00    +0.000 HD
ENDROOT
BRANCH   5   8
ATOM      8  C   UNL     1       5.109   4.103  17.839  0.00  0.00    +0.000 A 
ATOM      9  C   UNL     1       5.352   4.703  19.099  0.00  0.00    +0.000 A 
ATOM     10  C   UNL     1       6.475   5.499  19.339  0.00  0.00    +0.000 A 
ATOM     11  C   UNL     1       7.397   5.715  18.330  0.00  0.00    +0.000 A 
ATOM     12  C   UNL     1       7.211   5.105  17.093  0.00  0.00    +0.000 A 
ATOM     13  C   UNL     1       6.084   4.294  16.830  0.00  0.00    +0.000 A 
ATOM     14  C   UNL     1       6.030   3.596  15.501  0.00  0.00    +0.000 C 
ENDBRANCH   5   8
BRANCH   1  15
ATOM     15  C   UNL     1       1.790   3.457  20.352  0.00  0.00    +0.000 C 
ATOM     16  O   UNL     1       1.213   2.773  21.190  0.00  0.00    +0.000 OA
BRANCH  15  18
ATOM     17  C   UNL     1       1.655   5.758  20.839  0.00  0.00    +0.000 C 
ATOM     18  O   UNL     1       2.473   4.604  20.633  0.00  0.00    +0.000 OA
ENDBRANCH  15  18
ENDBRANCH   1  15
BRANCH   4  19
ATOM     19  C   UNL     1       4.500   1.849  19.502  0.00  0.00    +0.000 C 
ATOM     20  N   UNL     1       5.182   1.821  20.563  0.00  0.00    +0.000 NA
ENDBRANCH   4  19
TORSDOF 4
ENDMDL
MODEL 9
REMARK VINA RESULT:      -5.8      2.225      5.419
REMARK  Name = 
REMARK  7 active torsions:
REMARK  status: ('A' for Active; 'I' for Inactive)
REMARK    1  A    between atoms: C_1  and  O_2
REMARK    2  A    between atoms: O_2  and  C_3
REMARK    3  A    between atoms: C_3  and  C_5
REMARK    4  A    between atoms: C_5  and  C_6
REMARK    5  A    between atoms: C_8  and  C_9
REMARK    6  A    between atoms: C_11  and  C_12
REMARK    7  A    between atoms: C_17  and  C_18
REMARK                            x       y       z     vdW  Elec       q    Type
REMARK                         _______ _______ _______ _____ _____    ______ ____
ROOT
ATOM      1  C   UNL     1       1.793   3.650  18.315  0.00  0.00    +0.000 C 
ATOM      2  C   UNL     1       0.420   4.025  17.756  0.00  0.00    +0.000 C 
ATOM      3  C   UNL     1       2.179   2.197  18.005  0.00  0.00    +0.000 C 
ATOM      4  C   UNL     1       3.700   2.204  17.894  0.00  0.00    +0.000 C 
ATOM      5  C   UNL     1       4.012   3.614  17.323  0.00  0.00    +0.000 C 
ATOM      6  N   UNL     1       2.840   4.457  17.655  0.00  0.00    +0.000 NA
ATOM      7  H   UNL     1       2.506   4.951  16.832  0.00  0.00    +0.000 HD
ENDROOT
BRANCH   5   8
ATOM      8  C   UNL     1       5.333   4.308  17.696  0.00  0.00    +0.000 A 
ATOM      9  C   UNL     1       5.497   4.863  18.989  0.00  0.00    +0.000 A 
ATOM     10  C   UNL     1       6.647   5.564  19.358  0.00  0.00    +0.000 A 
ATOM     11  C   UNL     1       7.677   5.728  18.448  0.00  0.00    +0.000 A 
ATOM     12  C   UNL     1       7.568   5.159  17.183  0.00  0.00    +0.000 A 
ATOM     13  C   UNL     1       6.415   4.443  16.791  0.00  0.00    +0.000 A 
ATOM     14  C   UNL     1       6.439   3.778  15.444  0.00  0.00    +0.000 C 
ENDBRANCH   5   8
BRANCH   1  15
ATOM     15  C   UNL     1       1.732   3.905  19.845  0.00  0.00    +0.000 C 
ATOM     16  O   UNL     1       2.327   4.822  20.398  0.00  0.00    +0.000 OA
BRANCH  15  18
ATOM     17  C   UNL     1       1.567   2.567  21.777  0.00  0.00    +0.000 C 
ATOM     18  O   UNL     1       1.036   2.932  20.500  0.00  0.00    +0.000 OA
ENDBRANCH  15  18
ENDBRANCH   1  15
BRANCH   4  19
ATOM     19  C   UNL     1       4.381   2.095  19.249  0.00  0.00    +0.000 C 
ATOM     20  N   UNL     1       4.947   2.004  20.373  0.00  0.00    +0.000 NA
ENDBRANCH   4  19
TORSDOF 4
ENDMDL
