MODEL 1
REMARK VINA RESULT:      -8.5      0.000      0.000
REMARK  Name = 
REMARK  5 active torsions:
REMARK  status: ('A' for Active; 'I' for Inactive)
REMARK    1  A    between atoms: O_1  and  C_2
REMARK    2  A    between atoms: C_2  and  C_3
REMARK    3  A    between atoms: C_8  and  C_9
REMARK    4  A    between atoms: C_17  and  C_18
REMARK    5  A    between atoms: C_18  and  N_19
REMARK                            x       y       z     vdW  Elec       q    Type
REMARK                         _______ _______ _______ _____ _____    ______ ____
ROOT
ATOM      1  C   UNL     1       5.783   6.033  18.224  0.00  0.00    +0.000 C 
ATOM      2  C   UNL     1       6.768   5.743  17.068  0.00  0.00    +0.000 C 
ATOM      3  N   UNL     1       5.831   5.506  15.980  0.00  0.00    +0.000 N 
ATOM      4  C   UNL     1       6.270   5.104  14.733  0.00  0.00    +0.000 A 
ATOM      5  C   UNL     1       5.356   4.448  13.912  0.00  0.00    +0.000 A 
ATOM      6  C   UNL     1       5.736   3.957  12.664  0.00  0.00    +0.000 A 
ATOM      7  C   UNL     1       7.050   4.167  12.249  0.00  0.00    +0.000 A 
ATOM      8  C   UNL     1       7.904   4.830  13.114  0.00  0.00    +0.000 A 
ATOM      9  N   UNL     1       7.546   5.285  14.342  0.00  0.00    +0.000 NA
ATOM     10  C   UNL     1       4.847   6.577  16.016  0.00  0.00    +0.000 C 
ATOM     11  C   UNL     1       4.635   6.827  17.530  0.00  0.00    +0.000 C 
ENDROOT
BRANCH   6  12
ATOM     12  C   UNL     1       4.751   3.214  11.809  0.00  0.00    +0.000 C 
ATOM     13  F   UNL     1       3.563   2.974  12.433  0.00  0.00    +0.000 F 
ATOM     14  F   UNL     1       4.440   3.887  10.667  0.00  0.00    +0.000 F 
ATOM     15  F   UNL     1       5.215   1.997  11.413  0.00  0.00    +0.000 F 
ENDBRANCH   6  12
BRANCH   1  16
ATOM     16  C   UNL     1       5.356   4.724  18.896  0.00  0.00    +0.000 C 
BRANCH  16  17
ATOM     17  O   UNL     1       6.325   3.712  18.631  0.00  0.00    +0.000 OA
ATOM     18  H   UNL     1       6.096   3.327  17.768  0.00  0.00    +0.000 HD
ENDBRANCH  16  17
ENDBRANCH   1  16
BRANCH  11  19
ATOM     19  C   UNL     1       3.168   6.489  17.874  0.00  0.00    +0.000 C 
BRANCH  19  20
ATOM     20  N   UNL     1       2.880   5.301  18.706  0.00  0.00    +0.000 NA
ATOM     21  C   UNL     1       2.274   5.667  19.996  0.00  0.00    +0.000 C 
ATOM     22  C   UNL     1       1.841   4.448  20.816  0.00  0.00    +0.000 C 
ATOM     23  C   UNL     1       0.897   3.551  20.027  0.00  0.00    +0.000 C 
ATOM     24  C   UNL     1       1.550   3.164  18.709  0.00  0.00    +0.000 C 
ATOM     25  C   UNL     1       1.987   4.407  17.934  0.00  0.00    +0.000 C 
ENDBRANCH  19  20
ENDBRANCH  11  19
TORSDOF 5
ENDMDL
MODEL 2
REMARK VINA RESULT:      -8.2      1.491      2.409
REMARK  Name = 
REMARK  5 active torsions:
REMARK  status: ('A' for Active; 'I' for Inactive)
REMARK    1  A    between atoms: O_1  and  C_2
REMARK    2  A    between atoms: C_2  and  C_3
REMARK    3  A    between atoms: C_8  and  C_9
REMARK    4  A    between atoms: C_17  and  C_18
REMARK    5  A    between atoms: C_18  and  N_19
REMARK                            x       y       z     vdW  Elec       q    Type
REMARK                         _______ _______ _______ _____ _____    ______ ____
ROOT
ATOM      1  C   UNL     1       5.659   5.982  18.334  0.00  0.00    +0.000 C 
ATOM      2  C   UNL     1       6.682   5.792  17.190  0.00  0.00    +0.000 C 
ATOM      3  N   UNL     1       5.784   5.492  16.085  0.00  0.00    +0.000 N 
ATOM      4  C   UNL     1       6.273   5.146  14.840  0.00  0.00    +0.000 A 
ATOM      5  C   UNL     1       5.429   4.427  13.996  0.00  0.00    +0.000 A 
ATOM      6  C   UNL     1       5.867   3.987  12.748  0.00  0.00    +0.000 A 
ATOM      7  C   UNL     1       7.164   4.311  12.356  0.00  0.00    +0.000 A 
ATOM      8  C   UNL     1       7.947   5.031  13.243  0.00  0.00    +0.000 A 
ATOM      9  N   UNL     1       7.535   5.437  14.471  0.00  0.00    +0.000 NA
ATOM     10  C   UNL     1       4.714   6.477  16.118  0.00  0.00    +0.000 C 
ATOM     11  C   UNL     1       4.459   6.688  17.632  0.00  0.00    +0.000 C 
ENDROOT
BRANCH   6  12
ATOM     12  C   UNL     1       4.960   3.176  11.869  0.00  0.00    +0.000 C 
ATOM     13  F   UNL     1       4.669   3.782  10.682  0.00  0.00    +0.000 F 
ATOM     14  F   UNL     1       5.494   1.965  11.546  0.00  0.00    +0.000 F 
ATOM     15  F   UNL     1       3.761   2.912  12.455  0.00  0.00    +0.000 F 
ENDBRANCH   6  12
BRANCH   1  16
ATOM     16  C   UNL     1       5.333   4.633  18.983  0.00  0.00    +0.000 C 
BRANCH  16  17
ATOM     17  O   UNL     1       6.320   3.672  18.611  0.00  0.00    +0.000 OA
ATOM     18  H   UNL     1       6.830   4.066  17.883  0.00  0.00    +0.000 HD
ENDBRANCH  16  17
ENDBRANCH   1  16
BRANCH  11  19
ATOM     19  C   UNL     1       3.021   6.224  17.949  0.00  0.00    +0.000 C 
BRANCH  19  20
ATOM     20  N   UNL     1       2.035   7.214  18.429  0.00  0.00    +0.000 NA
ATOM     21  C   UNL     1       2.155   7.454  19.876  0.00  0.00    +0.000 C 
ATOM     22  C   UNL     1       1.237   8.576  20.371  0.00  0.00    +0.000 C 
ATOM     23  C   UNL     1       1.473   9.868  19.602  0.00  0.00    +0.000 C 
ATOM     24  C   UNL     1       1.321   9.607  18.112  0.00  0.00    +0.000 C 
ATOM     25  C   UNL     1       2.236   8.468  17.665  0.00  0.00    +0.000 C 
ENDBRANCH  19  20
ENDBRANCH  11  19
TORSDOF 5
ENDMDL
MODEL 3
REMARK VINA RESULT:      -8.1      1.388      1.687
REMARK  Name = 
REMARK  5 active torsions:
REMARK  status: ('A' for Active; 'I' for Inactive)
REMARK    1  A    between atoms: O_1  and  C_2
REMARK    2  A    between atoms: C_2  and  C_3
REMARK    3  A    between atoms: C_8  and  C_9
REMARK    4  A    between atoms: C_17  and  C_18
REMARK    5  A    between atoms: C_18  and  N_19
REMARK                            x       y       z     vdW  Elec       q    Type
REMARK                         _______ _______ _______ _____ _____    ______ ____
ROOT
ATOM      1  C   UNL     1       6.127   5.372  17.716  0.00  0.00    +0.000 C 
ATOM      2  C   UNL     1       6.881   5.667  16.398  0.00  0.00    +0.000 C 
ATOM      3  N   UNL     1       6.148   4.809  15.480  0.00  0.00    +0.000 N 
ATOM      4  C   UNL     1       6.542   4.669  14.164  0.00  0.00    +0.000 A 
ATOM      5  C   UNL     1       6.131   3.521  13.489  0.00  0.00    +0.000 A 
ATOM      6  C   UNL     1       6.537   3.275  12.178  0.00  0.00    +0.000 A 
ATOM      7  C   UNL     1       7.341   4.224  11.551  0.00  0.00    +0.000 A 
ATOM      8  C   UNL     1       7.709   5.344  12.279  0.00  0.00    +0.000 A 
ATOM      9  N   UNL     1       7.340   5.573  13.565  0.00  0.00    +0.000 NA
ATOM     10  C   UNL     1       4.731   5.029  15.721  0.00  0.00    +0.000 C 
ATOM     11  C   UNL     1       4.645   5.215  17.257  0.00  0.00    +0.000 C 
ENDROOT
BRANCH   6  12
ATOM     12  C   UNL     1       6.122   2.013  11.481  0.00  0.00    +0.000 C 
ATOM     13  F   UNL     1       5.971   0.951  12.323  0.00  0.00    +0.000 F 
ATOM     14  F   UNL     1       4.931   2.143  10.832  0.00  0.00    +0.000 F 
ATOM     15  F   UNL     1       7.020   1.614  10.539  0.00  0.00    +0.000 F 
ENDBRANCH   6  12
BRANCH   1  16
ATOM     16  C   UNL     1       6.729   4.144  18.406  0.00  0.00    +0.000 C 
BRANCH  16  17
ATOM     17  O   UNL     1       8.084   3.978  17.992  0.00  0.00    +0.000 OA
ATOM     18  H   UNL     1       8.455   3.263  18.536  0.00  0.00    +0.000 HD
ENDBRANCH  16  17
ENDBRANCH   1  16
BRANCH  11  19
ATOM     19  C   UNL     1       3.794   4.064  17.836  0.00  0.00    +0.000 C 
BRANCH  19  20
ATOM     20  N   UNL     1       3.252   4.189  19.205  0.00  0.00    +0.000 NA
ATOM     21  C   UNL     1       1.853   4.648  19.203  0.00  0.00    +0.000 C 
ATOM     22  C   UNL     1       1.227   4.653  20.601  0.00  0.00    +0.000 C 
ATOM     23  C   UNL     1       1.333   3.286  21.264  0.00  0.00    +0.000 C 
ATOM     24  C   UNL     1       2.786   2.840  21.278  0.00  0.00    +0.000 C 
ATOM     25  C   UNL     1       3.378   2.871  19.869  0.00  0.00    +0.000 C 
ENDBRANCH  19  20
ENDBRANCH  11  19
TORSDOF 5
ENDMDL
MODEL 4
REMARK VINA RESULT:      -8.0      3.770      7.247
REMARK  Name = 
REMARK  5 active torsions:
REMARK  status: ('A' for Active; 'I' for Inactive)
REMARK    1  A    between atoms: O_1  and  C_2
REMARK    2  A    between atoms: C_2  and  C_3
REMARK    3  A    between atoms: C_8  and  C_9
REMARK    4  A    between atoms: C_17  and  C_18
REMARK    5  A    between atoms: C_18  and  N_19
REMARK                            x       y       z     vdW  Elec       q    Type
REMARK                         _______ _______ _______ _____ _____    ______ ____
ROOT
ATOM      1  C   UNL     1       6.769   4.459  18.144  0.00  0.00    +0.000 C 
ATOM      2  C   UNL     1       5.572   4.576  19.115  0.00  0.00    +0.000 C 
ATOM      3  N   UNL     1       4.765   5.565  18.418  0.00  0.00    +0.000 N 
ATOM      4  C   UNL     1       3.607   6.068  18.978  0.00  0.00    +0.000 A 
ATOM      5  C   UNL     1       3.157   7.305  18.522  0.00  0.00    +0.000 A 
ATOM      6  C   UNL     1       2.031   7.909  19.079  0.00  0.00    +0.000 A 
ATOM      7  C   UNL     1       1.351   7.227  20.086  0.00  0.00    +0.000 A 
ATOM      8  C   UNL     1       1.850   6.000  20.488  0.00  0.00    +0.000 A 
ATOM      9  N   UNL     1       2.963   5.421  19.968  0.00  0.00    +0.000 NA
ATOM     10  C   UNL     1       4.696   5.161  17.022  0.00  0.00    +0.000 C 
ATOM     11  C   UNL     1       6.108   4.588  16.738  0.00  0.00    +0.000 C 
ENDROOT
BRANCH   6  12
ATOM     12  C   UNL     1       1.585   9.262  18.607  0.00  0.00    +0.000 C 
ATOM     13  F   UNL     1       2.566   9.969  17.978  0.00  0.00    +0.000 F 
ATOM     14  F   UNL     1       0.553   9.191  17.720  0.00  0.00    +0.000 F 
ATOM     15  F   UNL     1       1.150  10.055  19.624  0.00  0.00    +0.000 F 
ENDBRANCH   6  12
BRANCH   1  16
ATOM     16  C   UNL     1       7.820   5.525  18.470  0.00  0.00    +0.000 C 
BRANCH  16  17
ATOM     17  O   UNL     1       8.094   5.515  19.870  0.00  0.00    +0.000 OA
ATOM     18  H   UNL     1       8.202   4.583  20.125  0.00  0.00    +0.000 HD
ENDBRANCH  16  17
ENDBRANCH   1  16
BRANCH  11  19
ATOM     19  C   UNL     1       6.781   5.472  15.666  0.00  0.00    +0.000 C 
BRANCH  19  20
ATOM     20  N   UNL     1       6.516   5.198  14.238  0.00  0.00    +0.000 NA
ATOM     21  C   UNL     1       7.736   5.306  13.422  0.00  0.00    +0.000 C 
ATOM     22  C   UNL     1       7.514   4.893  11.963  0.00  0.00    +0.000 C 
ATOM     23  C   UNL     1       6.936   3.488  11.864  0.00  0.00    +0.000 C 
ATOM     24  C   UNL     1       5.665   3.402  12.693  0.00  0.00    +0.000 C 
ATOM     25  C   UNL     1       5.925   3.844  14.134  0.00  0.00    +0.000 C 
ENDBRANCH  19  20
ENDBRANCH  11  19
TORSDOF 5
ENDMDL
MODEL 5
REMARK VINA RESULT:      -8.0      1.292      2.074
REMARK  Name = 
REMARK  5 active torsions:
REMARK  status: ('A' for Active; 'I' for Inactive)
REMARK    1  A    between atoms: O_1  and  C_2
REMARK    2  A    between atoms: C_2  and  C_3
REMARK    3  A    between atoms: C_8  and  C_9
REMARK    4  A    between atoms: C_17  and  C_18
REMARK    5  A    between atoms: C_18  and  N_19
REMARK                            x       y       z     vdW  Elec       q    Type
REMARK                         _______ _______ _______ _____ _____    ______ ____
ROOT
ATOM      1  C   UNL     1       6.172   6.023  17.867  0.00  0.00    +0.000 C 
ATOM      2  C   UNL     1       7.094   5.996  16.626  0.00  0.00    +0.000 C 
ATOM      3  N   UNL     1       6.212   5.360  15.660  0.00  0.00    +0.000 N 
ATOM      4  C   UNL     1       6.656   5.032  14.393  0.00  0.00    +0.000 A 
ATOM      5  C   UNL     1       5.965   4.035  13.709  0.00  0.00    +0.000 A 
ATOM      6  C   UNL     1       6.387   3.603  12.452  0.00  0.00    +0.000 A 
ATOM      7  C   UNL     1       7.502   4.218  11.887  0.00  0.00    +0.000 A 
ATOM      8  C   UNL     1       8.139   5.204  12.621  0.00  0.00    +0.000 A 
ATOM      9  N   UNL     1       7.749   5.608  13.858  0.00  0.00    +0.000 NA
ATOM     10  C   UNL     1       4.921   6.025  15.750  0.00  0.00    +0.000 C 
ATOM     11  C   UNL     1       4.763   6.313  17.264  0.00  0.00    +0.000 C 
ENDROOT
BRANCH   6  12
ATOM     12  C   UNL     1       5.657   2.497  11.747  0.00  0.00    +0.000 C 
ATOM     13  F   UNL     1       6.254   2.107  10.584  0.00  0.00    +0.000 F 
ATOM     14  F   UNL     1       5.556   1.372  12.507  0.00  0.00    +0.000 F 
ATOM     15  F   UNL     1       4.383   2.840  11.413  0.00  0.00    +0.000 F 
ENDBRANCH   6  12
BRANCH   1  16
ATOM     16  C   UNL     1       6.290   4.708  18.644  0.00  0.00    +0.000 C 
BRANCH  16  17
ATOM     17  O   UNL     1       7.485   4.031  18.259  0.00  0.00    +0.000 OA
ATOM     18  H   UNL     1       8.225   4.542  18.628  0.00  0.00    +0.000 HD
ENDBRANCH  16  17
ENDBRANCH   1  16
BRANCH  11  19
ATOM     19  C   UNL     1       3.544   5.519  17.782  0.00  0.00    +0.000 C 
BRANCH  19  20
ATOM     20  N   UNL     1       2.458   6.241  18.476  0.00  0.00    +0.000 NA
ATOM     21  C   UNL     1       2.420   5.927  19.914  0.00  0.00    +0.000 C 
ATOM     22  C   UNL     1       1.392   6.767  20.679  0.00  0.00    +0.000 C 
ATOM     23  C   UNL     1       1.625   8.257  20.471  0.00  0.00    +0.000 C 
ATOM     24  C   UNL     1       1.637   8.566  18.983  0.00  0.00    +0.000 C 
ATOM     25  C   UNL     1       2.658   7.692  18.255  0.00  0.00    +0.000 C 
ENDBRANCH  19  20
ENDBRANCH  11  19
TORSDOF 5
ENDMDL
MODEL 6
REMARK VINA RESULT:      -8.0      1.155      1.386
REMARK  Name = 
REMARK  5 active torsions:
REMARK  status: ('A' for Active; 'I' for Inactive)
REMARK    1  A    between atoms: O_1  and  C_2
REMARK    2  A    between atoms: C_2  and  C_3
REMARK    3  A    between atoms: C_8  and  C_9
REMARK    4  A    between atoms: C_17  and  C_18
REMARK    5  A    between atoms: C_18  and  N_19
REMARK                            x       y       z     vdW  Elec       q    Type
REMARK                         _______ _______ _______ _____ _____    ______ ____
ROOT
ATOM      1  C   UNL     1       6.011   5.687  17.725  0.00  0.00    +0.000 C 
ATOM      2  C   UNL     1       6.924   5.801  16.483  0.00  0.00    +0.000 C 
ATOM      3  N   UNL     1       6.125   5.079  15.504  0.00  0.00    +0.000 N 
ATOM      4  C   UNL     1       6.603   4.834  14.231  0.00  0.00    +0.000 A 
ATOM      5  C   UNL     1       6.041   3.771  13.528  0.00  0.00    +0.000 A 
ATOM      6  C   UNL     1       6.508   3.422  12.262  0.00  0.00    +0.000 A 
ATOM      7  C   UNL     1       7.536   4.183  11.708  0.00  0.00    +0.000 A 
ATOM      8  C   UNL     1       8.046   5.227  12.461  0.00  0.00    +0.000 A 
ATOM      9  N   UNL     1       7.613   5.554  13.706  0.00  0.00    +0.000 NA
ATOM     10  C   UNL     1       4.762   5.574  15.609  0.00  0.00    +0.000 C 
ATOM     11  C   UNL     1       4.575   5.809  17.130  0.00  0.00    +0.000 C 
ENDROOT
BRANCH   6  12
ATOM     12  C   UNL     1       5.921   2.247  11.535  0.00  0.00    +0.000 C 
ATOM     13  F   UNL     1       4.689   2.495  11.007  0.00  0.00    +0.000 F 
ATOM     14  F   UNL     1       6.696   1.839  10.492  0.00  0.00    +0.000 F 
ATOM     15  F   UNL     1       5.769   1.157  12.337  0.00  0.00    +0.000 F 
ENDBRANCH   6  12
BRANCH   1  16
ATOM     16  C   UNL     1       6.297   4.383  18.475  0.00  0.00    +0.000 C 
BRANCH  16  17
ATOM     17  O   UNL     1       6.346   4.639  19.878  0.00  0.00    +0.000 OA
ATOM     18  H   UNL     1       7.285   4.615  20.131  0.00  0.00    +0.000 HD
ENDBRANCH  16  17
ENDBRANCH   1  16
BRANCH  11  19
ATOM     19  C   UNL     1       3.467   4.858  17.632  0.00  0.00    +0.000 C 
BRANCH  19  20
ATOM     20  N   UNL     1       3.307   4.645  19.086  0.00  0.00    +0.000 NA
ATOM     21  C   UNL     1       2.166   5.400  19.630  0.00  0.00    +0.000 C 
ATOM     22  C   UNL     1       1.897   5.088  21.105  0.00  0.00    +0.000 C 
ATOM     23  C   UNL     1       1.697   3.596  21.332  0.00  0.00    +0.000 C 
ATOM     24  C   UNL     1       2.895   2.835  20.786  0.00  0.00    +0.000 C 
ATOM     25  C   UNL     1       3.142   3.191  19.321  0.00  0.00    +0.000 C 
ENDBRANCH  19  20
ENDBRANCH  11  19
TORSDOF 5
ENDMDL
MODEL 7
REMARK VINA RESULT:      -8.0      0.996      1.696
REMARK  Name = 
REMARK  5 active torsions:
REMARK  status: ('A' for Active; 'I' for Inactive)
REMARK    1  A    between atoms: O_1  and  C_2
REMARK    2  A    between atoms: C_2  and  C_3
REMARK    3  A    between atoms: C_8  and  C_9
REMARK    4  A    between atoms: C_17  and  C_18
REMARK    5  A    between atoms: C_18  and  N_19
REMARK                            x       y       z     vdW  Elec       q    Type
REMARK                         _______ _______ _______ _____ _____    ______ ____
ROOT
ATOM      1  C   UNL     1       6.081   6.109  17.947  0.00  0.00    +0.000 C 
ATOM      2  C   UNL     1       7.011   5.836  16.742  0.00  0.00    +0.000 C 
ATOM      3  N   UNL     1       6.027   5.524  15.717  0.00  0.00    +0.000 N 
ATOM      4  C   UNL     1       6.413   5.110  14.457  0.00  0.00    +0.000 A 
ATOM      5  C   UNL     1       5.488   4.389  13.706  0.00  0.00    +0.000 A 
ATOM      6  C   UNL     1       5.821   3.883  12.450  0.00  0.00    +0.000 A 
ATOM      7  C   UNL     1       7.096   4.145  11.955  0.00  0.00    +0.000 A 
ATOM      8  C   UNL     1       7.964   4.871  12.752  0.00  0.00    +0.000 A 
ATOM      9  N   UNL     1       7.654   5.341  13.988  0.00  0.00    +0.000 NA
ATOM     10  C   UNL     1       4.995   6.547  15.784  0.00  0.00    +0.000 C 
ATOM     11  C   UNL     1       4.857   6.828  17.301  0.00  0.00    +0.000 C 
ENDROOT
BRANCH   6  12
ATOM     12  C   UNL     1       4.827   3.070  11.673  0.00  0.00    +0.000 C 
ATOM     13  F   UNL     1       4.466   3.640  10.488  0.00  0.00    +0.000 F 
ATOM     14  F   UNL     1       5.298   1.831  11.360  0.00  0.00    +0.000 F 
ATOM     15  F   UNL     1       3.666   2.869  12.356  0.00  0.00    +0.000 F 
ENDBRANCH   6  12
BRANCH   1  16
ATOM     16  C   UNL     1       5.758   4.800  18.674  0.00  0.00    +0.000 C 
BRANCH  16  17
ATOM     17  O   UNL     1       6.782   3.842  18.412  0.00  0.00    +0.000 OA
ATOM     18  H   UNL     1       7.224   4.125  17.594  0.00  0.00    +0.000 HD
ENDBRANCH  16  17
ENDBRANCH   1  16
BRANCH  11  19
ATOM     19  C   UNL     1       3.431   6.429  17.739  0.00  0.00    +0.000 C 
BRANCH  19  20
ATOM     20  N   UNL     1       2.984   6.746  19.111  0.00  0.00    +0.000 NA
ATOM     21  C   UNL     1       2.160   7.965  19.154  0.00  0.00    +0.000 C 
ATOM     22  C   UNL     1       1.572   8.237  20.542  0.00  0.00    +0.000 C 
ATOM     23  C   UNL     1       0.775   7.044  21.053  0.00  0.00    +0.000 C 
ATOM     24  C   UNL     1       1.649   5.801  21.024  0.00  0.00    +0.000 C 
ATOM     25  C   UNL     1       2.233   5.579  19.629  0.00  0.00    +0.000 C 
ENDBRANCH  19  20
ENDBRANCH  11  19
TORSDOF 5
ENDMDL
MODEL 8
REMARK VINA RESULT:      -7.8      0.619      1.060
REMARK  Name = 
REMARK  5 active torsions:
REMARK  status: ('A' for Active; 'I' for Inactive)
REMARK    1  A    between atoms: O_1  and  C_2
REMARK    2  A    between atoms: C_2  and  C_3
REMARK    3  A    between atoms: C_8  and  C_9
REMARK    4  A    between atoms: C_17  and  C_18
REMARK    5  A    between atoms: C_18  and  N_19
REMARK                            x       y       z     vdW  Elec       q    Type
REMARK                         _______ _______ _______ _____ _____    ______ ____
ROOT
ATOM      1  C   UNL     1       5.988   6.143  18.081  0.00  0.00    +0.000 C 
ATOM      2  C   UNL     1       6.944   5.922  16.886  0.00  0.00    +0.000 C 
ATOM      3  N   UNL     1       5.991   5.533  15.858  0.00  0.00    +0.000 N 
ATOM      4  C   UNL     1       6.413   5.133  14.605  0.00  0.00    +0.000 A 
ATOM      5  C   UNL     1       5.544   4.342  13.856  0.00  0.00    +0.000 A 
ATOM      6  C   UNL     1       5.920   3.847  12.608  0.00  0.00    +0.000 A 
ATOM      7  C   UNL     1       7.178   4.190  12.118  0.00  0.00    +0.000 A 
ATOM      8  C   UNL     1       7.989   4.983  12.912  0.00  0.00    +0.000 A 
ATOM      9  N   UNL     1       7.639   5.444  14.141  0.00  0.00    +0.000 NA
ATOM     10  C   UNL     1       4.891   6.483  15.906  0.00  0.00    +0.000 C 
ATOM     11  C   UNL     1       4.723   6.771  17.420  0.00  0.00    +0.000 C 
ENDROOT
BRANCH   6  12
ATOM     12  C   UNL     1       4.990   2.960  11.834  0.00  0.00    +0.000 C 
ATOM     13  F   UNL     1       4.785   3.374  10.551  0.00  0.00    +0.000 F 
ATOM     14  F   UNL     1       5.447   1.680  11.741  0.00  0.00    +0.000 F 
ATOM     15  F   UNL     1       3.754   2.876  12.399  0.00  0.00    +0.000 F 
ENDBRANCH   6  12
BRANCH   1  16
ATOM     16  C   UNL     1       5.751   4.823  18.821  0.00  0.00    +0.000 C 
BRANCH  16  17
ATOM     17  O   UNL     1       6.913   4.481  19.574  0.00  0.00    +0.000 OA
ATOM     18  H   UNL     1       7.316   5.319  19.859  0.00  0.00    +0.000 HD
ENDBRANCH  16  17
ENDBRANCH   1  16
BRANCH  11  19
ATOM     19  C   UNL     1       3.324   6.279  17.853  0.00  0.00    +0.000 C 
BRANCH  19  20
ATOM     20  N   UNL     1       3.174   4.902  18.369  0.00  0.00    +0.000 NA
ATOM     21  C   UNL     1       2.331   4.856  19.574  0.00  0.00    +0.000 C 
ATOM     22  C   UNL     1       2.048   3.427  20.048  0.00  0.00    +0.000 C 
ATOM     23  C   UNL     1       1.430   2.585  18.940  0.00  0.00    +0.000 C 
ATOM     24  C   UNL     1       2.326   2.625  17.713  0.00  0.00    +0.000 C 
ATOM     25  C   UNL     1       2.601   4.067  17.288  0.00  0.00    +0.000 C 
ENDBRANCH  19  20
ENDBRANCH  11  19
TORSDOF 5
ENDMDL
MODEL 9
REMARK VINA RESULT:      -7.8      1.143      1.557
REMARK  Name = 
REMARK  5 active torsions:
REMARK  status: ('A' for Active; 'I' for Inactive)
REMARK    1  A    between atoms: O_1  and  C_2
REMARK    2  A    between atoms: C_2  and  C_3
REMARK    3  A    between atoms: C_8  and  C_9
REMARK    4  A    between atoms: C_17  and  C_18
REMARK    5  A    between atoms: C_18  and  N_19
REMARK                            x       y       z     vdW  Elec       q    Type
REMARK                         _______ _______ _______ _____ _____    ______ ____
ROOT
ATOM      1  C   UNL     1       6.685   6.237  18.022  0.00  0.00    +0.000 C 
ATOM      2  C   UNL     1       7.465   6.061  16.698  0.00  0.00    +0.000 C 
ATOM      3  N   UNL     1       6.393   5.613  15.821  0.00  0.00    +0.000 N 
ATOM      4  C   UNL     1       6.647   5.229  14.519  0.00  0.00    +0.000 A 
ATOM      5  C   UNL     1       5.722   4.387  13.906  0.00  0.00    +0.000 A 
ATOM      6  C   UNL     1       5.936   3.906  12.615  0.00  0.00    +0.000 A 
ATOM      7  C   UNL     1       7.087   4.314  11.944  0.00  0.00    +0.000 A 
ATOM      8  C   UNL     1       7.960   5.156  12.612  0.00  0.00    +0.000 A 
ATOM      9  N   UNL     1       7.771   5.604  13.879  0.00  0.00    +0.000 NA
ATOM     10  C   UNL     1       5.261   6.502  16.034  0.00  0.00    +0.000 C 
ATOM     11  C   UNL     1       5.303   6.789  17.557  0.00  0.00    +0.000 C 
ENDROOT
BRANCH   6  12
ATOM     12  C   UNL     1       4.952   2.964  11.985  0.00  0.00    +0.000 C 
ATOM     13  F   UNL     1       5.434   1.698  11.829  0.00  0.00    +0.000 F 
ATOM     14  F   UNL     1       3.810   2.837  12.717  0.00  0.00    +0.000 F 
ATOM     15  F   UNL     1       4.560   3.367  10.745  0.00  0.00    +0.000 F 
ENDBRANCH   6  12
BRANCH   1  16
ATOM     16  C   UNL     1       6.634   4.910  18.786  0.00  0.00    +0.000 C 
BRANCH  16  17
ATOM     17  O   UNL     1       7.628   4.024  18.275  0.00  0.00    +0.000 OA
ATOM     18  H   UNL     1       7.550   3.198  18.781  0.00  0.00    +0.000 HD
ENDBRANCH  16  17
ENDBRANCH   1  16
BRANCH  11  19
ATOM     19  C   UNL     1       4.014   6.224  18.191  0.00  0.00    +0.000 C 
BRANCH  19  20
ATOM     20  N   UNL     1       3.421   4.989  17.635  0.00  0.00    +0.000 NA
ATOM     21  C   UNL     1       4.067   3.780  18.168  0.00  0.00    +0.000 C 
ATOM     22  C   UNL     1       3.380   2.488  17.713  0.00  0.00    +0.000 C 
ATOM     23  C   UNL     1       1.899   2.492  18.065  0.00  0.00    +0.000 C 
ATOM     24  C   UNL     1       1.243   3.735  17.486  0.00  0.00    +0.000 C 
ATOM     25  C   UNL     1       1.972   4.998  17.946  0.00  0.00    +0.000 C 
ENDBRANCH  19  20
ENDBRANCH  11  19
TORSDOF 5
ENDMDL
