MODEL 1
REMARK VINA RESULT:      -8.0      0.000      0.000
REMARK  Name = 
REMARK  7 active torsions:
REMARK  status: ('A' for Active; 'I' for Inactive)
REMARK    1  A    between atoms: C_1  and  C_2
REMARK    2  A    between atoms: C_5  and  C_6
REMARK    3  A    between atoms: C_6  and  C_7
REMARK    4  A    between atoms: C_7  and  C_8
REMARK    5  A    between atoms: N_10  and  C_11
REMARK    6  A    between atoms: C_11  and  C_12
REMARK    7  A    between atoms: N_20  and  C_21
REMARK                            x       y       z     vdW  Elec       q    Type
REMARK                         _______ _______ _______ _____ _____    ______ ____
ROOT
ATOM      1  C   UNL     1       6.069   4.837  17.650  0.00  0.00    +0.000 C 
ENDROOT
BRANCH   1   2
ATOM      2  C   UNL     1       4.935   4.353  18.492  0.00  0.00    +0.000 A 
ATOM      3  N   UNL     1       5.017   3.388  19.395  0.00  0.00    +0.000 NA
ATOM      4  C   UNL     1       3.787   3.337  19.996  0.00  0.00    +0.000 A 
ATOM      5  C   UNL     1       3.352   2.507  21.042  0.00  0.00    +0.000 A 
ATOM      6  C   UNL     1       2.041   2.624  21.512  0.00  0.00    +0.000 A 
ATOM      7  C   UNL     1       1.171   3.551  20.950  0.00  0.00    +0.000 A 
ATOM      8  C   UNL     1       1.589   4.395  19.916  0.00  0.00    +0.000 A 
ATOM      9  C   UNL     1       2.907   4.272  19.447  0.00  0.00    +0.000 A 
ATOM     10  N   UNL     1       3.665   4.901  18.479  0.00  0.00    +0.000 N 
BRANCH  10  11
ATOM     11  C   UNL     1       3.251   5.988  17.597  0.00  0.00    +0.000 C 
ATOM     12  C   UNL     1       2.428   7.180  18.050  0.00  0.00    +0.000 C 
ATOM     13  C   UNL     1       3.861   7.375  17.686  0.00  0.00    +0.000 C 
ENDBRANCH  10  11
ENDBRANCH   1   2
BRANCH   1  16
ATOM     14  C   UNL     1       7.487   6.824  17.772  0.00  0.00    +0.000 C 
ATOM     15  O   UNL     1       7.381   7.038  16.568  0.00  0.00    +0.000 OA
ATOM     16  N   UNL     1       6.874   5.771  18.401  0.00  0.00    +0.000 N 
ATOM     17  H   UNL     1       6.843   5.702  19.414  0.00  0.00    +0.000 HD
BRANCH  14  18
ATOM     18  C   UNL     1       8.350   7.690  18.663  0.00  0.00    +0.000 C 
BRANCH  18  19
ATOM     19  C   UNL     1       8.322   9.157  18.244  0.00  0.00    +0.000 C 
BRANCH  19  24
ATOM     20  C   UNL     1       9.778  12.378  21.471  0.00  0.00    +0.000 C 
ATOM     21  C   UNL     1       9.286  11.922  20.111  0.00  0.00    +0.000 C 
ATOM     22  C   UNL     1      10.265  12.211  18.990  0.00  0.00    +0.000 C 
ATOM     23  C   UNL     1       9.850  11.193  17.957  0.00  0.00    +0.000 C 
ATOM     24  C   UNL     1       9.475   9.989  18.812  0.00  0.00    +0.000 C 
ATOM     25  O   UNL     1       9.086  10.501  20.103  0.00  0.00    +0.000 OA
ENDBRANCH  19  24
ENDBRANCH  18  19
ENDBRANCH  14  18
ENDBRANCH   1  16
TORSDOF 6
ENDMDL
MODEL 2
REMARK VINA RESULT:      -8.0      1.609      2.462
REMARK  Name = 
REMARK  7 active torsions:
REMARK  status: ('A' for Active; 'I' for Inactive)
REMARK    1  A    between atoms: C_1  and  C_2
REMARK    2  A    between atoms: C_5  and  C_6
REMARK    3  A    between atoms: C_6  and  C_7
REMARK    4  A    between atoms: C_7  and  C_8
REMARK    5  A    between atoms: N_10  and  C_11
REMARK    6  A    between atoms: C_11  and  C_12
REMARK    7  A    between atoms: N_20  and  C_21
REMARK                            x       y       z     vdW  Elec       q    Type
REMARK                         _______ _______ _______ _____ _____    ______ ____
ROOT
ATOM      1  C   UNL     1       7.628   5.215  18.229  0.00  0.00    +0.000 C 
ENDROOT
BRANCH   1   2
ATOM      2  C   UNL     1       6.238   4.677  18.323  0.00  0.00    +0.000 A 
ATOM      3  N   UNL     1       5.661   4.256  19.438  0.00  0.00    +0.000 NA
ATOM      4  C   UNL     1       4.371   3.946  19.094  0.00  0.00    +0.000 A 
ATOM      5  C   UNL     1       3.329   3.483  19.913  0.00  0.00    +0.000 A 
ATOM      6  C   UNL     1       2.075   3.229  19.350  0.00  0.00    +0.000 A 
ATOM      7  C   UNL     1       1.858   3.430  17.992  0.00  0.00    +0.000 A 
ATOM      8  C   UNL     1       2.880   3.904  17.163  0.00  0.00    +0.000 A 
ATOM      9  C   UNL     1       4.138   4.155  17.733  0.00  0.00    +0.000 A 
ATOM     10  N   UNL     1       5.353   4.613  17.263  0.00  0.00    +0.000 N 
BRANCH  10  11
ATOM     11  C   UNL     1       5.682   5.009  15.897  0.00  0.00    +0.000 C 
ATOM     12  C   UNL     1       6.707   4.300  15.032  0.00  0.00    +0.000 C 
ATOM     13  C   UNL     1       5.260   4.187  14.693  0.00  0.00    +0.000 C 
ENDBRANCH  10  11
ENDBRANCH   1   2
BRANCH   1  16
ATOM     14  C   UNL     1       7.791   7.577  17.621  0.00  0.00    +0.000 C 
ATOM     15  O   UNL     1       7.913   7.315  16.427  0.00  0.00    +0.000 OA
ATOM     16  N   UNL     1       7.638   6.614  18.585  0.00  0.00    +0.000 N 
ATOM     17  H   UNL     1       7.380   6.853  19.538  0.00  0.00    +0.000 HD
BRANCH  14  18
ATOM     18  C   UNL     1       7.846   8.998  18.134  0.00  0.00    +0.000 C 
BRANCH  18  19
ATOM     19  C   UNL     1       9.196   9.334  18.763  0.00  0.00    +0.000 C 
BRANCH  19  24
ATOM     20  C   UNL     1      12.086  13.067  19.544  0.00  0.00    +0.000 C 
ATOM     21  C   UNL     1      11.283  11.845  19.944  0.00  0.00    +0.000 C 
ATOM     22  C   UNL     1      10.184  12.149  20.943  0.00  0.00    +0.000 C 
ATOM     23  C   UNL     1       9.236  11.000  20.709  0.00  0.00    +0.000 C 
ATOM     24  C   UNL     1       9.333  10.794  19.202  0.00  0.00    +0.000 C 
ATOM     25  O   UNL     1      10.629  11.280  18.798  0.00  0.00    +0.000 OA
ENDBRANCH  19  24
ENDBRANCH  18  19
ENDBRANCH  14  18
ENDBRANCH   1  16
TORSDOF 6
ENDMDL
MODEL 3
REMARK VINA RESULT:      -8.0      1.714      2.492
REMARK  Name = 
REMARK  7 active torsions:
REMARK  status: ('A' for Active; 'I' for Inactive)
REMARK    1  A    between atoms: C_1  and  C_2
REMARK    2  A    between atoms: C_5  and  C_6
REMARK    3  A    between atoms: C_6  and  C_7
REMARK    4  A    between atoms: C_7  and  C_8
REMARK    5  A    between atoms: N_10  and  C_11
REMARK    6  A    between atoms: C_11  and  C_12
REMARK    7  A    between atoms: N_20  and  C_21
REMARK                            x       y       z     vdW  Elec       q    Type
REMARK                         _______ _______ _______ _____ _____    ______ ____
ROOT
ATOM      1  C   UNL     1       7.269   5.298  18.393  0.00  0.00    +0.000 C 
ENDROOT
BRANCH   1   2
ATOM      2  C   UNL     1       5.845   4.888  18.567  0.00  0.00    +0.000 A 
ATOM      3  N   UNL     1       5.091   5.189  19.613  0.00  0.00    +0.000 NA
ATOM      4  C   UNL     1       3.841   4.708  19.320  0.00  0.00    +0.000 A 
ATOM      5  C   UNL     1       2.665   4.791  20.083  0.00  0.00    +0.000 A 
ATOM      6  C   UNL     1       1.485   4.228  19.589  0.00  0.00    +0.000 A 
ATOM      7  C   UNL     1       1.472   3.590  18.354  0.00  0.00    +0.000 A 
ATOM      8  C   UNL     1       2.630   3.509  17.574  0.00  0.00    +0.000 A 
ATOM      9  C   UNL     1       3.813   4.074  18.076  0.00  0.00    +0.000 A 
ATOM     10  N   UNL     1       5.111   4.195  17.622  0.00  0.00    +0.000 N 
BRANCH  10  11
ATOM     11  C   UNL     1       5.653   3.723  16.351  0.00  0.00    +0.000 C 
ATOM     12  C   UNL     1       5.423   4.417  15.021  0.00  0.00    +0.000 C 
ATOM     13  C   UNL     1       6.781   4.443  15.637  0.00  0.00    +0.000 C 
ENDBRANCH  10  11
ENDBRANCH   1   2
BRANCH   1  16
ATOM     14  C   UNL     1       7.673   7.532  17.485  0.00  0.00    +0.000 C 
ATOM     15  O   UNL     1       7.819   7.100  16.345  0.00  0.00    +0.000 OA
ATOM     16  N   UNL     1       7.393   6.728  18.560  0.00  0.00    +0.000 N 
ATOM     17  H   UNL     1       7.119   7.116  19.458  0.00  0.00    +0.000 HD
BRANCH  14  18
ATOM     18  C   UNL     1       7.836   9.001  17.807  0.00  0.00    +0.000 C 
BRANCH  18  19
ATOM     19  C   UNL     1       8.936   9.248  18.835  0.00  0.00    +0.000 C 
BRANCH  19  24
ATOM     20  C   UNL     1      11.786  12.836  17.454  0.00  0.00    +0.000 C 
ATOM     21  C   UNL     1      11.357  11.691  18.350  0.00  0.00    +0.000 C 
ATOM     22  C   UNL     1      11.065  12.120  19.775  0.00  0.00    +0.000 C 
ATOM     23  C   UNL     1      10.144  11.019  20.239  0.00  0.00    +0.000 C 
ATOM     24  C   UNL     1       9.329  10.721  18.987  0.00  0.00    +0.000 C 
ATOM     25  O   UNL     1      10.143  11.101  17.859  0.00  0.00    +0.000 OA
ENDBRANCH  19  24
ENDBRANCH  18  19
ENDBRANCH  14  18
ENDBRANCH   1  16
TORSDOF 6
ENDMDL
MODEL 4
REMARK VINA RESULT:      -8.0      3.899      6.619
REMARK  Name = 
REMARK  7 active torsions:
REMARK  status: ('A' for Active; 'I' for Inactive)
REMARK    1  A    between atoms: C_1  and  C_2
REMARK    2  A    between atoms: C_5  and  C_6
REMARK    3  A    between atoms: C_6  and  C_7
REMARK    4  A    between atoms: C_7  and  C_8
REMARK    5  A    between atoms: N_10  and  C_11
REMARK    6  A    between atoms: C_11  and  C_12
REMARK    7  A    between atoms: N_20  and  C_21
REMARK                            x       y       z     vdW  Elec       q    Type
REMARK                         _______ _______ _______ _____ _____    ______ ____
ROOT
ATOM      1  C   UNL     1       6.575   4.404  18.188  0.00  0.00    +0.000 C 
ENDROOT
BRANCH   1   2
ATOM      2  C   UNL     1       5.213   4.172  18.754  0.00  0.00    +0.000 A 
ATOM      3  N   UNL     1       4.802   3.041  19.305  0.00  0.00    +0.000 NA
ATOM      4  C   UNL     1       3.541   3.294  19.776  0.00  0.00    +0.000 A 
ATOM      5  C   UNL     1       2.672   2.437  20.472  0.00  0.00    +0.000 A 
ATOM      6  C   UNL     1       1.416   2.904  20.866  0.00  0.00    +0.000 A 
ATOM      7  C   UNL     1       1.025   4.206  20.574  0.00  0.00    +0.000 A 
ATOM      8  C   UNL     1       1.881   5.079  19.894  0.00  0.00    +0.000 A 
ATOM      9  C   UNL     1       3.141   4.603  19.498  0.00  0.00    +0.000 A 
ATOM     10  N   UNL     1       4.227   5.138  18.834  0.00  0.00    +0.000 N 
BRANCH  10  11
ATOM     11  C   UNL     1       4.369   6.498  18.321  0.00  0.00    +0.000 C 
ATOM     12  C   UNL     1       4.046   6.903  16.894  0.00  0.00    +0.000 C 
ATOM     13  C   UNL     1       3.168   7.371  18.005  0.00  0.00    +0.000 C 
ENDBRANCH  10  11
ENDBRANCH   1   2
BRANCH   1  16
ATOM     14  C   UNL     1       7.055   5.353  15.986  0.00  0.00    +0.000 C 
ATOM     15  O   UNL     1       7.603   6.338  16.473  0.00  0.00    +0.000 OA
ATOM     16  N   UNL     1       6.523   4.343  16.746  0.00  0.00    +0.000 N 
ATOM     17  H   UNL     1       6.219   3.468  16.329  0.00  0.00    +0.000 HD
BRANCH  14  18
ATOM     18  C   UNL     1       6.880   5.195  14.493  0.00  0.00    +0.000 C 
BRANCH  18  19
ATOM     19  C   UNL     1       6.329   3.822  14.118  0.00  0.00    +0.000 C 
BRANCH  19  24
ATOM     20  C   UNL     1       3.347   3.495  10.389  0.00  0.00    +0.000 C 
ATOM     21  C   UNL     1       4.207   2.947  11.511  0.00  0.00    +0.000 C 
ATOM     22  C   UNL     1       5.337   2.060  11.025  0.00  0.00    +0.000 C 
ATOM     23  C   UNL     1       6.313   2.158  12.170  0.00  0.00    +0.000 C 
ATOM     24  C   UNL     1       6.160   3.608  12.611  0.00  0.00    +0.000 C 
ATOM     25  O   UNL     1       4.832   4.022  12.230  0.00  0.00    +0.000 OA
ENDBRANCH  19  24
ENDBRANCH  18  19
ENDBRANCH  14  18
ENDBRANCH   1  16
TORSDOF 6
ENDMDL
MODEL 5
REMARK VINA RESULT:      -7.8      0.802      1.144
REMARK  Name = 
REMARK  7 active torsions:
REMARK  status: ('A' for Active; 'I' for Inactive)
REMARK    1  A    between atoms: C_1  and  C_2
REMARK    2  A    between atoms: C_5  and  C_6
REMARK    3  A    between atoms: C_6  and  C_7
REMARK    4  A    between atoms: C_7  and  C_8
REMARK    5  A    between atoms: N_10  and  C_11
REMARK    6  A    between atoms: C_11  and  C_12
REMARK    7  A    between atoms: N_20  and  C_21
REMARK                            x       y       z     vdW  Elec       q    Type
REMARK                         _______ _______ _______ _____ _____    ______ ____
ROOT
ATOM      1  C   UNL     1       6.135   4.509  17.749  0.00  0.00    +0.000 C 
ENDROOT
BRANCH   1   2
ATOM      2  C   UNL     1       4.948   4.119  18.564  0.00  0.00    +0.000 A 
ATOM      3  N   UNL     1       4.947   3.192  19.510  0.00  0.00    +0.000 NA
ATOM      4  C   UNL     1       3.694   3.227  20.063  0.00  0.00    +0.000 A 
ATOM      5  C   UNL     1       3.179   2.466  21.126  0.00  0.00    +0.000 A 
ATOM      6  C   UNL     1       1.859   2.666  21.537  0.00  0.00    +0.000 A 
ATOM      7  C   UNL     1       1.058   3.609  20.902  0.00  0.00    +0.000 A 
ATOM      8  C   UNL     1       1.557   4.386  19.851  0.00  0.00    +0.000 A 
ATOM      9  C   UNL     1       2.883   4.178  19.440  0.00  0.00    +0.000 A 
ATOM     10  N   UNL     1       3.708   4.726  18.478  0.00  0.00    +0.000 N 
BRANCH  10  11
ATOM     11  C   UNL     1       3.383   5.793  17.535  0.00  0.00    +0.000 C 
ATOM     12  C   UNL     1       2.347   6.869  17.799  0.00  0.00    +0.000 C 
ATOM     13  C   UNL     1       3.792   7.234  17.775  0.00  0.00    +0.000 C 
ENDBRANCH  10  11
ENDBRANCH   1   2
BRANCH   1  16
ATOM     14  C   UNL     1       7.353   6.628  17.692  0.00  0.00    +0.000 C 
ATOM     15  O   UNL     1       7.207   6.740  16.478  0.00  0.00    +0.000 OA
ATOM     16  N   UNL     1       6.857   5.571  18.410  0.00  0.00    +0.000 N 
ATOM     17  H   UNL     1       6.850   5.575  19.426  0.00  0.00    +0.000 HD
BRANCH  14  18
ATOM     18  C   UNL     1       8.141   7.638  18.496  0.00  0.00    +0.000 C 
BRANCH  18  19
ATOM     19  C   UNL     1       8.410   8.919  17.710  0.00  0.00    +0.000 C 
BRANCH  19  24
ATOM     20  C   UNL     1       9.294  13.615  17.970  0.00  0.00    +0.000 C 
ATOM     21  C   UNL     1       9.630  12.144  18.122  0.00  0.00    +0.000 C 
ATOM     22  C   UNL     1       9.926  11.741  19.554  0.00  0.00    +0.000 C 
ATOM     23  C   UNL     1       9.633  10.262  19.517  0.00  0.00    +0.000 C 
ATOM     24  C   UNL     1       8.440  10.184  18.573  0.00  0.00    +0.000 C 
ATOM     25  O   UNL     1       8.520  11.333  17.706  0.00  0.00    +0.000 OA
ENDBRANCH  19  24
ENDBRANCH  18  19
ENDBRANCH  14  18
ENDBRANCH   1  16
TORSDOF 6
ENDMDL
MODEL 6
REMARK VINA RESULT:      -7.7      5.018      8.372
REMARK  Name = 
REMARK  7 active torsions:
REMARK  status: ('A' for Active; 'I' for Inactive)
REMARK    1  A    between atoms: C_1  and  C_2
REMARK    2  A    between atoms: C_5  and  C_6
REMARK    3  A    between atoms: C_6  and  C_7
REMARK    4  A    between atoms: C_7  and  C_8
REMARK    5  A    between atoms: N_10  and  C_11
REMARK    6  A    between atoms: C_11  and  C_12
REMARK    7  A    between atoms: N_20  and  C_21
REMARK                            x       y       z     vdW  Elec       q    Type
REMARK                         _______ _______ _______ _____ _____    ______ ____
ROOT
ATOM      1  C   UNL     1       1.559   7.587  20.800  0.00  0.00    +0.000 C 
ENDROOT
BRANCH   1   2
ATOM      2  C   UNL     1       2.352   6.893  19.742  0.00  0.00    +0.000 A 
ATOM      3  N   UNL     1       2.871   7.480  18.675  0.00  0.00    +0.000 NA
ATOM      4  C   UNL     1       3.593   6.509  18.032  0.00  0.00    +0.000 A 
ATOM      5  C   UNL     1       4.364   6.614  16.863  0.00  0.00    +0.000 A 
ATOM      6  C   UNL     1       5.029   5.485  16.375  0.00  0.00    +0.000 A 
ATOM      7  C   UNL     1       4.928   4.267  17.038  0.00  0.00    +0.000 A 
ATOM      8  C   UNL     1       4.176   4.146  18.211  0.00  0.00    +0.000 A 
ATOM      9  C   UNL     1       3.509   5.282  18.695  0.00  0.00    +0.000 A 
ATOM     10  N   UNL     1       2.699   5.555  19.780  0.00  0.00    +0.000 N 
BRANCH  10  11
ATOM     11  C   UNL     1       2.287   4.631  20.832  0.00  0.00    +0.000 C 
ATOM     12  C   UNL     1       1.143   3.644  20.693  0.00  0.00    +0.000 C 
ATOM     13  C   UNL     1       2.545   3.138  20.742  0.00  0.00    +0.000 C 
ENDBRANCH  10  11
ENDBRANCH   1   2
BRANCH   1  16
ATOM     14  C   UNL     1      -0.091   9.388  20.889  0.00  0.00    +0.000 C 
ATOM     15  O   UNL     1      -0.589   8.953  21.924  0.00  0.00    +0.000 OA
ATOM     16  N   UNL     1       0.973   8.792  20.263  0.00  0.00    +0.000 N 
ATOM     17  H   UNL     1       1.468   9.251  19.504  0.00  0.00    +0.000 HD
BRANCH  14  18
ATOM     18  C   UNL     1      -0.649  10.608  20.190  0.00  0.00    +0.000 C 
BRANCH  18  19
ATOM     19  C   UNL     1      -0.633  10.460  18.671  0.00  0.00    +0.000 C 
BRANCH  19  24
ATOM     20  C   UNL     1      -3.296  10.130  14.708  0.00  0.00    +0.000 C 
ATOM     21  C   UNL     1      -2.721  10.835  15.922  0.00  0.00    +0.000 C 
ATOM     22  C   UNL     1      -3.778  11.283  16.913  0.00  0.00    +0.000 C 
ATOM     23  C   UNL     1      -2.977  11.376  18.187  0.00  0.00    +0.000 C 
ATOM     24  C   UNL     1      -2.013  10.203  18.057  0.00  0.00    +0.000 C 
ATOM     25  O   UNL     1      -1.851   9.952  16.646  0.00  0.00    +0.000 OA
ENDBRANCH  19  24
ENDBRANCH  18  19
ENDBRANCH  14  18
ENDBRANCH   1  16
TORSDOF 6
ENDMDL
MODEL 7
REMARK VINA RESULT:      -7.7      1.901      2.865
REMARK  Name = 
REMARK  7 active torsions:
REMARK  status: ('A' for Active; 'I' for Inactive)
REMARK    1  A    between atoms: C_1  and  C_2
REMARK    2  A    between atoms: C_5  and  C_6
REMARK    3  A    between atoms: C_6  and  C_7
REMARK    4  A    between atoms: C_7  and  C_8
REMARK    5  A    between atoms: N_10  and  C_11
REMARK    6  A    between atoms: C_11  and  C_12
REMARK    7  A    between atoms: N_20  and  C_21
REMARK                            x       y       z     vdW  Elec       q    Type
REMARK                         _______ _______ _______ _____ _____    ______ ____
ROOT
ATOM      1  C   UNL     1       7.453   5.423  17.698  0.00  0.00    +0.000 C 
ENDROOT
BRANCH   1   2
ATOM      2  C   UNL     1       6.044   4.996  17.944  0.00  0.00    +0.000 A 
ATOM      3  N   UNL     1       5.326   5.323  19.007  0.00  0.00    +0.000 NA
ATOM      4  C   UNL     1       4.075   4.810  18.782  0.00  0.00    +0.000 A 
ATOM      5  C   UNL     1       2.928   4.902  19.587  0.00  0.00    +0.000 A 
ATOM      6  C   UNL     1       1.741   4.300  19.162  0.00  0.00    +0.000 A 
ATOM      7  C   UNL     1       1.692   3.614  17.953  0.00  0.00    +0.000 A 
ATOM      8  C   UNL     1       2.820   3.524  17.131  0.00  0.00    +0.000 A 
ATOM      9  C   UNL     1       4.010   4.128  17.565  0.00  0.00    +0.000 A 
ATOM     10  N   UNL     1       5.288   4.254  17.055  0.00  0.00    +0.000 N 
BRANCH  10  11
ATOM     11  C   UNL     1       5.788   3.742  15.783  0.00  0.00    +0.000 C 
ATOM     12  C   UNL     1       5.346   4.263  14.427  0.00  0.00    +0.000 C 
ATOM     13  C   UNL     1       6.730   4.545  14.904  0.00  0.00    +0.000 C 
ENDBRANCH  10  11
ENDBRANCH   1   2
BRANCH   1  16
ATOM     14  C   UNL     1       8.127   7.718  18.208  0.00  0.00    +0.000 C 
ATOM     15  O   UNL     1       8.700   7.376  19.239  0.00  0.00    +0.000 OA
ATOM     16  N   UNL     1       7.490   6.831  17.378  0.00  0.00    +0.000 N 
ATOM     17  H   UNL     1       7.163   7.107  16.457  0.00  0.00    +0.000 HD
BRANCH  14  18
ATOM     18  C   UNL     1       8.038   9.168  17.789  0.00  0.00    +0.000 C 
BRANCH  18  19
ATOM     19  C   UNL     1       8.946  10.067  18.624  0.00  0.00    +0.000 C 
BRANCH  19  24
ATOM     20  C   UNL     1      12.195  13.192  17.018  0.00  0.00    +0.000 C 
ATOM     21  C   UNL     1      11.246  12.603  18.044  0.00  0.00    +0.000 C 
ATOM     22  C   UNL     1      10.146  13.559  18.463  0.00  0.00    +0.000 C 
ATOM     23  C   UNL     1       9.088  12.603  18.955  0.00  0.00    +0.000 C 
ATOM     24  C   UNL     1       9.224  11.433  17.990  0.00  0.00    +0.000 C 
ATOM     25  O   UNL     1      10.582  11.450  17.505  0.00  0.00    +0.000 OA
ENDBRANCH  19  24
ENDBRANCH  18  19
ENDBRANCH  14  18
ENDBRANCH   1  16
TORSDOF 6
ENDMDL
MODEL 8
REMARK VINA RESULT:      -7.7      3.037      5.060
REMARK  Name = 
REMARK  7 active torsions:
REMARK  status: ('A' for Active; 'I' for Inactive)
REMARK    1  A    between atoms: C_1  and  C_2
REMARK    2  A    between atoms: C_5  and  C_6
REMARK    3  A    between atoms: C_6  and  C_7
REMARK    4  A    between atoms: C_7  and  C_8
REMARK    5  A    between atoms: N_10  and  C_11
REMARK    6  A    between atoms: C_11  and  C_12
REMARK    7  A    between atoms: N_20  and  C_21
REMARK                            x       y       z     vdW  Elec       q    Type
REMARK                         _______ _______ _______ _____ _____    ______ ____
ROOT
ATOM      1  C   UNL     1       6.559   6.050  17.299  0.00  0.00    +0.000 C 
ENDROOT
BRANCH   1   2
ATOM      2  C   UNL     1       6.485   5.478  15.923  0.00  0.00    +0.000 A 
ATOM      3  N   UNL     1       7.425   5.600  14.998  0.00  0.00    +0.000 NA
ATOM      4  C   UNL     1       6.999   4.849  13.934  0.00  0.00    +0.000 A 
ATOM      5  C   UNL     1       7.642   4.616  12.708  0.00  0.00    +0.000 A 
ATOM      6  C   UNL     1       7.023   3.806  11.751  0.00  0.00    +0.000 A 
ATOM      7  C   UNL     1       5.781   3.235  12.008  0.00  0.00    +0.000 A 
ATOM      8  C   UNL     1       5.132   3.445  13.229  0.00  0.00    +0.000 A 
ATOM      9  C   UNL     1       5.757   4.261  14.185  0.00  0.00    +0.000 A 
ATOM     10  N   UNL     1       5.447   4.690  15.460  0.00  0.00    +0.000 N 
BRANCH  10  11
ATOM     11  C   UNL     1       4.258   4.361  16.241  0.00  0.00    +0.000 C 
ATOM     12  C   UNL     1       4.236   3.336  17.361  0.00  0.00    +0.000 C 
ATOM     13  C   UNL     1       4.102   4.784  17.690  0.00  0.00    +0.000 C 
ENDBRANCH  10  11
ENDBRANCH   1   2
BRANCH   1  16
ATOM     14  C   UNL     1       7.971   7.885  18.085  0.00  0.00    +0.000 C 
ATOM     15  O   UNL     1       8.525   7.172  18.917  0.00  0.00    +0.000 OA
ATOM     16  N   UNL     1       6.997   7.425  17.237  0.00  0.00    +0.000 N 
ATOM     17  H   UNL     1       6.666   7.982  16.454  0.00  0.00    +0.000 HD
BRANCH  14  18
ATOM     18  C   UNL     1       8.292   9.358  17.956  0.00  0.00    +0.000 C 
BRANCH  18  19
ATOM     19  C   UNL     1       9.176   9.857  19.095  0.00  0.00    +0.000 C 
BRANCH  19  24
ATOM     20  C   UNL     1      11.825  13.129  16.819  0.00  0.00    +0.000 C 
ATOM     21  C   UNL     1      11.516  12.143  17.929  0.00  0.00    +0.000 C 
ATOM     22  C   UNL     1      11.415  12.791  19.296  0.00  0.00    +0.000 C 
ATOM     23  C   UNL     1      10.562  11.794  20.040  0.00  0.00    +0.000 C 
ATOM     24  C   UNL     1       9.588  11.327  18.966  0.00  0.00    +0.000 C 
ATOM     25  O   UNL     1      10.247  11.513  17.697  0.00  0.00    +0.000 OA
ENDBRANCH  19  24
ENDBRANCH  18  19
ENDBRANCH  14  18
ENDBRANCH   1  16
TORSDOF 6
ENDMDL
MODEL 9
REMARK VINA RESULT:      -7.7      3.817      6.402
REMARK  Name = 
REMARK  7 active torsions:
REMARK  status: ('A' for Active; 'I' for Inactive)
REMARK    1  A    between atoms: C_1  and  C_2
REMARK    2  A    between atoms: C_5  and  C_6
REMARK    3  A    between atoms: C_6  and  C_7
REMARK    4  A    between atoms: C_7  and  C_8
REMARK    5  A    between atoms: N_10  and  C_11
REMARK    6  A    between atoms: C_11  and  C_12
REMARK    7  A    between atoms: N_20  and  C_21
REMARK                            x       y       z     vdW  Elec       q    Type
REMARK                         _______ _______ _______ _____ _____    ______ ____
ROOT
ATOM      1  C   UNL     1       6.586   4.832  18.619  0.00  0.00    +0.000 C 
ENDROOT
BRANCH   1   2
ATOM      2  C   UNL     1       5.213   4.458  19.070  0.00  0.00    +0.000 A 
ATOM      3  N   UNL     1       4.880   3.293  19.603  0.00  0.00    +0.000 NA
ATOM      4  C   UNL     1       3.562   3.410  19.960  0.00  0.00    +0.000 A 
ATOM      5  C   UNL     1       2.734   2.469  20.593  0.00  0.00    +0.000 A 
ATOM      6  C   UNL     1       1.405   2.801  20.870  0.00  0.00    +0.000 A 
ATOM      7  C   UNL     1       0.903   4.050  20.523  0.00  0.00    +0.000 A 
ATOM      8  C   UNL     1       1.716   5.005  19.904  0.00  0.00    +0.000 A 
ATOM      9  C   UNL     1       3.050   4.666  19.626  0.00  0.00    +0.000 A 
ATOM     10  N   UNL     1       4.125   5.311  19.048  0.00  0.00    +0.000 N 
BRANCH  10  11
ATOM     11  C   UNL     1       4.164   6.674  18.526  0.00  0.00    +0.000 C 
ATOM     12  C   UNL     1       3.947   7.029  17.066  0.00  0.00    +0.000 C 
ATOM     13  C   UNL     1       2.911   7.401  18.073  0.00  0.00    +0.000 C 
ENDBRANCH  10  11
ENDBRANCH   1   2
BRANCH   1  16
ATOM     14  C   UNL     1       7.136   5.334  16.290  0.00  0.00    +0.000 C 
ATOM     15  O   UNL     1       7.318   6.524  16.535  0.00  0.00    +0.000 OA
ATOM     16  N   UNL     1       6.781   4.420  17.248  0.00  0.00    +0.000 N 
ATOM     17  H   UNL     1       6.792   3.422  17.060  0.00  0.00    +0.000 HD
BRANCH  14  18
ATOM     18  C   UNL     1       7.248   4.784  14.886  0.00  0.00    +0.000 C 
BRANCH  18  19
ATOM     19  C   UNL     1       5.938   4.903  14.113  0.00  0.00    +0.000 C 
BRANCH  19  24
ATOM     20  C   UNL     1       6.996   1.372  11.061  0.00  0.00    +0.000 C 
ATOM     21  C   UNL     1       6.375   2.693  11.470  0.00  0.00    +0.000 C 
ATOM     22  C   UNL     1       4.865   2.715  11.335  0.00  0.00    +0.000 C 
ATOM     23  C   UNL     1       4.491   3.806  12.306  0.00  0.00    +0.000 C 
ATOM     24  C   UNL     1       5.495   3.604  13.433  0.00  0.00    +0.000 C 
ATOM     25  O   UNL     1       6.651   2.968  12.852  0.00  0.00    +0.000 OA
ENDBRANCH  19  24
ENDBRANCH  18  19
ENDBRANCH  14  18
ENDBRANCH   1  16
TORSDOF 6
ENDMDL
