MODEL 1
REMARK VINA RESULT:      -8.6      0.000      0.000
REMARK  Name = 
REMARK  5 active torsions:
REMARK  status: ('A' for Active; 'I' for Inactive)
REMARK    1  A    between atoms: C_2  and  C_3
REMARK    2  A    between atoms: C_7  and  N_8
REMARK    3  A    between atoms: C_9  and  C_11
REMARK    4  A    between atoms: C_15  and  S_16
REMARK    5  A    between atoms: S_16  and  N_19
REMARK                            x       y       z     vdW  Elec       q    Type
REMARK                         _______ _______ _______ _____ _____    ______ ____
ROOT
ATOM      1  C   UNL     1       7.851   7.782  18.272  0.00  0.00    +0.000 A 
ATOM      2  C   UNL     1       8.441   6.845  19.139  0.00  0.00    +0.000 A 
ATOM      3  C   UNL     1       8.118   5.490  19.057  0.00  0.00    +0.000 A 
ATOM      4  C   UNL     1       7.219   5.058  18.090  0.00  0.00    +0.000 A 
ATOM      5  C   UNL     1       6.654   5.984  17.202  0.00  0.00    +0.000 A 
ATOM      6  C   UNL     1       6.935   7.355  17.308  0.00  0.00    +0.000 A 
ENDROOT
BRANCH   1   8
ATOM      7  N   UNL     1       9.290   9.490  19.309  0.00  0.00    +0.000 N 
ATOM      8  C   UNL     1       8.371   9.172  18.322  0.00  0.00    +0.000 C 
ATOM      9  O   UNL     1       7.957   9.939  17.452  0.00  0.00    +0.000 OA
ATOM     10  H   UNL     1       9.736   8.730  19.806  0.00  0.00    +0.000 HD
BRANCH   7  15
ATOM     11  C   UNL     1      11.005  12.751  18.733  0.00  0.00    +0.000 A 
ATOM     12  C   UNL     1      10.800  13.401  19.954  0.00  0.00    +0.000 A 
ATOM     13  C   UNL     1      10.105  12.755  20.970  0.00  0.00    +0.000 A 
ATOM     14  C   UNL     1       9.610  11.465  20.763  0.00  0.00    +0.000 A 
ATOM     15  C   UNL     1       9.791  10.801  19.544  0.00  0.00    +0.000 A 
ATOM     16  C   UNL     1      10.510  11.448  18.532  0.00  0.00    +0.000 A 
BRANCH  11  18
ATOM     17  N   UNL     1      12.305  13.972  16.849  0.00  0.00    +0.000 NA
ATOM     18  C   UNL     1      11.717  13.426  17.688  0.00  0.00    +0.000 C 
ENDBRANCH  11  18
ENDBRANCH   7  15
ENDBRANCH   1   8
BRANCH   5  19
ATOM     19  S   UNL     1       5.567   5.398  15.910  0.00  0.00    +0.000 S 
ATOM     20  O   UNL     1       5.204   6.539  15.096  0.00  0.00    +0.000 OA
ATOM     21  O   UNL     1       6.202   4.232  15.330  0.00  0.00    +0.000 OA
BRANCH  19  22
ATOM     22  N   UNL     1       4.180   4.899  16.789  0.00  0.00    +0.000 NA
ATOM     23  C   UNL     1       4.141   3.481  17.208  0.00  0.00    +0.000 C 
ATOM     24  C   UNL     1       2.736   2.895  17.097  0.00  0.00    +0.000 C 
ATOM     25  C   UNL     1       1.840   3.184  18.295  0.00  0.00    +0.000 C 
ATOM     26  C   UNL     1       1.555   4.664  18.509  0.00  0.00    +0.000 C 
ATOM     27  C   UNL     1       2.807   5.448  18.881  0.00  0.00    +0.000 C 
ATOM     28  C   UNL     1       3.601   5.939  17.679  0.00  0.00    +0.000 C 
ENDBRANCH  19  22
ENDBRANCH   5  19
TORSDOF 5
ENDMDL
MODEL 2
REMARK VINA RESULT:      -8.4      1.190      1.875
REMARK  Name = 
REMARK  5 active torsions:
REMARK  status: ('A' for Active; 'I' for Inactive)
REMARK    1  A    between atoms: C_2  and  C_3
REMARK    2  A    between atoms: C_7  and  N_8
REMARK    3  A    between atoms: C_9  and  C_11
REMARK    4  A    between atoms: C_15  and  S_16
REMARK    5  A    between atoms: S_16  and  N_19
REMARK                            x       y       z     vdW  Elec       q    Type
REMARK                         _______ _______ _______ _____ _____    ______ ____
ROOT
ATOM      1  C   UNL     1       7.872   7.819  18.276  0.00  0.00    +0.000 A 
ATOM      2  C   UNL     1       8.451   6.881  19.149  0.00  0.00    +0.000 A 
ATOM      3  C   UNL     1       8.119   5.528  19.070  0.00  0.00    +0.000 A 
ATOM      4  C   UNL     1       7.221   5.099  18.101  0.00  0.00    +0.000 A 
ATOM      5  C   UNL     1       6.666   6.026  17.208  0.00  0.00    +0.000 A 
ATOM      6  C   UNL     1       6.956   7.395  17.310  0.00  0.00    +0.000 A 
ENDROOT
BRANCH   1   8
ATOM      7  N   UNL     1       9.328   9.518  19.304  0.00  0.00    +0.000 N 
ATOM      8  C   UNL     1       8.401   9.206  18.323  0.00  0.00    +0.000 C 
ATOM      9  O   UNL     1       7.987   9.975  17.456  0.00  0.00    +0.000 OA
ATOM     10  H   UNL     1       9.771   8.755  19.799  0.00  0.00    +0.000 HD
BRANCH   7  15
ATOM     11  C   UNL     1       9.848  12.856  20.881  0.00  0.00    +0.000 A 
ATOM     12  C   UNL     1      10.821  13.417  20.048  0.00  0.00    +0.000 A 
ATOM     13  C   UNL     1      11.294  12.695  18.960  0.00  0.00    +0.000 A 
ATOM     14  C   UNL     1      10.803  11.412  18.708  0.00  0.00    +0.000 A 
ATOM     15  C   UNL     1       9.839  10.825  19.537  0.00  0.00    +0.000 A 
ATOM     16  C   UNL     1       9.350  11.565  20.619  0.00  0.00    +0.000 A 
BRANCH  11  18
ATOM     17  N   UNL     1       8.992  14.212  22.921  0.00  0.00    +0.000 NA
ATOM     18  C   UNL     1       9.368  13.605  22.006  0.00  0.00    +0.000 C 
ENDBRANCH  11  18
ENDBRANCH   7  15
ENDBRANCH   1   8
BRANCH   5  19
ATOM     19  S   UNL     1       5.580   5.443  15.914  0.00  0.00    +0.000 S 
ATOM     20  O   UNL     1       5.202   6.589  15.114  0.00  0.00    +0.000 OA
ATOM     21  O   UNL     1       6.225   4.289  15.318  0.00  0.00    +0.000 OA
BRANCH  19  22
ATOM     22  N   UNL     1       4.202   4.920  16.792  0.00  0.00    +0.000 NA
ATOM     23  C   UNL     1       4.182   3.498  17.201  0.00  0.00    +0.000 C 
ATOM     24  C   UNL     1       2.785   2.895  17.089  0.00  0.00    +0.000 C 
ATOM     25  C   UNL     1       1.888   3.164  18.292  0.00  0.00    +0.000 C 
ATOM     26  C   UNL     1       1.585   4.638  18.517  0.00  0.00    +0.000 C 
ATOM     27  C   UNL     1       2.827   5.435  18.891  0.00  0.00    +0.000 C 
ATOM     28  C   UNL     1       3.612   5.945  17.691  0.00  0.00    +0.000 C 
ENDBRANCH  19  22
ENDBRANCH   5  19
TORSDOF 5
ENDMDL
MODEL 3
REMARK VINA RESULT:      -7.9      6.554      8.924
REMARK  Name = 
REMARK  5 active torsions:
REMARK  status: ('A' for Active; 'I' for Inactive)
REMARK    1  A    between atoms: C_2  and  C_3
REMARK    2  A    between atoms: C_7  and  N_8
REMARK    3  A    between atoms: C_9  and  C_11
REMARK    4  A    between atoms: C_15  and  S_16
REMARK    5  A    between atoms: S_16  and  N_19
REMARK                            x       y       z     vdW  Elec       q    Type
REMARK                         _______ _______ _______ _____ _____    ______ ____
ROOT
ATOM      1  C   UNL     1       1.453   9.157  20.070  0.00  0.00    +0.000 A 
ATOM      2  C   UNL     1       1.514   9.698  18.773  0.00  0.00    +0.000 A 
ATOM      3  C   UNL     1       1.930   8.922  17.692  0.00  0.00    +0.000 A 
ATOM      4  C   UNL     1       2.268   7.590  17.895  0.00  0.00    +0.000 A 
ATOM      5  C   UNL     1       2.177   7.037  19.180  0.00  0.00    +0.000 A 
ATOM      6  C   UNL     1       1.807   7.822  20.282  0.00  0.00    +0.000 A 
ENDROOT
BRANCH   1   8
ATOM      7  N   UNL     1       0.010  11.036  20.741  0.00  0.00    +0.000 N 
ATOM      8  C   UNL     1       0.847  10.002  21.130  0.00  0.00    +0.000 C 
ATOM      9  O   UNL     1       1.120   9.698  22.291  0.00  0.00    +0.000 OA
ATOM     10  H   UNL     1      -0.332  11.038  19.789  0.00  0.00    +0.000 HD
BRANCH   7  15
ATOM     11  C   UNL     1      -2.318  12.598  23.200  0.00  0.00    +0.000 A 
ATOM     12  C   UNL     1      -1.711  13.838  23.420  0.00  0.00    +0.000 A 
ATOM     13  C   UNL     1      -0.539  14.160  22.745  0.00  0.00    +0.000 A 
ATOM     14  C   UNL     1       0.029  13.242  21.859  0.00  0.00    +0.000 A 
ATOM     15  C   UNL     1      -0.554  11.989  21.634  0.00  0.00    +0.000 A 
ATOM     16  C   UNL     1      -1.745  11.678  22.300  0.00  0.00    +0.000 A 
BRANCH  11  18
ATOM     17  N   UNL     1      -4.494  11.993  24.478  0.00  0.00    +0.000 NA
ATOM     18  C   UNL     1      -3.523  12.270  23.904  0.00  0.00    +0.000 C 
ENDBRANCH  11  18
ENDBRANCH   7  15
ENDBRANCH   1   8
BRANCH   5  19
ATOM     19  S   UNL     1       2.532   5.301  19.406  0.00  0.00    +0.000 S 
ATOM     20  O   UNL     1       2.774   5.086  20.818  0.00  0.00    +0.000 OA
ATOM     21  O   UNL     1       1.500   4.570  18.700  0.00  0.00    +0.000 OA
BRANCH  19  22
ATOM     22  N   UNL     1       4.019   5.112  18.570  0.00  0.00    +0.000 NA
ATOM     23  C   UNL     1       5.200   4.776  19.395  0.00  0.00    +0.000 C 
ATOM     24  C   UNL     1       6.457   5.490  18.903  0.00  0.00    +0.000 C 
ATOM     25  C   UNL     1       7.168   4.788  17.753  0.00  0.00    +0.000 C 
ATOM     26  C   UNL     1       6.336   4.691  16.482  0.00  0.00    +0.000 C 
ATOM     27  C   UNL     1       5.111   3.804  16.657  0.00  0.00    +0.000 C 
ATOM     28  C   UNL     1       3.896   4.539  17.205  0.00  0.00    +0.000 C 
ENDBRANCH  19  22
ENDBRANCH   5  19
TORSDOF 5
ENDMDL
MODEL 4
REMARK VINA RESULT:      -7.9      5.724      7.884
REMARK  Name = 
REMARK  5 active torsions:
REMARK  status: ('A' for Active; 'I' for Inactive)
REMARK    1  A    between atoms: C_2  and  C_3
REMARK    2  A    between atoms: C_7  and  N_8
REMARK    3  A    between atoms: C_9  and  C_11
REMARK    4  A    between atoms: C_15  and  S_16
REMARK    5  A    between atoms: S_16  and  N_19
REMARK                            x       y       z     vdW  Elec       q    Type
REMARK                         _______ _______ _______ _____ _____    ______ ____
ROOT
ATOM      1  C   UNL     1       1.839   5.521  20.413  0.00  0.00    +0.000 A 
ATOM      2  C   UNL     1       1.919   4.785  21.609  0.00  0.00    +0.000 A 
ATOM      3  C   UNL     1       2.314   3.447  21.601  0.00  0.00    +0.000 A 
ATOM      4  C   UNL     1       2.655   2.840  20.399  0.00  0.00    +0.000 A 
ATOM      5  C   UNL     1       2.610   3.580  19.209  0.00  0.00    +0.000 A 
ATOM      6  C   UNL     1       2.166   4.911  19.199  0.00  0.00    +0.000 A 
ENDROOT
BRANCH   1   8
ATOM      7  N   UNL     1       0.540   7.384  21.365  0.00  0.00    +0.000 N 
ATOM      8  C   UNL     1       1.568   6.977  20.529  0.00  0.00    +0.000 C 
ATOM      9  O   UNL     1       2.306   7.720  19.883  0.00  0.00    +0.000 OA
ATOM     10  H   UNL     1       0.168   6.712  22.023  0.00  0.00    +0.000 HD
BRANCH   7  15
ATOM     11  C   UNL     1      -0.570  10.819  20.434  0.00  0.00    +0.000 A 
ATOM     12  C   UNL     1      -0.784  11.400  21.688  0.00  0.00    +0.000 A 
ATOM     13  C   UNL     1      -0.550  10.658  22.839  0.00  0.00    +0.000 A 
ATOM     14  C   UNL     1      -0.109   9.336  22.738  0.00  0.00    +0.000 A 
ATOM     15  C   UNL     1       0.098   8.730  21.493  0.00  0.00    +0.000 A 
ATOM     16  C   UNL     1      -0.119   9.489  20.337  0.00  0.00    +0.000 A 
BRANCH  11  18
ATOM     17  N   UNL     1      -1.029  12.222  18.300  0.00  0.00    +0.000 NA
ATOM     18  C   UNL     1      -0.820  11.590  19.251  0.00  0.00    +0.000 C 
ENDBRANCH  11  18
ENDBRANCH   7  15
ENDBRANCH   1   8
BRANCH   5  19
ATOM     19  S   UNL     1       3.135   2.808  17.685  0.00  0.00    +0.000 S 
ATOM     20  O   UNL     1       3.357   1.405  17.962  0.00  0.00    +0.000 OA
ATOM     21  O   UNL     1       2.203   3.235  16.661  0.00  0.00    +0.000 OA
BRANCH  19  22
ATOM     22  N   UNL     1       4.656   3.549  17.398  0.00  0.00    +0.000 NA
ATOM     23  C   UNL     1       4.790   4.310  16.137  0.00  0.00    +0.000 C 
ATOM     24  C   UNL     1       6.169   4.128  15.509  0.00  0.00    +0.000 C 
ATOM     25  C   UNL     1       7.243   5.048  16.077  0.00  0.00    +0.000 C 
ATOM     26  C   UNL     1       7.531   4.820  17.554  0.00  0.00    +0.000 C 
ATOM     27  C   UNL     1       6.342   5.174  18.437  0.00  0.00    +0.000 C 
ATOM     28  C   UNL     1       5.353   4.031  18.619  0.00  0.00    +0.000 C 
ENDBRANCH  19  22
ENDBRANCH   5  19
TORSDOF 5
ENDMDL
MODEL 5
REMARK VINA RESULT:      -7.8      1.191      1.271
REMARK  Name = 
REMARK  5 active torsions:
REMARK  status: ('A' for Active; 'I' for Inactive)
REMARK    1  A    between atoms: C_2  and  C_3
REMARK    2  A    between atoms: C_7  and  N_8
REMARK    3  A    between atoms: C_9  and  C_11
REMARK    4  A    between atoms: C_15  and  S_16
REMARK    5  A    between atoms: S_16  and  N_19
REMARK                            x       y       z     vdW  Elec       q    Type
REMARK                         _______ _______ _______ _____ _____    ______ ____
ROOT
ATOM      1  C   UNL     1       7.873   7.871  18.207  0.00  0.00    +0.000 A 
ATOM      2  C   UNL     1       8.432   7.004  19.163  0.00  0.00    +0.000 A 
ATOM      3  C   UNL     1       8.109   5.647  19.176  0.00  0.00    +0.000 A 
ATOM      4  C   UNL     1       7.240   5.141  18.217  0.00  0.00    +0.000 A 
ATOM      5  C   UNL     1       6.706   5.995  17.242  0.00  0.00    +0.000 A 
ATOM      6  C   UNL     1       6.986   7.370  17.250  0.00  0.00    +0.000 A 
ENDROOT
BRANCH   1   8
ATOM      7  N   UNL     1       9.268   9.661  19.162  0.00  0.00    +0.000 N 
ATOM      8  C   UNL     1       8.394   9.261  18.164  0.00  0.00    +0.000 C 
ATOM      9  O   UNL     1       8.022   9.952  17.216  0.00  0.00    +0.000 OA
ATOM     10  H   UNL     1       9.688   8.945  19.741  0.00  0.00    +0.000 HD
BRANCH   7  15
ATOM     11  C   UNL     1       9.471  13.377  18.946  0.00  0.00    +0.000 A 
ATOM     12  C   UNL     1      10.689  13.634  19.584  0.00  0.00    +0.000 A 
ATOM     13  C   UNL     1      11.447  12.577  20.073  0.00  0.00    +0.000 A 
ATOM     14  C   UNL     1      10.985  11.266  19.933  0.00  0.00    +0.000 A 
ATOM     15  C   UNL     1       9.762  10.986  19.311  0.00  0.00    +0.000 A 
ATOM     16  C   UNL     1       9.013  12.054  18.801  0.00  0.00    +0.000 A 
BRANCH  11  18
ATOM     17  N   UNL     1       8.059  15.355  18.036  0.00  0.00    +0.000 NA
ATOM     18  C   UNL     1       8.692  14.474  18.449  0.00  0.00    +0.000 C 
ENDBRANCH  11  18
ENDBRANCH   7  15
ENDBRANCH   1   8
BRANCH   5  19
ATOM     19  S   UNL     1       5.660   5.310  15.966  0.00  0.00    +0.000 S 
ATOM     20  O   UNL     1       5.302   6.390  15.070  0.00  0.00    +0.000 OA
ATOM     21  O   UNL     1       6.324   4.118  15.478  0.00  0.00    +0.000 OA
BRANCH  19  22
ATOM     22  N   UNL     1       4.258   4.848  16.841  0.00  0.00    +0.000 NA
ATOM     23  C   UNL     1       4.202   3.443  17.301  0.00  0.00    +0.000 C 
ATOM     24  C   UNL     1       2.793   2.866  17.190  0.00  0.00    +0.000 C 
ATOM     25  C   UNL     1       1.886   3.197  18.369  0.00  0.00    +0.000 C 
ATOM     26  C   UNL     1       1.611   4.685  18.535  0.00  0.00    +0.000 C 
ATOM     27  C   UNL     1       2.864   5.469  18.899  0.00  0.00    +0.000 C 
ATOM     28  C   UNL     1       3.677   5.918  17.693  0.00  0.00    +0.000 C 
ENDBRANCH  19  22
ENDBRANCH   5  19
TORSDOF 5
ENDMDL
MODEL 6
REMARK VINA RESULT:      -7.8      6.036      9.175
REMARK  Name = 
REMARK  5 active torsions:
REMARK  status: ('A' for Active; 'I' for Inactive)
REMARK    1  A    between atoms: C_2  and  C_3
REMARK    2  A    between atoms: C_7  and  N_8
REMARK    3  A    between atoms: C_9  and  C_11
REMARK    4  A    between atoms: C_15  and  S_16
REMARK    5  A    between atoms: S_16  and  N_19
REMARK                            x       y       z     vdW  Elec       q    Type
REMARK                         _______ _______ _______ _____ _____    ______ ____
ROOT
ATOM      1  C   UNL     1       1.163   8.534  20.604  0.00  0.00    +0.000 A 
ATOM      2  C   UNL     1       0.495   8.393  21.833  0.00  0.00    +0.000 A 
ATOM      3  C   UNL     1      -0.309   9.417  22.334  0.00  0.00    +0.000 A 
ATOM      4  C   UNL     1      -0.470  10.584  21.597  0.00  0.00    +0.000 A 
ATOM      5  C   UNL     1       0.167  10.715  20.356  0.00  0.00    +0.000 A 
ATOM      6  C   UNL     1       1.017   9.712  19.866  0.00  0.00    +0.000 A 
ENDROOT
BRANCH   1   8
ATOM      7  N   UNL     1       2.457   7.432  18.822  0.00  0.00    +0.000 N 
ATOM      8  C   UNL     1       1.864   7.338  20.071  0.00  0.00    +0.000 C 
ATOM      9  O   UNL     1       1.885   6.350  20.803  0.00  0.00    +0.000 OA
ATOM     10  H   UNL     1       2.585   8.354  18.424  0.00  0.00    +0.000 HD
BRANCH   7  15
ATOM     11  C   UNL     1       4.964   5.452  16.901  0.00  0.00    +0.000 A 
ATOM     12  C   UNL     1       4.325   4.214  16.787  0.00  0.00    +0.000 A 
ATOM     13  C   UNL     1       3.059   4.040  17.335  0.00  0.00    +0.000 A 
ATOM     14  C   UNL     1       2.439   5.098  18.002  0.00  0.00    +0.000 A 
ATOM     15  C   UNL     1       3.067   6.342  18.141  0.00  0.00    +0.000 A 
ATOM     16  C   UNL     1       4.332   6.518  17.568  0.00  0.00    +0.000 A 
BRANCH  11  18
ATOM     17  N   UNL     1       7.336   5.753  15.892  0.00  0.00    +0.000 NA
ATOM     18  C   UNL     1       6.272   5.622  16.338  0.00  0.00    +0.000 C 
ENDBRANCH  11  18
ENDBRANCH   7  15
ENDBRANCH   1   8
BRANCH   5  19
ATOM     19  S   UNL     1      -0.120  12.187  19.383  0.00  0.00    +0.000 S 
ATOM     20  O   UNL     1      -0.442  13.259  20.300  0.00  0.00    +0.000 OA
ATOM     21  O   UNL     1       0.989  12.296  18.457  0.00  0.00    +0.000 OA
BRANCH  19  22
ATOM     22  N   UNL     1      -1.539  11.782  18.507  0.00  0.00    +0.000 NA
ATOM     23  C   UNL     1      -1.557  10.452  17.858  0.00  0.00    +0.000 C 
ATOM     24  C   UNL     1      -2.236  10.496  16.492  0.00  0.00    +0.000 C 
ATOM     25  C   UNL     1      -3.756  10.394  16.545  0.00  0.00    +0.000 C 
ATOM     26  C   UNL     1      -4.426  11.550  17.275  0.00  0.00    +0.000 C 
ATOM     27  C   UNL     1      -4.081  11.578  18.757  0.00  0.00    +0.000 C 
ATOM     28  C   UNL     1      -2.798  12.333  19.073  0.00  0.00    +0.000 C 
ENDBRANCH  19  22
ENDBRANCH   5  19
TORSDOF 5
ENDMDL
MODEL 7
REMARK VINA RESULT:      -7.8      5.118      6.712
REMARK  Name = 
REMARK  5 active torsions:
REMARK  status: ('A' for Active; 'I' for Inactive)
REMARK    1  A    between atoms: C_2  and  C_3
REMARK    2  A    between atoms: C_7  and  N_8
REMARK    3  A    between atoms: C_9  and  C_11
REMARK    4  A    between atoms: C_15  and  S_16
REMARK    5  A    between atoms: S_16  and  N_19
REMARK                            x       y       z     vdW  Elec       q    Type
REMARK                         _______ _______ _______ _____ _____    ______ ____
ROOT
ATOM      1  C   UNL     1       3.308   6.352  17.956  0.00  0.00    +0.000 A 
ATOM      2  C   UNL     1       2.746   5.084  18.191  0.00  0.00    +0.000 A 
ATOM      3  C   UNL     1       3.438   3.920  17.856  0.00  0.00    +0.000 A 
ATOM      4  C   UNL     1       4.710   4.015  17.303  0.00  0.00    +0.000 A 
ATOM      5  C   UNL     1       5.287   5.275  17.098  0.00  0.00    +0.000 A 
ATOM      6  C   UNL     1       4.580   6.452  17.386  0.00  0.00    +0.000 A 
ENDROOT
BRANCH   1   8
ATOM      7  N   UNL     1       2.276   8.562  17.616  0.00  0.00    +0.000 N 
ATOM      8  C   UNL     1       2.575   7.528  18.490  0.00  0.00    +0.000 C 
ATOM      9  O   UNL     1       2.264   7.481  19.680  0.00  0.00    +0.000 OA
ATOM     10  H   UNL     1       2.363   8.385  16.624  0.00  0.00    +0.000 HD
BRANCH   7  15
ATOM     11  C   UNL     1       1.886  12.187  18.395  0.00  0.00    +0.000 A 
ATOM     12  C   UNL     1       0.539  12.256  18.764  0.00  0.00    +0.000 A 
ATOM     13  C   UNL     1      -0.234  11.102  18.767  0.00  0.00    +0.000 A 
ATOM     14  C   UNL     1       0.334   9.882  18.394  0.00  0.00    +0.000 A 
ATOM     15  C   UNL     1       1.677   9.791  18.006  0.00  0.00    +0.000 A 
ATOM     16  C   UNL     1       2.457  10.954  18.026  0.00  0.00    +0.000 A 
BRANCH  11  18
ATOM     17  N   UNL     1       3.306  14.359  18.390  0.00  0.00    +0.000 NA
ATOM     18  C   UNL     1       2.676  13.384  18.388  0.00  0.00    +0.000 C 
ENDBRANCH  11  18
ENDBRANCH   7  15
ENDBRANCH   1   8
BRANCH   5  19
ATOM     19  S   UNL     1       6.956   5.374  16.467  0.00  0.00    +0.000 S 
ATOM     20  O   UNL     1       7.306   6.777  16.382  0.00  0.00    +0.000 OA
ATOM     21  O   UNL     1       7.751   4.447  17.247  0.00  0.00    +0.000 OA
BRANCH  19  22
ATOM     22  N   UNL     1       6.788   4.762  14.873  0.00  0.00    +0.000 NA
ATOM     23  C   UNL     1       5.408   4.646  14.353  0.00  0.00    +0.000 C 
ATOM     24  C   UNL     1       5.222   3.386  13.513  0.00  0.00    +0.000 C 
ATOM     25  C   UNL     1       5.664   3.530  12.061  0.00  0.00    +0.000 C 
ATOM     26  C   UNL     1       7.151   3.811  11.895  0.00  0.00    +0.000 C 
ATOM     27  C   UNL     1       7.552   5.167  12.461  0.00  0.00    +0.000 C 
ATOM     28  C   UNL     1       7.888   5.135  13.945  0.00  0.00    +0.000 C 
ENDBRANCH  19  22
ENDBRANCH   5  19
TORSDOF 5
ENDMDL
MODEL 8
REMARK VINA RESULT:      -7.8      1.266      2.185
REMARK  Name = 
REMARK  5 active torsions:
REMARK  status: ('A' for Active; 'I' for Inactive)
REMARK    1  A    between atoms: C_2  and  C_3
REMARK    2  A    between atoms: C_7  and  N_8
REMARK    3  A    between atoms: C_9  and  C_11
REMARK    4  A    between atoms: C_15  and  S_16
REMARK    5  A    between atoms: S_16  and  N_19
REMARK                            x       y       z     vdW  Elec       q    Type
REMARK                         _______ _______ _______ _____ _____    ______ ____
ROOT
ATOM      1  C   UNL     1       7.957   7.970  18.360  0.00  0.00    +0.000 A 
ATOM      2  C   UNL     1       8.562   7.041  19.225  0.00  0.00    +0.000 A 
ATOM      3  C   UNL     1       8.192   5.696  19.204  0.00  0.00    +0.000 A 
ATOM      4  C   UNL     1       7.228   5.264  18.301  0.00  0.00    +0.000 A 
ATOM      5  C   UNL     1       6.647   6.181  17.414  0.00  0.00    +0.000 A 
ATOM      6  C   UNL     1       6.976   7.544  17.461  0.00  0.00    +0.000 A 
ENDROOT
BRANCH   1   8
ATOM      7  N   UNL     1       9.432   9.691  19.322  0.00  0.00    +0.000 N 
ATOM      8  C   UNL     1       8.523   9.343  18.337  0.00  0.00    +0.000 C 
ATOM      9  O   UNL     1       8.152  10.068  17.413  0.00  0.00    +0.000 OA
ATOM     10  H   UNL     1       9.842   8.948  19.875  0.00  0.00    +0.000 HD
BRANCH   7  15
ATOM     11  C   UNL     1      10.046  13.083  20.743  0.00  0.00    +0.000 A 
ATOM     12  C   UNL     1      11.014  13.587  19.869  0.00  0.00    +0.000 A 
ATOM     13  C   UNL     1      11.453  12.809  18.805  0.00  0.00    +0.000 A 
ATOM     14  C   UNL     1      10.932  11.527  18.618  0.00  0.00    +0.000 A 
ATOM     15  C   UNL     1       9.972  10.996  19.489  0.00  0.00    +0.000 A 
ATOM     16  C   UNL     1       9.518  11.793  20.547  0.00  0.00    +0.000 A 
BRANCH  11  18
ATOM     17  N   UNL     1       9.237  14.551  22.724  0.00  0.00    +0.000 NA
ATOM     18  C   UNL     1       9.602  13.889  21.842  0.00  0.00    +0.000 C 
ENDBRANCH  11  18
ENDBRANCH   7  15
ENDBRANCH   1   8
BRANCH   5  19
ATOM     19  S   UNL     1       5.474   5.593  16.202  0.00  0.00    +0.000 S 
ATOM     20  O   UNL     1       4.978   6.746  15.480  0.00  0.00    +0.000 OA
ATOM     21  O   UNL     1       6.108   4.488  15.511  0.00  0.00    +0.000 OA
BRANCH  19  22
ATOM     22  N   UNL     1       4.203   4.981  17.180  0.00  0.00    +0.000 NA
ATOM     23  C   UNL     1       3.218   5.969  17.674  0.00  0.00    +0.000 C 
ATOM     24  C   UNL     1       2.778   5.663  19.103  0.00  0.00    +0.000 C 
ATOM     25  C   UNL     1       1.663   4.629  19.208  0.00  0.00    +0.000 C 
ATOM     26  C   UNL     1       2.050   3.251  18.690  0.00  0.00    +0.000 C 
ATOM     27  C   UNL     1       2.315   3.249  17.190  0.00  0.00    +0.000 C 
ATOM     28  C   UNL     1       3.746   3.613  16.821  0.00  0.00    +0.000 C 
ENDBRANCH  19  22
ENDBRANCH   5  19
TORSDOF 5
ENDMDL
MODEL 9
REMARK VINA RESULT:      -7.8      6.184      9.236
REMARK  Name = 
REMARK  5 active torsions:
REMARK  status: ('A' for Active; 'I' for Inactive)
REMARK    1  A    between atoms: C_2  and  C_3
REMARK    2  A    between atoms: C_7  and  N_8
REMARK    3  A    between atoms: C_9  and  C_11
REMARK    4  A    between atoms: C_15  and  S_16
REMARK    5  A    between atoms: S_16  and  N_19
REMARK                            x       y       z     vdW  Elec       q    Type
REMARK                         _______ _______ _______ _____ _____    ______ ____
ROOT
ATOM      1  C   UNL     1       1.413   9.075  19.317  0.00  0.00    +0.000 A 
ATOM      2  C   UNL     1       1.071   8.570  20.585  0.00  0.00    +0.000 A 
ATOM      3  C   UNL     1       0.280   9.312  21.463  0.00  0.00    +0.000 A 
ATOM      4  C   UNL     1      -0.195  10.557  21.070  0.00  0.00    +0.000 A 
ATOM      5  C   UNL     1       0.115  11.050  19.795  0.00  0.00    +0.000 A 
ATOM      6  C   UNL     1       0.950  10.333  18.924  0.00  0.00    +0.000 A 
ENDROOT
BRANCH   1   8
ATOM      7  N   UNL     1       2.365   6.861  18.815  0.00  0.00    +0.000 N 
ATOM      8  C   UNL     1       2.119   8.156  18.389  0.00  0.00    +0.000 C 
ATOM      9  O   UNL     1       2.412   8.617  17.286  0.00  0.00    +0.000 OA
ATOM     10  H   UNL     1       1.869   6.526  19.632  0.00  0.00    +0.000 HD
BRANCH   7  15
ATOM     11  C   UNL     1       5.154   5.342  16.862  0.00  0.00    +0.000 A 
ATOM     12  C   UNL     1       4.667   4.052  16.624  0.00  0.00    +0.000 A 
ATOM     13  C   UNL     1       3.413   3.692  17.100  0.00  0.00    +0.000 A 
ATOM     14  C   UNL     1       2.649   4.614  17.819  0.00  0.00    +0.000 A 
ATOM     15  C   UNL     1       3.122   5.906  18.081  0.00  0.00    +0.000 A 
ATOM     16  C   UNL     1       4.378   6.271  17.580  0.00  0.00    +0.000 A 
BRANCH  11  18
ATOM     17  N   UNL     1       7.506   6.003  15.988  0.00  0.00    +0.000 NA
ATOM     18  C   UNL     1       6.452   5.704  16.372  0.00  0.00    +0.000 C 
ENDBRANCH  11  18
ENDBRANCH   7  15
ENDBRANCH   1   8
BRANCH   5  19
ATOM     19  S   UNL     1      -0.576  12.613  19.276  0.00  0.00    +0.000 S 
ATOM     20  O   UNL     1      -0.992  13.323  20.467  0.00  0.00    +0.000 OA
ATOM     21  O   UNL     1       0.368  13.196  18.344  0.00  0.00    +0.000 OA
BRANCH  19  22
ATOM     22  N   UNL     1      -1.982  12.132  18.417  0.00  0.00    +0.000 NA
ATOM     23  C   UNL     1      -1.851  10.935  17.557  0.00  0.00    +0.000 C 
ATOM     24  C   UNL     1      -2.631  11.085  16.254  0.00  0.00    +0.000 C 
ATOM     25  C   UNL     1      -4.110  10.736  16.365  0.00  0.00    +0.000 C 
ATOM     26  C   UNL     1      -4.887  11.642  17.310  0.00  0.00    +0.000 C 
ATOM     27  C   UNL     1      -4.439  11.491  18.757  0.00  0.00    +0.000 C 
ATOM     28  C   UNL     1      -3.262  12.381  19.130  0.00  0.00    +0.000 C 
ENDBRANCH  19  22
ENDBRANCH   5  19
TORSDOF 5
ENDMDL
