MODEL 1
REMARK VINA RESULT:      -6.3      0.000      0.000
REMARK  Name = 
REMARK  12 active torsions:
REMARK  status: ('A' for Active; 'I' for Inactive)
REMARK    1  A    between atoms: C_1  and  C_2
REMARK    2  A    between atoms: C_2  and  C_3
REMARK    3  A    between atoms: C_2  and  C_4
REMARK    4  A    between atoms: C_4  and  O_6
REMARK    5  A    between atoms: O_6  and  C_7
REMARK    6  A    between atoms: C_7  and  C_8
REMARK    7  A    between atoms: C_8  and  C_10
REMARK    8  A    between atoms: C_10  and  O_11
REMARK    9  A    between atoms: C_12  and  C_13
REMARK   10  A    between atoms: C_25  and  C_26
REMARK   11  A    between atoms: C_29  and  O_30
REMARK   12  A    between atoms: C_32  and  C_33
REMARK                            x       y       z     vdW  Elec       q    Type
REMARK                         _______ _______ _______ _____ _____    ______ ____
ROOT
ATOM      1  C   UNL     1      -2.561  14.928  22.526  0.00  0.00    +0.000 C 
ATOM      2  C   UNL     1      -2.160  14.640  23.972  0.00  0.00    +0.000 C 
ATOM      3  C   UNL     1      -3.062  15.195  25.049  0.00  0.00    +0.000 C 
ATOM      4  C   UNL     1      -1.779  13.141  23.887  0.00  0.00    +0.000 C 
ATOM      5  C   UNL     1      -0.982  13.050  22.530  0.00  0.00    +0.000 C 
ATOM      6  C   UNL     1      -1.075  11.823  21.575  0.00  0.00    +0.000 C 
ATOM      7  C   UNL     1      -0.603  10.568  22.316  0.00  0.00    +0.000 C 
ATOM      8  C   UNL     1      -0.426   9.454  21.318  0.00  0.00    +0.000 C 
ATOM      9  C   UNL     1       0.695   9.793  20.359  0.00  0.00    +0.000 C 
ATOM     10  C   UNL     1       1.602   8.847  20.063  0.00  0.00    +0.000 C 
ATOM     11  C   UNL     1       1.837   8.715  18.602  0.00  0.00    +0.000 C 
ATOM     12  O   UNL     1       2.873   8.266  18.142  0.00  0.00    +0.000 OA
ATOM     13  C   UNL     1       0.637   9.112  17.750  0.00  0.00    +0.000 C 
ATOM     14  C   UNL     1      -0.134  10.165  18.181  0.00  0.00    +0.000 C 
ATOM     15  C   UNL     1       0.403  10.948  19.389  0.00  0.00    +0.000 C 
ATOM     16  C   UNL     1       1.609  11.688  18.650  0.00  0.00    +0.000 C 
ATOM     17  C   UNL     1      -0.207  12.134  20.297  0.00  0.00    +0.000 C 
ATOM     18  F   UNL     1       0.942  12.705  20.867  0.00  0.00    +0.000 F 
ATOM     19  C   UNL     1      -0.845  13.271  19.477  0.00  0.00    +0.000 C 
ATOM     20  C   UNL     1      -1.471  14.407  20.287  0.00  0.00    +0.000 C 
ATOM     21  C   UNL     1      -1.251  14.409  21.806  0.00  0.00    +0.000 C 
ATOM     22  C   UNL     1       0.039  15.282  22.066  0.00  0.00    +0.000 C 
ENDROOT
BRANCH   1  23
ATOM     23  C   UNL     1      -3.908  14.126  22.107  0.00  0.00    +0.000 C 
ATOM     24  O   UNL     1      -4.482  13.351  22.877  0.00  0.00    +0.000 OA
BRANCH  23  25
ATOM     25  C   UNL     1      -4.512  14.406  20.704  0.00  0.00    +0.000 C 
BRANCH  25  26
ATOM     26  O   UNL     1      -5.730  13.770  20.257  0.00  0.00    +0.000 OA
BRANCH  26  27
ATOM     27  C   UNL     1      -5.616  12.576  19.591  0.00  0.00    +0.000 C 
ATOM     28  O   UNL     1      -4.636  12.265  18.925  0.00  0.00    +0.000 OA
BRANCH  27  30
ATOM     29  C   UNL     1      -6.874  10.502  18.760  0.00  0.00    +0.000 C 
ATOM     30  C   UNL     1      -6.946  11.791  19.591  0.00  0.00    +0.000 C 
ATOM     31  C   UNL     1      -7.484  11.457  20.978  0.00  0.00    +0.000 C 
ENDBRANCH  27  30
ENDBRANCH  26  27
ENDBRANCH  25  26
ENDBRANCH  23  25
ENDBRANCH   1  23
BRANCH   1  32
ATOM     32  O   UNL     1      -2.776  16.312  22.284  0.00  0.00    +0.000 OA
ATOM     33  H   UNL     1      -3.033  16.431  21.353  0.00  0.00    +0.000 HD
ENDBRANCH   1  32
BRANCH  19  34
ATOM     34  O   UNL     1      -1.822  12.760  18.571  0.00  0.00    +0.000 OA
ATOM     35  H   UNL     1      -2.591  12.460  19.090  0.00  0.00    +0.000 HD
ENDBRANCH  19  34
TORSDOF 7
ENDMDL
MODEL 2
REMARK VINA RESULT:      -6.3      4.635     10.880
REMARK  Name = 
REMARK  12 active torsions:
REMARK  status: ('A' for Active; 'I' for Inactive)
REMARK    1  A    between atoms: C_1  and  C_2
REMARK    2  A    between atoms: C_2  and  C_3
REMARK    3  A    between atoms: C_2  and  C_4
REMARK    4  A    between atoms: C_4  and  O_6
REMARK    5  A    between atoms: O_6  and  C_7
REMARK    6  A    between atoms: C_7  and  C_8
REMARK    7  A    between atoms: C_8  and  C_10
REMARK    8  A    between atoms: C_10  and  O_11
REMARK    9  A    between atoms: C_12  and  C_13
REMARK   10  A    between atoms: C_25  and  C_26
REMARK   11  A    between atoms: C_29  and  O_30
REMARK   12  A    between atoms: C_32  and  C_33
REMARK                            x       y       z     vdW  Elec       q    Type
REMARK                         _______ _______ _______ _____ _____    ______ ____
ROOT
ATOM      1  C   UNL     1       4.403   3.839  18.420  0.00  0.00    +0.000 C 
ATOM      2  C   UNL     1       3.707   2.989  19.482  0.00  0.00    +0.000 C 
ATOM      3  C   UNL     1       4.464   1.785  19.990  0.00  0.00    +0.000 C 
ATOM      4  C   UNL     1       3.143   4.083  20.423  0.00  0.00    +0.000 C 
ATOM      5  C   UNL     1       2.604   5.174  19.421  0.00  0.00    +0.000 C 
ATOM      6  C   UNL     1       2.699   6.703  19.703  0.00  0.00    +0.000 C 
ATOM      7  C   UNL     1       1.929   7.029  20.988  0.00  0.00    +0.000 C 
ATOM      8  C   UNL     1       1.786   8.524  21.099  0.00  0.00    +0.000 C 
ATOM      9  C   UNL     1       0.918   9.045  19.973  0.00  0.00    +0.000 C 
ATOM     10  C   UNL     1      -0.042   9.942  20.257  0.00  0.00    +0.000 C 
ATOM     11  C   UNL     1      -0.021  11.114  19.344  0.00  0.00    +0.000 C 
ATOM     12  O   UNL     1      -1.007  11.799  19.133  0.00  0.00    +0.000 OA
ATOM     13  C   UNL     1       1.359  11.420  18.772  0.00  0.00    +0.000 C 
ATOM     14  C   UNL     1       2.176  10.358  18.469  0.00  0.00    +0.000 C 
ATOM     15  C   UNL     1       1.541   8.963  18.571  0.00  0.00    +0.000 C 
ATOM     16  C   UNL     1       0.606   9.053  17.280  0.00  0.00    +0.000 C 
ATOM     17  C   UNL     1       2.133   7.467  18.447  0.00  0.00    +0.000 C 
ATOM     18  F   UNL     1       0.990   6.710  18.147  0.00  0.00    +0.000 F 
ATOM     19  C   UNL     1       3.063   7.271  17.235  0.00  0.00    +0.000 C 
ATOM     20  C   UNL     1       3.681   5.881  17.086  0.00  0.00    +0.000 C 
ATOM     21  C   UNL     1       3.188   4.774  18.027  0.00  0.00    +0.000 C 
ATOM     22  C   UNL     1       2.007   4.045  17.274  0.00  0.00    +0.000 C 
ENDROOT
BRANCH   1  23
ATOM     23  C   UNL     1       5.679   4.634  19.031  0.00  0.00    +0.000 C 
ATOM     24  O   UNL     1       5.643   5.197  20.128  0.00  0.00    +0.000 OA
BRANCH  23  25
ATOM     25  C   UNL     1       7.001   4.618  18.216  0.00  0.00    +0.000 C 
BRANCH  25  26
ATOM     26  O   UNL     1       7.018   4.359  16.795  0.00  0.00    +0.000 OA
BRANCH  26  27
ATOM     27  C   UNL     1       7.157   5.436  15.955  0.00  0.00    +0.000 C 
ATOM     28  O   UNL     1       7.474   6.555  16.339  0.00  0.00    +0.000 OA
BRANCH  27  30
ATOM     29  C   UNL     1       7.739   5.236  13.466  0.00  0.00    +0.000 C 
ATOM     30  C   UNL     1       6.641   5.123  14.534  0.00  0.00    +0.000 C 
ATOM     31  C   UNL     1       5.952   3.769  14.394  0.00  0.00    +0.000 C 
ENDBRANCH  27  30
ENDBRANCH  26  27
ENDBRANCH  25  26
ENDBRANCH  23  25
ENDBRANCH   1  23
BRANCH   1  32
ATOM     32  O   UNL     1       4.850   3.069  17.311  0.00  0.00    +0.000 OA
ATOM     33  H   UNL     1       4.631   3.546  16.492  0.00  0.00    +0.000 HD
ENDBRANCH   1  32
BRANCH  19  34
ATOM     34  O   UNL     1       4.109   8.242  17.233  0.00  0.00    +0.000 OA
ATOM     35  H   UNL     1       3.895   8.921  17.898  0.00  0.00    +0.000 HD
ENDBRANCH  19  34
TORSDOF 7
ENDMDL
MODEL 3
REMARK VINA RESULT:      -6.3      0.849      1.115
REMARK  Name = 
REMARK  12 active torsions:
REMARK  status: ('A' for Active; 'I' for Inactive)
REMARK    1  A    between atoms: C_1  and  C_2
REMARK    2  A    between atoms: C_2  and  C_3
REMARK    3  A    between atoms: C_2  and  C_4
REMARK    4  A    between atoms: C_4  and  O_6
REMARK    5  A    between atoms: O_6  and  C_7
REMARK    6  A    between atoms: C_7  and  C_8
REMARK    7  A    between atoms: C_8  and  C_10
REMARK    8  A    between atoms: C_10  and  O_11
REMARK    9  A    between atoms: C_12  and  C_13
REMARK   10  A    between atoms: C_25  and  C_26
REMARK   11  A    between atoms: C_29  and  O_30
REMARK   12  A    between atoms: C_32  and  C_33
REMARK                            x       y       z     vdW  Elec       q    Type
REMARK                         _______ _______ _______ _____ _____    ______ ____
ROOT
ATOM      1  C   UNL     1      -2.720  14.349  22.328  0.00  0.00    +0.000 C 
ATOM      2  C   UNL     1      -2.383  14.026  23.783  0.00  0.00    +0.000 C 
ATOM      3  C   UNL     1      -3.363  14.506  24.828  0.00  0.00    +0.000 C 
ATOM      4  C   UNL     1      -1.937  12.546  23.668  0.00  0.00    +0.000 C 
ATOM      5  C   UNL     1      -1.067  12.536  22.354  0.00  0.00    +0.000 C 
ATOM      6  C   UNL     1      -1.060  11.340  21.354  0.00  0.00    +0.000 C 
ATOM      7  C   UNL     1      -0.575  10.079  22.077  0.00  0.00    +0.000 C 
ATOM      8  C   UNL     1      -0.301   9.010  21.053  0.00  0.00    +0.000 C 
ATOM      9  C   UNL     1       0.854   9.427  20.167  0.00  0.00    +0.000 C 
ATOM     10  C   UNL     1       1.813   8.529  19.888  0.00  0.00    +0.000 C 
ATOM     11  C   UNL     1       2.129   8.458  18.437  0.00  0.00    +0.000 C 
ATOM     12  O   UNL     1       3.205   8.067  18.019  0.00  0.00    +0.000 OA
ATOM     13  C   UNL     1       0.959   8.838  17.537  0.00  0.00    +0.000 C 
ATOM     14  C   UNL     1       0.124   9.843  17.961  0.00  0.00    +0.000 C 
ATOM     15  C   UNL     1       0.564  10.603  19.221  0.00  0.00    +0.000 C 
ATOM     16  C   UNL     1       1.776  11.417  18.573  0.00  0.00    +0.000 C 
ATOM     17  C   UNL     1      -0.140  11.731  20.135  0.00  0.00    +0.000 C 
ATOM     18  F   UNL     1       0.953  12.326  20.784  0.00  0.00    +0.000 F 
ATOM     19  C   UNL     1      -0.782  12.870  19.321  0.00  0.00    +0.000 C 
ATOM     20  C   UNL     1      -1.495  13.951  20.134  0.00  0.00    +0.000 C 
ATOM     21  C   UNL     1      -1.354  13.908  21.661  0.00  0.00    +0.000 C 
ATOM     22  C   UNL     1      -0.117  14.821  22.019  0.00  0.00    +0.000 C 
ENDROOT
BRANCH   1  23
ATOM     23  C   UNL     1      -4.010  13.509  21.811  0.00  0.00    +0.000 C 
ATOM     24  O   UNL     1      -4.342  12.433  22.315  0.00  0.00    +0.000 OA
BRANCH  23  25
ATOM     25  C   UNL     1      -4.876  14.132  20.682  0.00  0.00    +0.000 C 
BRANCH  25  26
ATOM     26  O   UNL     1      -6.183  13.613  20.349  0.00  0.00    +0.000 OA
BRANCH  26  27
ATOM     27  C   UNL     1      -6.414  13.270  19.042  0.00  0.00    +0.000 C 
ATOM     28  O   UNL     1      -7.191  13.873  18.312  0.00  0.00    +0.000 OA
BRANCH  27  30
ATOM     29  C   UNL     1      -6.756  10.741  18.787  0.00  0.00    +0.000 C 
ATOM     30  C   UNL     1      -5.770  11.913  18.683  0.00  0.00    +0.000 C 
ATOM     31  C   UNL     1      -5.096  11.874  17.315  0.00  0.00    +0.000 C 
ENDBRANCH  27  30
ENDBRANCH  26  27
ENDBRANCH  25  26
ENDBRANCH  23  25
ENDBRANCH   1  23
BRANCH   1  32
ATOM     32  O   UNL     1      -2.980  15.731  22.121  0.00  0.00    +0.000 OA
ATOM     33  H   UNL     1      -2.283  16.098  21.550  0.00  0.00    +0.000 HD
ENDBRANCH   1  32
BRANCH  19  34
ATOM     34  O   UNL     1      -1.688  12.354  18.347  0.00  0.00    +0.000 OA
ATOM     35  H   UNL     1      -1.852  13.050  17.685  0.00  0.00    +0.000 HD
ENDBRANCH  19  34
TORSDOF 7
ENDMDL
MODEL 4
REMARK VINA RESULT:      -6.3      2.491      7.492
REMARK  Name = 
REMARK  12 active torsions:
REMARK  status: ('A' for Active; 'I' for Inactive)
REMARK    1  A    between atoms: C_1  and  C_2
REMARK    2  A    between atoms: C_2  and  C_3
REMARK    3  A    between atoms: C_2  and  C_4
REMARK    4  A    between atoms: C_4  and  O_6
REMARK    5  A    between atoms: O_6  and  C_7
REMARK    6  A    between atoms: C_7  and  C_8
REMARK    7  A    between atoms: C_8  and  C_10
REMARK    8  A    between atoms: C_10  and  O_11
REMARK    9  A    between atoms: C_12  and  C_13
REMARK   10  A    between atoms: C_25  and  C_26
REMARK   11  A    between atoms: C_29  and  O_30
REMARK   12  A    between atoms: C_32  and  C_33
REMARK                            x       y       z     vdW  Elec       q    Type
REMARK                         _______ _______ _______ _____ _____    ______ ____
ROOT
ATOM      1  C   UNL     1      -0.278  11.175  18.944  0.00  0.00    +0.000 C 
ATOM      2  C   UNL     1      -1.431  10.971  17.963  0.00  0.00    +0.000 C 
ATOM      3  C   UNL     1      -1.338   9.772  17.048  0.00  0.00    +0.000 C 
ATOM      4  C   UNL     1      -2.655  11.236  18.875  0.00  0.00    +0.000 C 
ATOM      5  C   UNL     1      -2.201  12.481  19.729  0.00  0.00    +0.000 C 
ATOM      6  C   UNL     1      -2.585  12.664  21.228  0.00  0.00    +0.000 C 
ATOM      7  C   UNL     1      -4.111  12.718  21.356  0.00  0.00    +0.000 C 
ATOM      8  C   UNL     1      -4.463  13.174  22.748  0.00  0.00    +0.000 C 
ATOM      9  C   UNL     1      -3.998  14.599  22.957  0.00  0.00    +0.000 C 
ATOM     10  C   UNL     1      -4.832  15.474  23.544  0.00  0.00    +0.000 C 
ATOM     11  C   UNL     1      -4.184  16.237  24.642  0.00  0.00    +0.000 C 
ATOM     12  O   UNL     1      -4.581  17.331  25.004  0.00  0.00    +0.000 OA
ATOM     13  C   UNL     1      -3.042  15.487  25.318  0.00  0.00    +0.000 C 
ATOM     14  C   UNL     1      -2.241  14.695  24.531  0.00  0.00    +0.000 C 
ATOM     15  C   UNL     1      -2.474  14.790  23.016  0.00  0.00    +0.000 C 
ATOM     16  C   UNL     1      -1.847  16.240  22.789  0.00  0.00    +0.000 C 
ATOM     17  C   UNL     1      -1.886  13.975  21.753  0.00  0.00    +0.000 C 
ATOM     18  F   UNL     1      -2.107  14.860  20.687  0.00  0.00    +0.000 F 
ATOM     19  C   UNL     1      -0.358  13.788  21.798  0.00  0.00    +0.000 C 
ATOM     20  C   UNL     1       0.251  12.991  20.644  0.00  0.00    +0.000 C 
ATOM     21  C   UNL     1      -0.665  12.616  19.472  0.00  0.00    +0.000 C 
ATOM     22  C   UNL     1      -0.521  13.773  18.408  0.00  0.00    +0.000 C 
ENDROOT
BRANCH   1  23
ATOM     23  C   UNL     1      -0.262  10.031  20.095  0.00  0.00    +0.000 C 
ATOM     24  O   UNL     1      -1.296   9.532  20.546  0.00  0.00    +0.000 OA
BRANCH  23  25
ATOM     25  C   UNL     1       1.119   9.517  20.587  0.00  0.00    +0.000 C 
BRANCH  25  26
ATOM     26  O   UNL     1       1.490   8.123  20.499  0.00  0.00    +0.000 OA
BRANCH  26  27
ATOM     27  C   UNL     1       2.107   7.702  19.349  0.00  0.00    +0.000 C 
ATOM     28  O   UNL     1       2.134   8.361  18.316  0.00  0.00    +0.000 OA
BRANCH  27  30
ATOM     29  C   UNL     1       1.802   5.452  20.541  0.00  0.00    +0.000 C 
ATOM     30  C   UNL     1       2.547   6.224  19.443  0.00  0.00    +0.000 C 
ATOM     31  C   UNL     1       2.442   5.449  18.133  0.00  0.00    +0.000 C 
ENDBRANCH  27  30
ENDBRANCH  26  27
ENDBRANCH  25  26
ENDBRANCH  23  25
ENDBRANCH   1  23
BRANCH   1  32
ATOM     32  O   UNL     1       0.991  11.177  18.303  0.00  0.00    +0.000 OA
ATOM     33  H   UNL     1       1.685  11.215  18.984  0.00  0.00    +0.000 HD
ENDBRANCH   1  32
BRANCH  19  34
ATOM     34  O   UNL     1       0.047  13.194  23.031  0.00  0.00    +0.000 OA
ATOM     35  H   UNL     1      -0.498  12.399  23.180  0.00  0.00    +0.000 HD
ENDBRANCH  19  34
TORSDOF 7
ENDMDL
MODEL 5
REMARK VINA RESULT:      -6.2      7.970      9.785
REMARK  Name = 
REMARK  12 active torsions:
REMARK  status: ('A' for Active; 'I' for Inactive)
REMARK    1  A    between atoms: C_1  and  C_2
REMARK    2  A    between atoms: C_2  and  C_3
REMARK    3  A    between atoms: C_2  and  C_4
REMARK    4  A    between atoms: C_4  and  O_6
REMARK    5  A    between atoms: O_6  and  C_7
REMARK    6  A    between atoms: C_7  and  C_8
REMARK    7  A    between atoms: C_8  and  C_10
REMARK    8  A    between atoms: C_10  and  O_11
REMARK    9  A    between atoms: C_12  and  C_13
REMARK   10  A    between atoms: C_25  and  C_26
REMARK   11  A    between atoms: C_29  and  O_30
REMARK   12  A    between atoms: C_32  and  C_33
REMARK                            x       y       z     vdW  Elec       q    Type
REMARK                         _______ _______ _______ _____ _____    ______ ____
ROOT
ATOM      1  C   UNL     1       6.918  14.703  24.977  0.00  0.00    +0.000 C 
ATOM      2  C   UNL     1       7.549  13.716  25.959  0.00  0.00    +0.000 C 
ATOM      3  C   UNL     1       6.772  13.426  27.221  0.00  0.00    +0.000 C 
ATOM      4  C   UNL     1       8.034  12.602  24.997  0.00  0.00    +0.000 C 
ATOM      5  C   UNL     1       8.629  13.412  23.783  0.00  0.00    +0.000 C 
ATOM      6  C   UNL     1       8.497  12.938  22.304  0.00  0.00    +0.000 C 
ATOM      7  C   UNL     1       9.174  11.571  22.149  0.00  0.00    +0.000 C 
ATOM      8  C   UNL     1       9.292  11.254  20.682  0.00  0.00    +0.000 C 
ATOM      9  C   UNL     1      10.230  12.238  20.015  0.00  0.00    +0.000 C 
ATOM     10  C   UNL     1      11.158  11.773  19.162  0.00  0.00    +0.000 C 
ATOM     11  C   UNL     1      11.186  12.523  17.880  0.00  0.00    +0.000 C 
ATOM     12  O   UNL     1      12.177  12.572  17.171  0.00  0.00    +0.000 OA
ATOM     13  C   UNL     1       9.846  13.144  17.503  0.00  0.00    +0.000 C 
ATOM     14  C   UNL     1       9.063  13.640  18.517  0.00  0.00    +0.000 C 
ATOM     15  C   UNL     1       9.705  13.679  19.912  0.00  0.00    +0.000 C 
ATOM     16  C   UNL     1      10.726  14.878  19.650  0.00  0.00    +0.000 C 
ATOM     17  C   UNL     1       9.140  14.040  21.380  0.00  0.00    +0.000 C 
ATOM     18  F   UNL     1      10.310  14.357  22.089  0.00  0.00    +0.000 F 
ATOM     19  C   UNL     1       8.298  15.329  21.416  0.00  0.00    +0.000 C 
ATOM     20  C   UNL     1       7.707  15.703  22.775  0.00  0.00    +0.000 C 
ATOM     21  C   UNL     1       8.147  14.884  23.996  0.00  0.00    +0.000 C 
ATOM     22  C   UNL     1       9.385  15.642  24.617  0.00  0.00    +0.000 C 
ENDROOT
BRANCH   1  23
ATOM     23  C   UNL     1       5.594  14.082  24.273  0.00  0.00    +0.000 C 
ATOM     24  O   UNL     1       5.184  12.947  24.523  0.00  0.00    +0.000 OA
BRANCH  23  25
ATOM     25  C   UNL     1       4.797  14.993  23.298  0.00  0.00    +0.000 C 
BRANCH  25  26
ATOM     26  O   UNL     1       3.596  14.537  22.638  0.00  0.00    +0.000 OA
BRANCH  26  27
ATOM     27  C   UNL     1       3.670  14.281  21.292  0.00  0.00    +0.000 C 
ATOM     28  O   UNL     1       4.541  14.740  20.564  0.00  0.00    +0.000 OA
BRANCH  27  30
ATOM     29  C   UNL     1       1.110  14.142  21.348  0.00  0.00    +0.000 C 
ATOM     30  C   UNL     1       2.409  13.553  20.778  0.00  0.00    +0.000 C 
ATOM     31  C   UNL     1       2.295  13.482  19.258  0.00  0.00    +0.000 C 
ENDBRANCH  27  30
ENDBRANCH  26  27
ENDBRANCH  25  26
ENDBRANCH  23  25
ENDBRANCH   1  23
BRANCH   1  32
ATOM     32  O   UNL     1       6.557  15.932  25.594  0.00  0.00    +0.000 OA
ATOM     33  H   UNL     1       7.367  16.384  25.887  0.00  0.00    +0.000 HD
ENDBRANCH   1  32
BRANCH  19  34
ATOM     34  O   UNL     1       7.244  15.276  20.455  0.00  0.00    +0.000 OA
ATOM     35  H   UNL     1       6.398  15.400  20.924  0.00  0.00    +0.000 HD
ENDBRANCH  19  34
TORSDOF 7
ENDMDL
MODEL 6
REMARK VINA RESULT:      -6.2      3.763      6.518
REMARK  Name = 
REMARK  12 active torsions:
REMARK  status: ('A' for Active; 'I' for Inactive)
REMARK    1  A    between atoms: C_1  and  C_2
REMARK    2  A    between atoms: C_2  and  C_3
REMARK    3  A    between atoms: C_2  and  C_4
REMARK    4  A    between atoms: C_4  and  O_6
REMARK    5  A    between atoms: O_6  and  C_7
REMARK    6  A    between atoms: C_7  and  C_8
REMARK    7  A    between atoms: C_8  and  C_10
REMARK    8  A    between atoms: C_10  and  O_11
REMARK    9  A    between atoms: C_12  and  C_13
REMARK   10  A    between atoms: C_25  and  C_26
REMARK   11  A    between atoms: C_29  and  O_30
REMARK   12  A    between atoms: C_32  and  C_33
REMARK                            x       y       z     vdW  Elec       q    Type
REMARK                         _______ _______ _______ _____ _____    ______ ____
ROOT
ATOM      1  C   UNL     1      -0.902  12.447  20.516  0.00  0.00    +0.000 C 
ATOM      2  C   UNL     1      -1.359  13.198  21.766  0.00  0.00    +0.000 C 
ATOM      3  C   UNL     1      -2.344  12.485  22.663  0.00  0.00    +0.000 C 
ATOM      4  C   UNL     1      -0.015  13.770  22.284  0.00  0.00    +0.000 C 
ATOM      5  C   UNL     1       0.701  14.250  20.965  0.00  0.00    +0.000 C 
ATOM      6  C   UNL     1       2.239  14.132  20.746  0.00  0.00    +0.000 C 
ATOM      7  C   UNL     1       2.967  14.939  21.826  0.00  0.00    +0.000 C 
ATOM      8  C   UNL     1       4.420  15.053  21.447  0.00  0.00    +0.000 C 
ATOM      9  C   UNL     1       4.561  15.870  20.181  0.00  0.00    +0.000 C 
ATOM     10  C   UNL     1       5.509  16.820  20.124  0.00  0.00    +0.000 C 
ATOM     11  C   UNL     1       6.326  16.741  18.885  0.00  0.00    +0.000 C 
ATOM     12  O   UNL     1       6.917  17.704  18.426  0.00  0.00    +0.000 OA
ATOM     13  C   UNL     1       6.420  15.336  18.300  0.00  0.00    +0.000 C 
ATOM     14  C   UNL     1       5.309  14.532  18.386  0.00  0.00    +0.000 C 
ATOM     15  C   UNL     1       4.027  15.201  18.905  0.00  0.00    +0.000 C 
ATOM     16  C   UNL     1       3.707  16.088  17.617  0.00  0.00    +0.000 C 
ATOM     17  C   UNL     1       2.564  14.638  19.290  0.00  0.00    +0.000 C 
ATOM     18  F   UNL     1       1.762  15.786  19.203  0.00  0.00    +0.000 F 
ATOM     19  C   UNL     1       1.981  13.671  18.242  0.00  0.00    +0.000 C 
ATOM     20  C   UNL     1       0.611  13.078  18.571  0.00  0.00    +0.000 C 
ATOM     21  C   UNL     1      -0.131  13.627  19.797  0.00  0.00    +0.000 C 
ATOM     22  C   UNL     1      -1.051  14.797  19.271  0.00  0.00    +0.000 C 
ENDROOT
BRANCH   1  23
ATOM     23  C   UNL     1       0.036  11.176  20.891  0.00  0.00    +0.000 C 
ATOM     24  O   UNL     1       0.687  11.121  21.937  0.00  0.00    +0.000 OA
BRANCH  23  25
ATOM     25  C   UNL     1       0.048   9.971  19.911  0.00  0.00    +0.000 C 
BRANCH  25  26
ATOM     26  O   UNL     1       1.260   9.247  19.607  0.00  0.00    +0.000 OA
BRANCH  26  27
ATOM     27  C   UNL     1       1.484   8.072  20.279  0.00  0.00    +0.000 C 
ATOM     28  O   UNL     1       1.085   7.858  21.417  0.00  0.00    +0.000 OA
BRANCH  27  30
ATOM     29  C   UNL     1       2.283   5.675  19.841  0.00  0.00    +0.000 C 
ATOM     30  C   UNL     1       2.484   7.165  19.529  0.00  0.00    +0.000 C 
ATOM     31  C   UNL     1       2.499   7.356  18.015  0.00  0.00    +0.000 C 
ENDBRANCH  27  30
ENDBRANCH  26  27
ENDBRANCH  25  26
ENDBRANCH  23  25
ENDBRANCH   1  23
BRANCH   1  32
ATOM     32  O   UNL     1      -1.990  11.979  19.731  0.00  0.00    +0.000 OA
ATOM     33  H   UNL     1      -2.217  12.659  19.074  0.00  0.00    +0.000 HD
ENDBRANCH   1  32
BRANCH  19  34
ATOM     34  O   UNL     1       2.891  12.604  17.971  0.00  0.00    +0.000 OA
ATOM     35  H   UNL     1       3.764  12.851  18.327  0.00  0.00    +0.000 HD
ENDBRANCH  19  34
TORSDOF 7
ENDMDL
MODEL 7
REMARK VINA RESULT:      -6.2      2.161      4.257
REMARK  Name = 
REMARK  12 active torsions:
REMARK  status: ('A' for Active; 'I' for Inactive)
REMARK    1  A    between atoms: C_1  and  C_2
REMARK    2  A    between atoms: C_2  and  C_3
REMARK    3  A    between atoms: C_2  and  C_4
REMARK    4  A    between atoms: C_4  and  O_6
REMARK    5  A    between atoms: O_6  and  C_7
REMARK    6  A    between atoms: C_7  and  C_8
REMARK    7  A    between atoms: C_8  and  C_10
REMARK    8  A    between atoms: C_10  and  O_11
REMARK    9  A    between atoms: C_12  and  C_13
REMARK   10  A    between atoms: C_25  and  C_26
REMARK   11  A    between atoms: C_29  and  O_30
REMARK   12  A    between atoms: C_32  and  C_33
REMARK                            x       y       z     vdW  Elec       q    Type
REMARK                         _______ _______ _______ _____ _____    ______ ____
ROOT
ATOM      1  C   UNL     1      -4.081  14.589  23.286  0.00  0.00    +0.000 C 
ATOM      2  C   UNL     1      -5.413  13.956  22.887  0.00  0.00    +0.000 C 
ATOM      3  C   UNL     1      -6.660  14.760  23.174  0.00  0.00    +0.000 C 
ATOM      4  C   UNL     1      -5.075  13.406  21.478  0.00  0.00    +0.000 C 
ATOM      5  C   UNL     1      -3.631  12.803  21.665  0.00  0.00    +0.000 C 
ATOM      6  C   UNL     1      -2.534  12.876  20.562  0.00  0.00    +0.000 C 
ATOM      7  C   UNL     1      -3.031  12.150  19.306  0.00  0.00    +0.000 C 
ATOM      8  C   UNL     1      -1.874  11.979  18.358  0.00  0.00    +0.000 C 
ATOM      9  C   UNL     1      -0.840  11.055  18.966  0.00  0.00    +0.000 C 
ATOM     10  C   UNL     1      -0.306  10.087  18.202  0.00  0.00    +0.000 C 
ATOM     11  C   UNL     1       1.177  10.046  18.281  0.00  0.00    +0.000 C 
ATOM     12  O   UNL     1       1.819   9.037  18.042  0.00  0.00    +0.000 OA
ATOM     13  C   UNL     1       1.811  11.395  18.603  0.00  0.00    +0.000 C 
ATOM     14  C   UNL     1       1.147  12.223  19.475  0.00  0.00    +0.000 C 
ATOM     15  C   UNL     1      -0.082  11.623  20.175  0.00  0.00    +0.000 C 
ATOM     16  C   UNL     1       0.690  10.636  21.164  0.00  0.00    +0.000 C 
ATOM     17  C   UNL     1      -1.214  12.242  21.145  0.00  0.00    +0.000 C 
ATOM     18  F   UNL     1      -1.711  11.106  21.800  0.00  0.00    +0.000 F 
ATOM     19  C   UNL     1      -0.645  13.127  22.269  0.00  0.00    +0.000 C 
ATOM     20  C   UNL     1      -1.675  13.770  23.199  0.00  0.00    +0.000 C 
ATOM     21  C   UNL     1      -3.140  13.340  23.050  0.00  0.00    +0.000 C 
ATOM     22  C   UNL     1      -3.357  12.146  24.060  0.00  0.00    +0.000 C 
ENDROOT
BRANCH   1  23
ATOM     23  C   UNL     1      -3.726  15.871  22.356  0.00  0.00    +0.000 C 
ATOM     24  O   UNL     1      -4.388  16.168  21.359  0.00  0.00    +0.000 OA
BRANCH  23  25
ATOM     25  C   UNL     1      -2.542  16.778  22.793  0.00  0.00    +0.000 C 
BRANCH  25  26
ATOM     26  O   UNL     1      -1.859  17.644  21.859  0.00  0.00    +0.000 OA
BRANCH  26  27
ATOM     27  C   UNL     1      -0.832  17.105  21.128  0.00  0.00    +0.000 C 
ATOM     28  O   UNL     1       0.337  17.117  21.493  0.00  0.00    +0.000 OA
BRANCH  27  30
ATOM     29  C   UNL     1      -2.173  17.770  19.045  0.00  0.00    +0.000 C 
ATOM     30  C   UNL     1      -1.290  16.703  19.708  0.00  0.00    +0.000 C 
ATOM     31  C   UNL     1      -0.154  16.338  18.757  0.00  0.00    +0.000 C 
ENDBRANCH  27  30
ENDBRANCH  26  27
ENDBRANCH  25  26
ENDBRANCH  23  25
ENDBRANCH   1  23
BRANCH   1  32
ATOM     32  O   UNL     1      -4.062  15.009  24.644  0.00  0.00    +0.000 OA
ATOM     33  H   UNL     1      -4.883  14.714  25.074  0.00  0.00    +0.000 HD
ENDBRANCH   1  32
BRANCH  19  34
ATOM     34  O   UNL     1       0.196  14.151  21.737  0.00  0.00    +0.000 OA
ATOM     35  H   UNL     1       1.049  14.118  22.207  0.00  0.00    +0.000 HD
ENDBRANCH  19  34
TORSDOF 7
ENDMDL
MODEL 8
REMARK VINA RESULT:      -6.2      2.717      7.316
REMARK  Name = 
REMARK  12 active torsions:
REMARK  status: ('A' for Active; 'I' for Inactive)
REMARK    1  A    between atoms: C_1  and  C_2
REMARK    2  A    between atoms: C_2  and  C_3
REMARK    3  A    between atoms: C_2  and  C_4
REMARK    4  A    between atoms: C_4  and  O_6
REMARK    5  A    between atoms: O_6  and  C_7
REMARK    6  A    between atoms: C_7  and  C_8
REMARK    7  A    between atoms: C_8  and  C_10
REMARK    8  A    between atoms: C_10  and  O_11
REMARK    9  A    between atoms: C_12  and  C_13
REMARK   10  A    between atoms: C_25  and  C_26
REMARK   11  A    between atoms: C_29  and  O_30
REMARK   12  A    between atoms: C_32  and  C_33
REMARK                            x       y       z     vdW  Elec       q    Type
REMARK                         _______ _______ _______ _____ _____    ______ ____
ROOT
ATOM      1  C   UNL     1       0.762  12.043  19.068  0.00  0.00    +0.000 C 
ATOM      2  C   UNL     1       0.508  10.545  19.234  0.00  0.00    +0.000 C 
ATOM      3  C   UNL     1       1.673   9.625  18.953  0.00  0.00    +0.000 C 
ATOM      4  C   UNL     1      -0.280  10.518  20.567  0.00  0.00    +0.000 C 
ATOM      5  C   UNL     1      -1.257  11.747  20.431  0.00  0.00    +0.000 C 
ATOM      6  C   UNL     1      -1.644  12.658  21.635  0.00  0.00    +0.000 C 
ATOM      7  C   UNL     1      -2.334  11.809  22.709  0.00  0.00    +0.000 C 
ATOM      8  C   UNL     1      -2.952  12.730  23.728  0.00  0.00    +0.000 C 
ATOM      9  C   UNL     1      -4.061  13.538  23.089  0.00  0.00    +0.000 C 
ATOM     10  C   UNL     1      -5.227  13.669  23.744  0.00  0.00    +0.000 C 
ATOM     11  C   UNL     1      -5.695  15.078  23.804  0.00  0.00    +0.000 C 
ATOM     12  O   UNL     1      -6.870  15.373  23.946  0.00  0.00    +0.000 OA
ATOM     13  C   UNL     1      -4.567  16.102  23.757  0.00  0.00    +0.000 C 
ATOM     14  C   UNL     1      -3.482  15.823  22.962  0.00  0.00    +0.000 C 
ATOM     15  C   UNL     1      -3.603  14.584  22.061  0.00  0.00    +0.000 C 
ATOM     16  C   UNL     1      -4.650  15.178  21.013  0.00  0.00    +0.000 C 
ATOM     17  C   UNL     1      -2.566  13.815  21.093  0.00  0.00    +0.000 C 
ATOM     18  F   UNL     1      -3.418  13.116  20.225  0.00  0.00    +0.000 F 
ATOM     19  C   UNL     1      -1.762  14.759  20.179  0.00  0.00    +0.000 C 
ATOM     20  C   UNL     1      -0.737  14.088  19.263  0.00  0.00    +0.000 C 
ATOM     21  C   UNL     1      -0.729  12.555  19.201  0.00  0.00    +0.000 C 
ATOM     22  C   UNL     1      -1.676  12.155  18.002  0.00  0.00    +0.000 C 
ENDROOT
BRANCH   1  23
ATOM     23  C   UNL     1       1.761  12.610  20.215  0.00  0.00    +0.000 C 
ATOM     24  O   UNL     1       1.704  12.232  21.388  0.00  0.00    +0.000 OA
BRANCH  23  25
ATOM     25  C   UNL     1       2.861  13.619  19.784  0.00  0.00    +0.000 C 
BRANCH  25  26
ATOM     26  O   UNL     1       2.570  14.744  18.925  0.00  0.00    +0.000 OA
BRANCH  26  27
ATOM     27  C   UNL     1       2.235  15.931  19.526  0.00  0.00    +0.000 C 
ATOM     28  O   UNL     1       1.907  16.024  20.703  0.00  0.00    +0.000 OA
BRANCH  27  30
ATOM     29  C   UNL     1       2.930  16.839  17.230  0.00  0.00    +0.000 C 
ATOM     30  C   UNL     1       2.095  17.074  18.497  0.00  0.00    +0.000 C 
ATOM     31  C   UNL     1       0.658  17.388  18.092  0.00  0.00    +0.000 C 
ENDBRANCH  27  30
ENDBRANCH  26  27
ENDBRANCH  25  26
ENDBRANCH  23  25
ENDBRANCH   1  23
BRANCH   1  32
ATOM     32  O   UNL     1       1.315  12.366  17.799  0.00  0.00    +0.000 OA
ATOM     33  H   UNL     1       1.947  11.671  17.547  0.00  0.00    +0.000 HD
ENDBRANCH   1  32
BRANCH  19  34
ATOM     34  O   UNL     1      -1.104  15.770  20.942  0.00  0.00    +0.000 OA
ATOM     35  H   UNL     1      -1.552  16.619  20.772  0.00  0.00    +0.000 HD
ENDBRANCH  19  34
TORSDOF 7
ENDMDL
MODEL 9
REMARK VINA RESULT:      -6.1      1.179      1.483
REMARK  Name = 
REMARK  12 active torsions:
REMARK  status: ('A' for Active; 'I' for Inactive)
REMARK    1  A    between atoms: C_1  and  C_2
REMARK    2  A    between atoms: C_2  and  C_3
REMARK    3  A    between atoms: C_2  and  C_4
REMARK    4  A    between atoms: C_4  and  O_6
REMARK    5  A    between atoms: O_6  and  C_7
REMARK    6  A    between atoms: C_7  and  C_8
REMARK    7  A    between atoms: C_8  and  C_10
REMARK    8  A    between atoms: C_10  and  O_11
REMARK    9  A    between atoms: C_12  and  C_13
REMARK   10  A    between atoms: C_25  and  C_26
REMARK   11  A    between atoms: C_29  and  O_30
REMARK   12  A    between atoms: C_32  and  C_33
REMARK                            x       y       z     vdW  Elec       q    Type
REMARK                         _______ _______ _______ _____ _____    ______ ____
ROOT
ATOM      1  C   UNL     1      -2.512  13.974  21.796  0.00  0.00    +0.000 C 
ATOM      2  C   UNL     1      -2.283  13.690  23.280  0.00  0.00    +0.000 C 
ATOM      3  C   UNL     1      -3.330  14.208  24.238  0.00  0.00    +0.000 C 
ATOM      4  C   UNL     1      -1.846  12.204  23.239  0.00  0.00    +0.000 C 
ATOM      5  C   UNL     1      -0.884  12.148  21.992  0.00  0.00    +0.000 C 
ATOM      6  C   UNL     1      -0.818  10.924  21.029  0.00  0.00    +0.000 C 
ATOM      7  C   UNL     1      -0.400   9.680  21.820  0.00  0.00    +0.000 C 
ATOM      8  C   UNL     1      -0.065   8.580  20.849  0.00  0.00    +0.000 C 
ATOM      9  C   UNL     1       1.154   8.961  20.037  0.00  0.00    +0.000 C 
ATOM     10  C   UNL     1       2.122   8.047  19.852  0.00  0.00    +0.000 C 
ATOM     11  C   UNL     1       2.540   7.932  18.431  0.00  0.00    +0.000 C 
ATOM     12  O   UNL     1       3.639   7.519  18.102  0.00  0.00    +0.000 OA
ATOM     13  C   UNL     1       1.441   8.296  17.438  0.00  0.00    +0.000 C 
ATOM     14  C   UNL     1       0.589   9.319  17.773  0.00  0.00    +0.000 C 
ATOM     15  C   UNL     1       0.946  10.112  19.040  0.00  0.00    +0.000 C 
ATOM     16  C   UNL     1       2.209  10.896  18.458  0.00  0.00    +0.000 C 
ATOM     17  C   UNL     1       0.190  11.272  19.869  0.00  0.00    +0.000 C 
ATOM     18  F   UNL     1       1.240  11.876  20.578  0.00  0.00    +0.000 F 
ATOM     19  C   UNL     1      -0.380  12.393  18.979  0.00  0.00    +0.000 C 
ATOM     20  C   UNL     1      -1.138  13.502  19.708  0.00  0.00    +0.000 C 
ATOM     21  C   UNL     1      -1.107  13.502  21.242  0.00  0.00    +0.000 C 
ATOM     22  C   UNL     1       0.111  14.415  21.662  0.00  0.00    +0.000 C 
ENDROOT
BRANCH   1  23
ATOM     23  C   UNL     1      -3.770  13.130  21.213  0.00  0.00    +0.000 C 
ATOM     24  O   UNL     1      -3.713  12.510  20.148  0.00  0.00    +0.000 OA
BRANCH  23  25
ATOM     25  C   UNL     1      -5.062  13.066  22.074  0.00  0.00    +0.000 C 
BRANCH  25  26
ATOM     26  O   UNL     1      -6.098  12.091  21.824  0.00  0.00    +0.000 OA
BRANCH  26  27
ATOM     27  C   UNL     1      -7.126  12.456  20.993  0.00  0.00    +0.000 C 
ATOM     28  O   UNL     1      -7.708  13.531  21.071  0.00  0.00    +0.000 OA
BRANCH  27  30
ATOM     29  C   UNL     1      -6.674  10.992  18.937  0.00  0.00    +0.000 C 
ATOM     30  C   UNL     1      -7.607  11.274  20.123  0.00  0.00    +0.000 C 
ATOM     31  C   UNL     1      -7.840   9.977  20.891  0.00  0.00    +0.000 C 
ENDBRANCH  27  30
ENDBRANCH  26  27
ENDBRANCH  25  26
ENDBRANCH  23  25
ENDBRANCH   1  23
BRANCH   1  32
ATOM     32  O   UNL     1      -2.742  15.352  21.532  0.00  0.00    +0.000 OA
ATOM     33  H   UNL     1      -2.956  15.458  20.590  0.00  0.00    +0.000 HD
ENDBRANCH   1  32
BRANCH  19  34
ATOM     34  O   UNL     1      -1.220  11.856  17.958  0.00  0.00    +0.000 OA
ATOM     35  H   UNL     1      -2.051  11.560  18.372  0.00  0.00    +0.000 HD
ENDBRANCH  19  34
TORSDOF 7
ENDMDL
