MODEL 1
REMARK VINA RESULT:      -8.6      0.000      0.000
REMARK  Name = 
REMARK  7 active torsions:
REMARK  status: ('A' for Active; 'I' for Inactive)
REMARK    1  A    between atoms: C_1  and  C_2
REMARK    2  A    between atoms: C_2  and  N_3
REMARK    3  A    between atoms: C_2  and  C_19
REMARK    4  A    between atoms: N_3  and  C_4
REMARK    5  A    between atoms: C_8  and  C_9
REMARK    6  A    between atoms: C_12  and  C_13
REMARK    7  A    between atoms: C_13  and  O_15
REMARK                            x       y       z     vdW  Elec       q    Type
REMARK                         _______ _______ _______ _____ _____    ______ ____
ROOT
ATOM      1  C   UNL     1       2.117   5.711  20.802  0.00  0.00    +0.000 C 
ATOM      2  C   UNL     1       1.520   4.305  21.028  0.00  0.00    +0.000 C 
ATOM      3  C   UNL     1       1.040   3.625  19.742  0.00  0.00    +0.000 C 
ATOM      4  C   UNL     1       2.130   3.590  18.671  0.00  0.00    +0.000 C 
ATOM      5  C   UNL     1       2.722   4.987  18.414  0.00  0.00    +0.000 C 
ATOM      6  C   UNL     1       3.217   5.613  19.731  0.00  0.00    +0.000 C 
ENDROOT
BRANCH   5   7
ATOM      7  C   UNL     1       3.837   4.955  17.380  0.00  0.00    +0.000 A 
ATOM      8  C   UNL     1       4.308   3.726  16.896  0.00  0.00    +0.000 A 
ATOM      9  C   UNL     1       5.305   3.682  15.918  0.00  0.00    +0.000 A 
ATOM     10  C   UNL     1       5.850   4.862  15.415  0.00  0.00    +0.000 A 
ATOM     11  C   UNL     1       5.375   6.098  15.871  0.00  0.00    +0.000 A 
ATOM     12  C   UNL     1       4.387   6.139  16.857  0.00  0.00    +0.000 A 
BRANCH  10  13
ATOM     13  C   UNL     1       6.889   4.762  14.357  0.00  0.00    +0.000 C 
ATOM     14  O   UNL     1       7.826   5.545  14.257  0.00  0.00    +0.000 OA
BRANCH  13  15
ATOM     15  O   UNL     1       6.690   3.752  13.479  0.00  0.00    +0.000 OA
ATOM     16  H   UNL     1       7.395   3.081  13.451  0.00  0.00    +0.000 HD
ENDBRANCH  13  15
ENDBRANCH  10  13
ENDBRANCH   5   7
BRANCH   1  17
ATOM     17  N   UNL     1       1.025   6.643  20.504  0.00  0.00    +0.000 NA
ATOM     18  H   UNL     1       0.929   6.753  19.494  0.00  0.00    +0.000 HD
BRANCH  17  20
ATOM     19  C   UNL     1       0.005   8.340  22.073  0.00  0.00    +0.000 C 
ATOM     20  C   UNL     1       1.117   7.999  21.083  0.00  0.00    +0.000 C 
BRANCH  20  21
ATOM     21  C   UNL     1       1.172   9.017  19.936  0.00  0.00    +0.000 A 
ATOM     22  C   UNL     1       1.734   8.621  18.705  0.00  0.00    +0.000 A 
ATOM     23  C   UNL     1       2.084   9.563  17.745  0.00  0.00    +0.000 A 
ATOM     24  C   UNL     1       1.922  10.916  18.022  0.00  0.00    +0.000 A 
ATOM     25  C   UNL     1       1.331  11.340  19.222  0.00  0.00    +0.000 A 
ATOM     26  C   UNL     1       1.242  12.708  19.528  0.00  0.00    +0.000 A 
ATOM     27  C   UNL     1       0.613  13.145  20.693  0.00  0.00    +0.000 A 
ATOM     28  C   UNL     1      -0.001  12.224  21.530  0.00  0.00    +0.000 A 
ATOM     29  C   UNL     1       0.115  10.862  21.261  0.00  0.00    +0.000 A 
ATOM     30  C   UNL     1       0.853  10.386  20.151  0.00  0.00    +0.000 A 
ENDBRANCH  20  21
ENDBRANCH  17  20
ENDBRANCH   1  17
TORSDOF 6
ENDMDL
MODEL 2
REMARK VINA RESULT:      -8.4      3.782      5.765
REMARK  Name = 
REMARK  7 active torsions:
REMARK  status: ('A' for Active; 'I' for Inactive)
REMARK    1  A    between atoms: C_1  and  C_2
REMARK    2  A    between atoms: C_2  and  N_3
REMARK    3  A    between atoms: C_2  and  C_19
REMARK    4  A    between atoms: N_3  and  C_4
REMARK    5  A    between atoms: C_8  and  C_9
REMARK    6  A    between atoms: C_12  and  C_13
REMARK    7  A    between atoms: C_13  and  O_15
REMARK                            x       y       z     vdW  Elec       q    Type
REMARK                         _______ _______ _______ _____ _____    ______ ____
ROOT
ATOM      1  C   UNL     1       0.399  10.779  19.767  0.00  0.00    +0.000 C 
ATOM      2  C   UNL     1       0.601  11.068  21.271  0.00  0.00    +0.000 C 
ATOM      3  C   UNL     1       0.412   9.839  22.165  0.00  0.00    +0.000 C 
ATOM      4  C   UNL     1       1.276   8.662  21.713  0.00  0.00    +0.000 C 
ATOM      5  C   UNL     1       1.070   8.343  20.222  0.00  0.00    +0.000 C 
ATOM      6  C   UNL     1       1.302   9.600  19.365  0.00  0.00    +0.000 C 
ENDROOT
BRANCH   5   7
ATOM      7  C   UNL     1       1.958   7.200  19.752  0.00  0.00    +0.000 A 
ATOM      8  C   UNL     1       1.994   6.000  20.476  0.00  0.00    +0.000 A 
ATOM      9  C   UNL     1       2.774   4.927  20.036  0.00  0.00    +0.000 A 
ATOM     10  C   UNL     1       3.534   5.040  18.873  0.00  0.00    +0.000 A 
ATOM     11  C   UNL     1       3.490   6.224  18.126  0.00  0.00    +0.000 A 
ATOM     12  C   UNL     1       2.719   7.298  18.574  0.00  0.00    +0.000 A 
BRANCH  10  13
ATOM     13  C   UNL     1       4.326   3.862  18.433  0.00  0.00    +0.000 C 
ATOM     14  O   UNL     1       4.025   3.170  17.468  0.00  0.00    +0.000 OA
BRANCH  13  15
ATOM     15  O   UNL     1       5.394   3.589  19.217  0.00  0.00    +0.000 OA
ATOM     16  H   UNL     1       6.073   4.285  19.252  0.00  0.00    +0.000 HD
ENDBRANCH  13  15
ENDBRANCH  10  13
ENDBRANCH   5   7
BRANCH   1  17
ATOM     17  N   UNL     1      -1.034  10.593  19.513  0.00  0.00    +0.000 NA
ATOM     18  H   UNL     1      -1.187   9.711  19.023  0.00  0.00    +0.000 HD
BRANCH  17  20
ATOM     19  C   UNL     1      -0.807  12.735  18.192  0.00  0.00    +0.000 C 
ATOM     20  C   UNL     1      -1.726  11.645  18.743  0.00  0.00    +0.000 C 
BRANCH  20  21
ATOM     21  C   UNL     1      -2.834  12.243  19.620  0.00  0.00    +0.000 A 
ATOM     22  C   UNL     1      -2.485  12.803  20.866  0.00  0.00    +0.000 A 
ATOM     23  C   UNL     1      -3.455  13.081  21.821  0.00  0.00    +0.000 A 
ATOM     24  C   UNL     1      -4.783  12.757  21.562  0.00  0.00    +0.000 A 
ATOM     25  C   UNL     1      -5.168  12.235  20.318  0.00  0.00    +0.000 A 
ATOM     26  C   UNL     1      -6.497  11.838  20.092  0.00  0.00    +0.000 A 
ATOM     27  C   UNL     1      -6.903  11.363  18.845  0.00  0.00    +0.000 A 
ATOM     28  C   UNL     1      -6.005  11.349  17.788  0.00  0.00    +0.000 A 
ATOM     29  C   UNL     1      -4.674  11.700  18.009  0.00  0.00    +0.000 A 
ATOM     30  C   UNL     1      -4.207  12.068  19.293  0.00  0.00    +0.000 A 
ENDBRANCH  20  21
ENDBRANCH  17  20
ENDBRANCH   1  17
TORSDOF 6
ENDMDL
MODEL 3
REMARK VINA RESULT:      -8.4      0.167      1.100
REMARK  Name = 
REMARK  7 active torsions:
REMARK  status: ('A' for Active; 'I' for Inactive)
REMARK    1  A    between atoms: C_1  and  C_2
REMARK    2  A    between atoms: C_2  and  N_3
REMARK    3  A    between atoms: C_2  and  C_19
REMARK    4  A    between atoms: N_3  and  C_4
REMARK    5  A    between atoms: C_8  and  C_9
REMARK    6  A    between atoms: C_12  and  C_13
REMARK    7  A    between atoms: C_13  and  O_15
REMARK                            x       y       z     vdW  Elec       q    Type
REMARK                         _______ _______ _______ _____ _____    ______ ____
ROOT
ATOM      1  C   UNL     1       2.197   5.718  20.846  0.00  0.00    +0.000 C 
ATOM      2  C   UNL     1       1.636   4.310  21.141  0.00  0.00    +0.000 C 
ATOM      3  C   UNL     1       1.098   3.589  19.900  0.00  0.00    +0.000 C 
ATOM      4  C   UNL     1       2.128   3.544  18.772  0.00  0.00    +0.000 C 
ATOM      5  C   UNL     1       2.681   4.941  18.447  0.00  0.00    +0.000 C 
ATOM      6  C   UNL     1       3.237   5.610  19.718  0.00  0.00    +0.000 C 
ENDROOT
BRANCH   5   7
ATOM      7  C   UNL     1       3.738   4.901  17.354  0.00  0.00    +0.000 A 
ATOM      8  C   UNL     1       4.282   6.096  16.862  0.00  0.00    +0.000 A 
ATOM      9  C   UNL     1       5.281   6.073  15.886  0.00  0.00    +0.000 A 
ATOM     10  C   UNL     1       5.746   4.859  15.382  0.00  0.00    +0.000 A 
ATOM     11  C   UNL     1       5.229   3.657  15.879  0.00  0.00    +0.000 A 
ATOM     12  C   UNL     1       4.223   3.682  16.847  0.00  0.00    +0.000 A 
BRANCH  10  13
ATOM     13  C   UNL     1       6.828   4.888  14.364  0.00  0.00    +0.000 C 
ATOM     14  O   UNL     1       6.796   4.235  13.328  0.00  0.00    +0.000 OA
BRANCH  13  15
ATOM     15  O   UNL     1       7.881   5.670  14.696  0.00  0.00    +0.000 OA
ATOM     16  H   UNL     1       8.296   6.145  13.956  0.00  0.00    +0.000 HD
ENDBRANCH  13  15
ENDBRANCH  10  13
ENDBRANCH   5   7
BRANCH   1  17
ATOM     17  N   UNL     1       1.074   6.626  20.586  0.00  0.00    +0.000 NA
ATOM     18  H   UNL     1       0.916   6.702  19.580  0.00  0.00    +0.000 HD
BRANCH  17  20
ATOM     19  C   UNL     1       0.085   8.377  22.114  0.00  0.00    +0.000 C 
ATOM     20  C   UNL     1       1.178   8.000  21.116  0.00  0.00    +0.000 C 
BRANCH  20  21
ATOM     21  C   UNL     1       1.215   8.978  19.935  0.00  0.00    +0.000 A 
ATOM     22  C   UNL     1       1.762   8.543  18.711  0.00  0.00    +0.000 A 
ATOM     23  C   UNL     1       2.097   9.452  17.715  0.00  0.00    +0.000 A 
ATOM     24  C   UNL     1       1.934  10.813  17.948  0.00  0.00    +0.000 A 
ATOM     25  C   UNL     1       1.357  11.276  19.140  0.00  0.00    +0.000 A 
ATOM     26  C   UNL     1       1.266  12.654  19.401  0.00  0.00    +0.000 A 
ATOM     27  C   UNL     1       0.651  13.128  20.558  0.00  0.00    +0.000 A 
ATOM     28  C   UNL     1       0.052  12.235  21.434  0.00  0.00    +0.000 A 
ATOM     29  C   UNL     1       0.169  10.864  21.210  0.00  0.00    +0.000 A 
ATOM     30  C   UNL     1       0.894  10.353  20.108  0.00  0.00    +0.000 A 
ENDBRANCH  20  21
ENDBRANCH  17  20
ENDBRANCH   1  17
TORSDOF 6
ENDMDL
MODEL 4
REMARK VINA RESULT:      -8.2      4.133      6.573
REMARK  Name = 
REMARK  7 active torsions:
REMARK  status: ('A' for Active; 'I' for Inactive)
REMARK    1  A    between atoms: C_1  and  C_2
REMARK    2  A    between atoms: C_2  and  N_3
REMARK    3  A    between atoms: C_2  and  C_19
REMARK    4  A    between atoms: N_3  and  C_4
REMARK    5  A    between atoms: C_8  and  C_9
REMARK    6  A    between atoms: C_12  and  C_13
REMARK    7  A    between atoms: C_13  and  O_15
REMARK                            x       y       z     vdW  Elec       q    Type
REMARK                         _______ _______ _______ _____ _____    ______ ____
ROOT
ATOM      1  C   UNL     1      -0.511  11.872  21.107  0.00  0.00    +0.000 C 
ATOM      2  C   UNL     1      -0.516  11.467  22.597  0.00  0.00    +0.000 C 
ATOM      3  C   UNL     1      -0.738   9.968  22.826  0.00  0.00    +0.000 C 
ATOM      4  C   UNL     1       0.249   9.115  22.030  0.00  0.00    +0.000 C 
ATOM      5  C   UNL     1       0.252   9.488  20.538  0.00  0.00    +0.000 C 
ATOM      6  C   UNL     1       0.509  10.996  20.360  0.00  0.00    +0.000 C 
ENDROOT
BRANCH   5   7
ATOM      7  C   UNL     1       1.262   8.673  19.744  0.00  0.00    +0.000 A 
ATOM      8  C   UNL     1       1.783   7.488  20.284  0.00  0.00    +0.000 A 
ATOM      9  C   UNL     1       2.682   6.708  19.552  0.00  0.00    +0.000 A 
ATOM     10  C   UNL     1       3.078   7.103  18.275  0.00  0.00    +0.000 A 
ATOM     11  C   UNL     1       2.548   8.271  17.712  0.00  0.00    +0.000 A 
ATOM     12  C   UNL     1       1.659   9.054  18.450  0.00  0.00    +0.000 A 
BRANCH  10  13
ATOM     13  C   UNL     1       4.015   6.226  17.526  0.00  0.00    +0.000 C 
ATOM     14  O   UNL     1       3.884   5.010  17.449  0.00  0.00    +0.000 OA
BRANCH  13  15
ATOM     15  O   UNL     1       5.058   6.880  16.966  0.00  0.00    +0.000 OA
ATOM     16  H   UNL     1       4.871   7.308  16.113  0.00  0.00    +0.000 HD
ENDBRANCH  13  15
ENDBRANCH  10  13
ENDBRANCH   5   7
BRANCH   1  17
ATOM     17  N   UNL     1      -1.886  11.816  20.599  0.00  0.00    +0.000 NA
ATOM     18  H   UNL     1      -1.928  11.209  19.779  0.00  0.00    +0.000 HD
BRANCH  17  20
ATOM     19  C   UNL     1      -1.812  14.336  20.765  0.00  0.00    +0.000 C 
ATOM     20  C   UNL     1      -2.523  13.095  20.228  0.00  0.00    +0.000 C 
BRANCH  20  21
ATOM     21  C   UNL     1      -3.990  13.058  20.674  0.00  0.00    +0.000 A 
ATOM     22  C   UNL     1      -4.319  13.530  21.962  0.00  0.00    +0.000 A 
ATOM     23  C   UNL     1      -5.555  13.249  22.531  0.00  0.00    +0.000 A 
ATOM     24  C   UNL     1      -6.462  12.452  21.840  0.00  0.00    +0.000 A 
ATOM     25  C   UNL     1      -6.180  11.999  20.542  0.00  0.00    +0.000 A 
ATOM     26  C   UNL     1      -7.066  11.131  19.881  0.00  0.00    +0.000 A 
ATOM     27  C   UNL     1      -6.822  10.714  18.573  0.00  0.00    +0.000 A 
ATOM     28  C   UNL     1      -5.729  11.217  17.883  0.00  0.00    +0.000 A 
ATOM     29  C   UNL     1      -4.820  12.046  18.539  0.00  0.00    +0.000 A 
ATOM     30  C   UNL     1      -4.978  12.386  19.903  0.00  0.00    +0.000 A 
ENDBRANCH  20  21
ENDBRANCH  17  20
ENDBRANCH   1  17
TORSDOF 6
ENDMDL
MODEL 5
REMARK VINA RESULT:      -8.1      4.102      6.562
REMARK  Name = 
REMARK  7 active torsions:
REMARK  status: ('A' for Active; 'I' for Inactive)
REMARK    1  A    between atoms: C_1  and  C_2
REMARK    2  A    between atoms: C_2  and  N_3
REMARK    3  A    between atoms: C_2  and  C_19
REMARK    4  A    between atoms: N_3  and  C_4
REMARK    5  A    between atoms: C_8  and  C_9
REMARK    6  A    between atoms: C_12  and  C_13
REMARK    7  A    between atoms: C_13  and  O_15
REMARK                            x       y       z     vdW  Elec       q    Type
REMARK                         _______ _______ _______ _____ _____    ______ ____
ROOT
ATOM      1  C   UNL     1      -0.464  11.854  21.027  0.00  0.00    +0.000 C 
ATOM      2  C   UNL     1      -0.466  11.477  22.525  0.00  0.00    +0.000 C 
ATOM      3  C   UNL     1      -0.706   9.987  22.784  0.00  0.00    +0.000 C 
ATOM      4  C   UNL     1       0.262   9.104  21.999  0.00  0.00    +0.000 C 
ATOM      5  C   UNL     1       0.261   9.449  20.500  0.00  0.00    +0.000 C 
ATOM      6  C   UNL     1       0.538  10.949  20.291  0.00  0.00    +0.000 C 
ENDROOT
BRANCH   5   7
ATOM      7  C   UNL     1       1.254   8.604  19.716  0.00  0.00    +0.000 A 
ATOM      8  C   UNL     1       1.662   9.010  18.437  0.00  0.00    +0.000 A 
ATOM      9  C   UNL     1       2.603   8.266  17.721  0.00  0.00    +0.000 A 
ATOM     10  C   UNL     1       3.144   7.103  18.267  0.00  0.00    +0.000 A 
ATOM     11  C   UNL     1       2.764   6.696  19.552  0.00  0.00    +0.000 A 
ATOM     12  C   UNL     1       1.816   7.436  20.261  0.00  0.00    +0.000 A 
BRANCH  10  13
ATOM     13  C   UNL     1       4.160   6.361  17.476  0.00  0.00    +0.000 C 
ATOM     14  O   UNL     1       4.697   6.815  16.473  0.00  0.00    +0.000 OA
BRANCH  13  15
ATOM     15  O   UNL     1       4.416   5.114  17.935  0.00  0.00    +0.000 OA
ATOM     16  H   UNL     1       4.142   4.945  18.853  0.00  0.00    +0.000 HD
ENDBRANCH  13  15
ENDBRANCH  10  13
ENDBRANCH   5   7
BRANCH   1  17
ATOM     17  N   UNL     1      -1.843  11.807  20.529  0.00  0.00    +0.000 NA
ATOM     18  H   UNL     1      -1.899  11.184  19.723  0.00  0.00    +0.000 HD
BRANCH  17  20
ATOM     19  C   UNL     1      -1.718  14.329  20.621  0.00  0.00    +0.000 C 
ATOM     20  C   UNL     1      -2.463  13.088  20.134  0.00  0.00    +0.000 C 
BRANCH  20  21
ATOM     21  C   UNL     1      -3.921  13.092  20.612  0.00  0.00    +0.000 A 
ATOM     22  C   UNL     1      -4.217  13.627  21.882  0.00  0.00    +0.000 A 
ATOM     23  C   UNL     1      -5.445  13.390  22.489  0.00  0.00    +0.000 A 
ATOM     24  C   UNL     1      -6.376  12.575  21.854  0.00  0.00    +0.000 A 
ATOM     25  C   UNL     1      -6.127  12.059  20.573  0.00  0.00    +0.000 A 
ATOM     26  C   UNL     1      -7.038  11.174  19.972  0.00  0.00    +0.000 A 
ATOM     27  C   UNL     1      -6.826  10.692  18.681  0.00  0.00    +0.000 A 
ATOM     28  C   UNL     1      -5.742  11.148  17.945  0.00  0.00    +0.000 A 
ATOM     29  C   UNL     1      -4.808  11.993  18.543  0.00  0.00    +0.000 A 
ATOM     30  C   UNL     1      -4.934  12.399  19.893  0.00  0.00    +0.000 A 
ENDBRANCH  20  21
ENDBRANCH  17  20
ENDBRANCH   1  17
TORSDOF 6
ENDMDL
MODEL 6
REMARK VINA RESULT:      -8.1      3.104      7.241
REMARK  Name = 
REMARK  7 active torsions:
REMARK  status: ('A' for Active; 'I' for Inactive)
REMARK    1  A    between atoms: C_1  and  C_2
REMARK    2  A    between atoms: C_2  and  N_3
REMARK    3  A    between atoms: C_2  and  C_19
REMARK    4  A    between atoms: N_3  and  C_4
REMARK    5  A    between atoms: C_8  and  C_9
REMARK    6  A    between atoms: C_12  and  C_13
REMARK    7  A    between atoms: C_13  and  O_15
REMARK                            x       y       z     vdW  Elec       q    Type
REMARK                         _______ _______ _______ _____ _____    ______ ____
ROOT
ATOM      1  C   UNL     1       1.805   2.984  19.215  0.00  0.00    +0.000 C 
ATOM      2  C   UNL     1       1.266   2.789  20.649  0.00  0.00    +0.000 C 
ATOM      3  C   UNL     1       1.872   3.756  21.671  0.00  0.00    +0.000 C 
ATOM      4  C   UNL     1       1.740   5.213  21.230  0.00  0.00    +0.000 C 
ATOM      5  C   UNL     1       2.293   5.433  19.812  0.00  0.00    +0.000 C 
ATOM      6  C   UNL     1       1.631   4.461  18.819  0.00  0.00    +0.000 C 
ENDROOT
BRANCH   5   7
ATOM      7  C   UNL     1       2.127   6.872  19.348  0.00  0.00    +0.000 A 
ATOM      8  C   UNL     1       1.465   7.799  20.166  0.00  0.00    +0.000 A 
ATOM      9  C   UNL     1       1.338   9.133  19.771  0.00  0.00    +0.000 A 
ATOM     10  C   UNL     1       1.864   9.559  18.552  0.00  0.00    +0.000 A 
ATOM     11  C   UNL     1       2.548   8.652  17.734  0.00  0.00    +0.000 A 
ATOM     12  C   UNL     1       2.663   7.316  18.126  0.00  0.00    +0.000 A 
BRANCH  10  13
ATOM     13  C   UNL     1       1.726  10.994  18.190  0.00  0.00    +0.000 C 
ATOM     14  O   UNL     1       2.666  11.691  17.828  0.00  0.00    +0.000 OA
BRANCH  13  15
ATOM     15  O   UNL     1       0.473  11.484  18.333  0.00  0.00    +0.000 OA
ATOM     16  H   UNL     1      -0.132  11.302  17.593  0.00  0.00    +0.000 HD
ENDBRANCH  13  15
ENDBRANCH  10  13
ENDBRANCH   5   7
BRANCH   1  17
ATOM     17  N   UNL     1       3.178   2.471  19.155  0.00  0.00    +0.000 NA
ATOM     18  H   UNL     1       3.765   2.973  19.821  0.00  0.00    +0.000 HD
BRANCH  17  20
ATOM     19  C   UNL     1       4.373   1.171  17.347  0.00  0.00    +0.000 C 
ATOM     20  C   UNL     1       3.862   2.521  17.847  0.00  0.00    +0.000 C 
BRANCH  20  21
ATOM     21  C   UNL     1       4.997   3.550  17.928  0.00  0.00    +0.000 A 
ATOM     22  C   UNL     1       5.265   4.166  19.168  0.00  0.00    +0.000 A 
ATOM     23  C   UNL     1       6.060   5.304  19.242  0.00  0.00    +0.000 A 
ATOM     24  C   UNL     1       6.557   5.869  18.073  0.00  0.00    +0.000 A 
ATOM     25  C   UNL     1       6.340   5.259  16.828  0.00  0.00    +0.000 A 
ATOM     26  C   UNL     1       6.778   5.876  15.645  0.00  0.00    +0.000 A 
ATOM     27  C   UNL     1       6.612   5.258  14.407  0.00  0.00    +0.000 A 
ATOM     28  C   UNL     1       6.073   3.981  14.342  0.00  0.00    +0.000 A 
ATOM     29  C   UNL     1       5.596   3.374  15.503  0.00  0.00    +0.000 A 
ATOM     30  C   UNL     1       5.641   4.031  16.755  0.00  0.00    +0.000 A 
ENDBRANCH  20  21
ENDBRANCH  17  20
ENDBRANCH   1  17
TORSDOF 6
ENDMDL
MODEL 7
REMARK VINA RESULT:      -8.0      2.001      3.777
REMARK  Name = 
REMARK  7 active torsions:
REMARK  status: ('A' for Active; 'I' for Inactive)
REMARK    1  A    between atoms: C_1  and  C_2
REMARK    2  A    between atoms: C_2  and  N_3
REMARK    3  A    between atoms: C_2  and  C_19
REMARK    4  A    between atoms: N_3  and  C_4
REMARK    5  A    between atoms: C_8  and  C_9
REMARK    6  A    between atoms: C_12  and  C_13
REMARK    7  A    between atoms: C_13  and  O_15
REMARK                            x       y       z     vdW  Elec       q    Type
REMARK                         _______ _______ _______ _____ _____    ______ ____
ROOT
ATOM      1  C   UNL     1       1.310  10.265  18.665  0.00  0.00    +0.000 C 
ATOM      2  C   UNL     1       1.162  10.074  20.190  0.00  0.00    +0.000 C 
ATOM      3  C   UNL     1       0.857   8.631  20.603  0.00  0.00    +0.000 C 
ATOM      4  C   UNL     1       1.869   7.643  20.024  0.00  0.00    +0.000 C 
ATOM      5  C   UNL     1       2.014   7.802  18.501  0.00  0.00    +0.000 C 
ATOM      6  C   UNL     1       2.350   9.261  18.140  0.00  0.00    +0.000 C 
ENDROOT
BRANCH   5   7
ATOM      7  C   UNL     1       3.051   6.852  17.921  0.00  0.00    +0.000 A 
ATOM      8  C   UNL     1       4.142   7.361  17.201  0.00  0.00    +0.000 A 
ATOM      9  C   UNL     1       5.123   6.504  16.695  0.00  0.00    +0.000 A 
ATOM     10  C   UNL     1       5.026   5.128  16.895  0.00  0.00    +0.000 A 
ATOM     11  C   UNL     1       3.955   4.606  17.632  0.00  0.00    +0.000 A 
ATOM     12  C   UNL     1       2.971   5.463  18.126  0.00  0.00    +0.000 A 
BRANCH  10  13
ATOM     13  C   UNL     1       6.108   4.262  16.361  0.00  0.00    +0.000 C 
ATOM     14  O   UNL     1       6.027   3.660  15.297  0.00  0.00    +0.000 OA
BRANCH  13  15
ATOM     15  O   UNL     1       7.185   4.157  17.172  0.00  0.00    +0.000 OA
ATOM     16  H   UNL     1       8.015   3.903  16.731  0.00  0.00    +0.000 HD
ENDBRANCH  13  15
ENDBRANCH  10  13
ENDBRANCH   5   7
BRANCH   1  17
ATOM     17  N   UNL     1      -0.018  10.181  18.049  0.00  0.00    +0.000 NA
ATOM     18  H   UNL     1      -0.040  10.740  17.195  0.00  0.00    +0.000 HD
BRANCH  17  20
ATOM     19  C   UNL     1      -2.534  10.279  18.254  0.00  0.00    +0.000 C 
ATOM     20  C   UNL     1      -1.173  10.595  18.871  0.00  0.00    +0.000 C 
BRANCH  20  21
ATOM     21  C   UNL     1      -1.037  12.090  19.185  0.00  0.00    +0.000 A 
ATOM     22  C   UNL     1      -0.572  12.956  18.174  0.00  0.00    +0.000 A 
ATOM     23  C   UNL     1      -0.146  14.244  18.477  0.00  0.00    +0.000 A 
ATOM     24  C   UNL     1      -0.135  14.667  19.801  0.00  0.00    +0.000 A 
ATOM     25  C   UNL     1      -0.627  13.844  20.825  0.00  0.00    +0.000 A 
ATOM     26  C   UNL     1      -0.541  14.247  22.168  0.00  0.00    +0.000 A 
ATOM     27  C   UNL     1      -1.070  13.461  23.191  0.00  0.00    +0.000 A 
ATOM     28  C   UNL     1      -1.759  12.298  22.878  0.00  0.00    +0.000 A 
ATOM     29  C   UNL     1      -1.816  11.864  21.555  0.00  0.00    +0.000 A 
ATOM     30  C   UNL     1      -1.182  12.580  20.513  0.00  0.00    +0.000 A 
ENDBRANCH  20  21
ENDBRANCH  17  20
ENDBRANCH   1  17
TORSDOF 6
ENDMDL
MODEL 8
REMARK VINA RESULT:      -8.0      3.059      7.486
REMARK  Name = 
REMARK  7 active torsions:
REMARK  status: ('A' for Active; 'I' for Inactive)
REMARK    1  A    between atoms: C_1  and  C_2
REMARK    2  A    between atoms: C_2  and  N_3
REMARK    3  A    between atoms: C_2  and  C_19
REMARK    4  A    between atoms: N_3  and  C_4
REMARK    5  A    between atoms: C_8  and  C_9
REMARK    6  A    between atoms: C_12  and  C_13
REMARK    7  A    between atoms: C_13  and  O_15
REMARK                            x       y       z     vdW  Elec       q    Type
REMARK                         _______ _______ _______ _____ _____    ______ ____
ROOT
ATOM      1  C   UNL     1       1.865   3.596  18.723  0.00  0.00    +0.000 C 
ATOM      2  C   UNL     1       1.084   3.218  20.000  0.00  0.00    +0.000 C 
ATOM      3  C   UNL     1       1.461   4.060  21.223  0.00  0.00    +0.000 C 
ATOM      4  C   UNL     1       1.358   5.558  20.942  0.00  0.00    +0.000 C 
ATOM      5  C   UNL     1       2.149   5.959  19.685  0.00  0.00    +0.000 C 
ATOM      6  C   UNL     1       1.713   5.107  18.479  0.00  0.00    +0.000 C 
ENDROOT
BRANCH   5   7
ATOM      7  C   UNL     1       2.018   7.441  19.373  0.00  0.00    +0.000 A 
ATOM      8  C   UNL     1       2.476   7.941  18.145  0.00  0.00    +0.000 A 
ATOM      9  C   UNL     1       2.328   9.293  17.827  0.00  0.00    +0.000 A 
ATOM     10  C   UNL     1       1.727  10.167  18.732  0.00  0.00    +0.000 A 
ATOM     11  C   UNL     1       1.244   9.680  19.953  0.00  0.00    +0.000 A 
ATOM     12  C   UNL     1       1.403   8.330  20.273  0.00  0.00    +0.000 A 
BRANCH  10  13
ATOM     13  C   UNL     1       1.569  11.590  18.337  0.00  0.00    +0.000 C 
ATOM     14  O   UNL     1       0.694  12.322  18.785  0.00  0.00    +0.000 OA
BRANCH  13  15
ATOM     15  O   UNL     1       2.453  12.007  17.401  0.00  0.00    +0.000 OA
ATOM     16  H   UNL     1       2.451  11.498  16.572  0.00  0.00    +0.000 HD
ENDBRANCH  13  15
ENDBRANCH  10  13
ENDBRANCH   5   7
BRANCH   1  17
ATOM     17  N   UNL     1       3.244   3.112  18.854  0.00  0.00    +0.000 NA
ATOM     18  H   UNL     1       3.787   3.763  19.422  0.00  0.00    +0.000 HD
BRANCH  17  20
ATOM     19  C   UNL     1       4.394   1.427  17.364  0.00  0.00    +0.000 C 
ATOM     20  C   UNL     1       4.002   2.883  17.608  0.00  0.00    +0.000 C 
BRANCH  20  21
ATOM     21  C   UNL     1       5.234   3.798  17.611  0.00  0.00    +0.000 A 
ATOM     22  C   UNL     1       5.578   4.467  18.802  0.00  0.00    +0.000 A 
ATOM     23  C   UNL     1       6.482   5.523  18.793  0.00  0.00    +0.000 A 
ATOM     24  C   UNL     1       7.017   5.955  17.584  0.00  0.00    +0.000 A 
ATOM     25  C   UNL     1       6.724   5.285  16.386  0.00  0.00    +0.000 A 
ATOM     26  C   UNL     1       7.206   5.773  15.160  0.00  0.00    +0.000 A 
ATOM     27  C   UNL     1       6.964   5.091  13.969  0.00  0.00    +0.000 A 
ATOM     28  C   UNL     1       6.301   3.872  13.996  0.00  0.00    +0.000 A 
ATOM     29  C   UNL     1       5.781   3.396  15.199  0.00  0.00    +0.000 A 
ATOM     30  C   UNL     1       5.907   4.130  16.402  0.00  0.00    +0.000 A 
ENDBRANCH  20  21
ENDBRANCH  17  20
ENDBRANCH   1  17
TORSDOF 6
ENDMDL
MODEL 9
REMARK VINA RESULT:      -8.0      1.269      1.828
REMARK  Name = 
REMARK  7 active torsions:
REMARK  status: ('A' for Active; 'I' for Inactive)
REMARK    1  A    between atoms: C_1  and  C_2
REMARK    2  A    between atoms: C_2  and  N_3
REMARK    3  A    between atoms: C_2  and  C_19
REMARK    4  A    between atoms: N_3  and  C_4
REMARK    5  A    between atoms: C_8  and  C_9
REMARK    6  A    between atoms: C_12  and  C_13
REMARK    7  A    between atoms: C_13  and  O_15
REMARK                            x       y       z     vdW  Elec       q    Type
REMARK                         _______ _______ _______ _____ _____    ______ ____
ROOT
ATOM      1  C   UNL     1       2.216   7.013  20.546  0.00  0.00    +0.000 C 
ATOM      2  C   UNL     1       1.541   5.727  21.073  0.00  0.00    +0.000 C 
ATOM      3  C   UNL     1       0.956   4.843  19.967  0.00  0.00    +0.000 C 
ATOM      4  C   UNL     1       1.986   4.517  18.887  0.00  0.00    +0.000 C 
ATOM      5  C   UNL     1       2.654   5.787  18.333  0.00  0.00    +0.000 C 
ATOM      6  C   UNL     1       3.253   6.624  19.478  0.00  0.00    +0.000 C 
ENDROOT
BRANCH   5   7
ATOM      7  C   UNL     1       3.712   5.469  17.288  0.00  0.00    +0.000 A 
ATOM      8  C   UNL     1       4.432   6.510  16.683  0.00  0.00    +0.000 A 
ATOM      9  C   UNL     1       5.434   6.232  15.749  0.00  0.00    +0.000 A 
ATOM     10  C   UNL     1       5.726   4.915  15.401  0.00  0.00    +0.000 A 
ATOM     11  C   UNL     1       5.033   3.863  16.013  0.00  0.00    +0.000 A 
ATOM     12  C   UNL     1       4.025   4.143  16.938  0.00  0.00    +0.000 A 
BRANCH  10  13
ATOM     13  C   UNL     1       6.818   4.671  14.423  0.00  0.00    +0.000 C 
ATOM     14  O   UNL     1       7.783   5.414  14.291  0.00  0.00    +0.000 OA
BRANCH  13  15
ATOM     15  O   UNL     1       6.637   3.572  13.654  0.00  0.00    +0.000 OA
ATOM     16  H   UNL     1       5.732   3.441  13.323  0.00  0.00    +0.000 HD
ENDBRANCH  13  15
ENDBRANCH  10  13
ENDBRANCH   5   7
BRANCH   1  17
ATOM     17  N   UNL     1       1.173   7.945  20.106  0.00  0.00    +0.000 NA
ATOM     18  H   UNL     1       1.311   8.179  19.122  0.00  0.00    +0.000 HD
BRANCH  17  20
ATOM     19  C   UNL     1       0.577   9.068  22.289  0.00  0.00    +0.000 C 
ATOM     20  C   UNL     1       1.049   9.218  20.844  0.00  0.00    +0.000 C 
BRANCH  20  21
ATOM     21  C   UNL     1       0.126  10.153  20.052  0.00  0.00    +0.000 A 
ATOM     22  C   UNL     1      -0.950   9.595  19.332  0.00  0.00    +0.000 A 
ATOM     23  C   UNL     1      -1.626  10.335  18.370  0.00  0.00    +0.000 A 
ATOM     24  C   UNL     1      -1.205  11.629  18.080  0.00  0.00    +0.000 A 
ATOM     25  C   UNL     1      -0.163  12.226  18.806  0.00  0.00    +0.000 A 
ATOM     26  C   UNL     1       0.307  13.503  18.456  0.00  0.00    +0.000 A 
ATOM     27  C   UNL     1       1.308  14.129  19.199  0.00  0.00    +0.000 A 
ATOM     28  C   UNL     1       1.799  13.518  20.344  0.00  0.00    +0.000 A 
ATOM     29  C   UNL     1       1.371  12.234  20.679  0.00  0.00    +0.000 A 
ATOM     30  C   UNL     1       0.447  11.528  19.874  0.00  0.00    +0.000 A 
ENDBRANCH  20  21
ENDBRANCH  17  20
ENDBRANCH   1  17
TORSDOF 6
ENDMDL
