MODEL 1
REMARK VINA RESULT:      -8.3      0.000      0.000
REMARK  Name = 
REMARK  13 active torsions:
REMARK  status: ('A' for Active; 'I' for Inactive)
REMARK    1  A    between atoms: C_1  and  O_2
REMARK    2  A    between atoms: O_2  and  C_3
REMARK    3  A    between atoms: C_3  and  C_5
REMARK    4  A    between atoms: C_5  and  C_6
REMARK    5  A    between atoms: C_6  and  C_7
REMARK    6  A    between atoms: C_10  and  O_11
REMARK    7  A    between atoms: O_11  and  C_12
REMARK    8  A    between atoms: C_12  and  C_13
REMARK    9  A    between atoms: C_21  and  C_22
REMARK   10  A    between atoms: N_25  and  C_26
REMARK   11  A    between atoms: C_26  and  C_27
REMARK   12  A    between atoms: C_30  and  O_31
REMARK   13  A    between atoms: O_31  and  C_32
REMARK                            x       y       z     vdW  Elec       q    Type
REMARK                         _______ _______ _______ _____ _____    ______ ____
ROOT
ATOM      1  C   UNL     1       2.892   4.634  19.380  0.00  0.00    +0.000 C 
ATOM      2  C   UNL     1       1.661   4.331  18.428  0.00  0.00    +0.000 C 
ATOM      3  C   UNL     1       0.477   3.499  18.884  0.00  0.00    +0.000 C 
ATOM      4  C   UNL     1       2.672   3.511  17.603  0.00  0.00    +0.000 C 
ATOM      5  O   UNL     1       2.655   2.982  16.516  0.00  0.00    +0.000 OA
ATOM      6  N   UNL     1       3.662   3.730  18.495  0.00  0.00    +0.000 N 
ENDROOT
BRANCH   1   7
ATOM      7  C   UNL     1       2.691   4.072  20.860  0.00  0.00    +0.000 C 
ATOM      8  O   UNL     1       2.243   4.713  21.809  0.00  0.00    +0.000 OA
BRANCH   7  10
ATOM      9  C   UNL     1       2.167   1.914  21.668  0.00  0.00    +0.000 C 
ATOM     10  O   UNL     1       3.070   2.762  20.962  0.00  0.00    +0.000 OA
ENDBRANCH   7  10
ENDBRANCH   1   7
BRANCH   1  11
ATOM     11  C   UNL     1       3.417   6.094  19.470  0.00  0.00    +0.000 C 
BRANCH  11  12
ATOM     12  C   UNL     1       2.481   7.280  19.306  0.00  0.00    +0.000 A 
ATOM     13  C   UNL     1       1.708   7.829  20.320  0.00  0.00    +0.000 A 
ATOM     14  C   UNL     1       0.883   8.926  20.125  0.00  0.00    +0.000 A 
ATOM     15  C   UNL     1       0.849   9.567  18.902  0.00  0.00    +0.000 A 
ATOM     16  C   UNL     1       1.573   9.030  17.843  0.00  0.00    +0.000 A 
ATOM     17  C   UNL     1       2.380   7.899  18.042  0.00  0.00    +0.000 A 
BRANCH  15  18
ATOM     18  O   UNL     1       0.156  10.725  18.689  0.00  0.00    +0.000 OA
BRANCH  18  19
ATOM     19  C   UNL     1      -1.178  10.691  19.211  0.00  0.00    +0.000 C 
BRANCH  19  20
ATOM     20  C   UNL     1      -2.148  10.700  18.069  0.00  0.00    +0.000 A 
ATOM     21  C   UNL     1      -1.910   9.918  16.933  0.00  0.00    +0.000 A 
ATOM     22  C   UNL     1      -2.810   9.951  15.872  0.00  0.00    +0.000 A 
ATOM     23  C   UNL     1      -3.943  10.762  15.944  0.00  0.00    +0.000 A 
ATOM     24  C   UNL     1      -4.188  11.540  17.074  0.00  0.00    +0.000 A 
ATOM     25  C   UNL     1      -3.288  11.513  18.135  0.00  0.00    +0.000 A 
ENDBRANCH  19  20
ENDBRANCH  18  19
ENDBRANCH  15  18
ENDBRANCH  11  12
ENDBRANCH   1  11
BRANCH   6  26
ATOM     26  C   UNL     1       5.076   3.480  18.410  0.00  0.00    +0.000 C 
BRANCH  26  27
ATOM     27  C   UNL     1       5.857   4.733  18.088  0.00  0.00    +0.000 A 
ATOM     28  C   UNL     1       5.574   5.474  16.931  0.00  0.00    +0.000 A 
ATOM     29  C   UNL     1       6.313   6.611  16.608  0.00  0.00    +0.000 A 
ATOM     30  C   UNL     1       7.311   7.062  17.463  0.00  0.00    +0.000 A 
ATOM     31  C   UNL     1       7.605   6.340  18.620  0.00  0.00    +0.000 A 
ATOM     32  C   UNL     1       6.884   5.180  18.929  0.00  0.00    +0.000 A 
BRANCH  30  33
ATOM     33  O   UNL     1       7.969   8.190  17.057  0.00  0.00    +0.000 OA
ATOM     34  C   UNL     1       8.253   9.115  18.100  0.00  0.00    +0.000 C 
ENDBRANCH  30  33
ENDBRANCH  26  27
ENDBRANCH   6  26
TORSDOF 10
ENDMDL
MODEL 2
REMARK VINA RESULT:      -8.3      1.092      1.769
REMARK  Name = 
REMARK  13 active torsions:
REMARK  status: ('A' for Active; 'I' for Inactive)
REMARK    1  A    between atoms: C_1  and  O_2
REMARK    2  A    between atoms: O_2  and  C_3
REMARK    3  A    between atoms: C_3  and  C_5
REMARK    4  A    between atoms: C_5  and  C_6
REMARK    5  A    between atoms: C_6  and  C_7
REMARK    6  A    between atoms: C_10  and  O_11
REMARK    7  A    between atoms: O_11  and  C_12
REMARK    8  A    between atoms: C_12  and  C_13
REMARK    9  A    between atoms: C_21  and  C_22
REMARK   10  A    between atoms: N_25  and  C_26
REMARK   11  A    between atoms: C_26  and  C_27
REMARK   12  A    between atoms: C_30  and  O_31
REMARK   13  A    between atoms: O_31  and  C_32
REMARK                            x       y       z     vdW  Elec       q    Type
REMARK                         _______ _______ _______ _____ _____    ______ ____
ROOT
ATOM      1  C   UNL     1       3.731   4.385  18.941  0.00  0.00    +0.000 C 
ATOM      2  C   UNL     1       2.901   4.318  17.592  0.00  0.00    +0.000 C 
ATOM      3  C   UNL     1       1.933   3.187  17.299  0.00  0.00    +0.000 C 
ATOM      4  C   UNL     1       4.271   4.108  16.915  0.00  0.00    +0.000 C 
ATOM      5  O   UNL     1       4.664   4.098  15.773  0.00  0.00    +0.000 OA
ATOM      6  N   UNL     1       4.916   4.087  18.103  0.00  0.00    +0.000 N 
ENDROOT
BRANCH   1   7
ATOM      7  C   UNL     1       3.355   3.222  19.965  0.00  0.00    +0.000 C 
ATOM      8  O   UNL     1       3.773   2.067  19.913  0.00  0.00    +0.000 OA
BRANCH   7  10
ATOM      9  C   UNL     1       1.212   3.052  20.947  0.00  0.00    +0.000 C 
ATOM     10  O   UNL     1       2.503   3.659  20.941  0.00  0.00    +0.000 OA
ENDBRANCH   7  10
ENDBRANCH   1   7
BRANCH   1  11
ATOM     11  C   UNL     1       3.779   5.733  19.714  0.00  0.00    +0.000 C 
BRANCH  11  12
ATOM     12  C   UNL     1       3.005   6.948  19.229  0.00  0.00    +0.000 A 
ATOM     13  C   UNL     1       3.146   7.534  17.978  0.00  0.00    +0.000 A 
ATOM     14  C   UNL     1       2.402   8.631  17.575  0.00  0.00    +0.000 A 
ATOM     15  C   UNL     1       1.423   9.154  18.398  0.00  0.00    +0.000 A 
ATOM     16  C   UNL     1       1.272   8.629  19.678  0.00  0.00    +0.000 A 
ATOM     17  C   UNL     1       2.055   7.539  20.089  0.00  0.00    +0.000 A 
BRANCH  15  18
ATOM     18  O   UNL     1       0.574  10.149  18.005  0.00  0.00    +0.000 OA
BRANCH  18  19
ATOM     19  C   UNL     1      -0.527  10.342  18.901  0.00  0.00    +0.000 C 
BRANCH  19  20
ATOM     20  C   UNL     1      -1.779  10.530  18.099  0.00  0.00    +0.000 A 
ATOM     21  C   UNL     1      -2.799  11.367  18.565  0.00  0.00    +0.000 A 
ATOM     22  C   UNL     1      -3.964  11.517  17.819  0.00  0.00    +0.000 A 
ATOM     23  C   UNL     1      -4.111  10.834  16.612  0.00  0.00    +0.000 A 
ATOM     24  C   UNL     1      -3.097  10.002  16.139  0.00  0.00    +0.000 A 
ATOM     25  C   UNL     1      -1.933   9.846  16.885  0.00  0.00    +0.000 A 
ENDBRANCH  19  20
ENDBRANCH  18  19
ENDBRANCH  15  18
ENDBRANCH  11  12
ENDBRANCH   1  11
BRANCH   6  26
ATOM     26  C   UNL     1       6.320   4.135  18.410  0.00  0.00    +0.000 C 
BRANCH  26  27
ATOM     27  C   UNL     1       6.885   5.531  18.274  0.00  0.00    +0.000 A 
ATOM     28  C   UNL     1       6.379   6.415  17.310  0.00  0.00    +0.000 A 
ATOM     29  C   UNL     1       6.917   7.691  17.154  0.00  0.00    +0.000 A 
ATOM     30  C   UNL     1       7.933   8.129  17.996  0.00  0.00    +0.000 A 
ATOM     31  C   UNL     1       8.446   7.264  18.963  0.00  0.00    +0.000 A 
ATOM     32  C   UNL     1       7.927   5.971  19.099  0.00  0.00    +0.000 A 
BRANCH  30  33
ATOM     33  O   UNL     1       8.383   9.399  17.763  0.00  0.00    +0.000 OA
ATOM     34  C   UNL     1       8.916  10.055  18.908  0.00  0.00    +0.000 C 
ENDBRANCH  30  33
ENDBRANCH  26  27
ENDBRANCH   6  26
TORSDOF 10
ENDMDL
MODEL 3
REMARK VINA RESULT:      -8.1      0.824      1.549
REMARK  Name = 
REMARK  13 active torsions:
REMARK  status: ('A' for Active; 'I' for Inactive)
REMARK    1  A    between atoms: C_1  and  O_2
REMARK    2  A    between atoms: O_2  and  C_3
REMARK    3  A    between atoms: C_3  and  C_5
REMARK    4  A    between atoms: C_5  and  C_6
REMARK    5  A    between atoms: C_6  and  C_7
REMARK    6  A    between atoms: C_10  and  O_11
REMARK    7  A    between atoms: O_11  and  C_12
REMARK    8  A    between atoms: C_12  and  C_13
REMARK    9  A    between atoms: C_21  and  C_22
REMARK   10  A    between atoms: N_25  and  C_26
REMARK   11  A    between atoms: C_26  and  C_27
REMARK   12  A    between atoms: C_30  and  O_31
REMARK   13  A    between atoms: O_31  and  C_32
REMARK                            x       y       z     vdW  Elec       q    Type
REMARK                         _______ _______ _______ _____ _____    ______ ____
ROOT
ATOM      1  C   UNL     1       2.988   4.133  19.390  0.00  0.00    +0.000 C 
ATOM      2  C   UNL     1       1.607   4.033  18.619  0.00  0.00    +0.000 C 
ATOM      3  C   UNL     1       0.522   3.058  19.036  0.00  0.00    +0.000 C 
ATOM      4  C   UNL     1       2.453   3.503  17.444  0.00  0.00    +0.000 C 
ATOM      5  O   UNL     1       2.241   3.275  16.277  0.00  0.00    +0.000 OA
ATOM      6  N   UNL     1       3.587   3.527  18.178  0.00  0.00    +0.000 N 
ENDROOT
BRANCH   1   7
ATOM      7  C   UNL     1       3.054   3.197  20.680  0.00  0.00    +0.000 C 
ATOM      8  O   UNL     1       3.743   2.185  20.789  0.00  0.00    +0.000 OA
BRANCH   7  10
ATOM      9  C   UNL     1       1.245   2.747  22.133  0.00  0.00    +0.000 C 
ATOM     10  O   UNL     1       2.247   3.657  21.684  0.00  0.00    +0.000 OA
ENDBRANCH   7  10
ENDBRANCH   1   7
BRANCH   1  11
ATOM     11  C   UNL     1       3.525   5.542  19.770  0.00  0.00    +0.000 C 
BRANCH  11  12
ATOM     12  C   UNL     1       2.773   6.804  19.378  0.00  0.00    +0.000 A 
ATOM     13  C   UNL     1       2.808   7.393  18.122  0.00  0.00    +0.000 A 
ATOM     14  C   UNL     1       2.088   8.534  17.808  0.00  0.00    +0.000 A 
ATOM     15  C   UNL     1       1.237   9.103  18.736  0.00  0.00    +0.000 A 
ATOM     16  C   UNL     1       1.199   8.575  20.023  0.00  0.00    +0.000 A 
ATOM     17  C   UNL     1       1.959   7.438  20.341  0.00  0.00    +0.000 A 
BRANCH  15  18
ATOM     18  O   UNL     1       0.408  10.148  18.443  0.00  0.00    +0.000 OA
BRANCH  18  19
ATOM     19  C   UNL     1      -0.761   9.757  17.713  0.00  0.00    +0.000 C 
BRANCH  19  20
ATOM     20  C   UNL     1      -1.931  10.552  18.207  0.00  0.00    +0.000 A 
ATOM     21  C   UNL     1      -3.202  10.358  17.657  0.00  0.00    +0.000 A 
ATOM     22  C   UNL     1      -4.275  11.117  18.112  0.00  0.00    +0.000 A 
ATOM     23  C   UNL     1      -4.081  12.069  19.113  0.00  0.00    +0.000 A 
ATOM     24  C   UNL     1      -2.817  12.265  19.669  0.00  0.00    +0.000 A 
ATOM     25  C   UNL     1      -1.741  11.511  19.213  0.00  0.00    +0.000 A 
ENDBRANCH  19  20
ENDBRANCH  18  19
ENDBRANCH  15  18
ENDBRANCH  11  12
ENDBRANCH   1  11
BRANCH   6  26
ATOM     26  C   UNL     1       4.962   3.372  17.787  0.00  0.00    +0.000 C 
BRANCH  26  27
ATOM     27  C   UNL     1       5.668   4.701  17.649  0.00  0.00    +0.000 A 
ATOM     28  C   UNL     1       5.323   5.589  16.619  0.00  0.00    +0.000 A 
ATOM     29  C   UNL     1       5.992   6.802  16.463  0.00  0.00    +0.000 A 
ATOM     30  C   UNL     1       6.981   7.176  17.366  0.00  0.00    +0.000 A 
ATOM     31  C   UNL     1       7.335   6.307  18.398  0.00  0.00    +0.000 A 
ATOM     32  C   UNL     1       6.685   5.075  18.536  0.00  0.00    +0.000 A 
BRANCH  30  33
ATOM     33  O   UNL     1       7.568   8.387  17.126  0.00  0.00    +0.000 OA
ATOM     34  C   UNL     1       8.397   8.860  18.182  0.00  0.00    +0.000 C 
ENDBRANCH  30  33
ENDBRANCH  26  27
ENDBRANCH   6  26
TORSDOF 10
ENDMDL
MODEL 4
REMARK VINA RESULT:      -7.9      1.375      2.013
REMARK  Name = 
REMARK  13 active torsions:
REMARK  status: ('A' for Active; 'I' for Inactive)
REMARK    1  A    between atoms: C_1  and  O_2
REMARK    2  A    between atoms: O_2  and  C_3
REMARK    3  A    between atoms: C_3  and  C_5
REMARK    4  A    between atoms: C_5  and  C_6
REMARK    5  A    between atoms: C_6  and  C_7
REMARK    6  A    between atoms: C_10  and  O_11
REMARK    7  A    between atoms: O_11  and  C_12
REMARK    8  A    between atoms: C_12  and  C_13
REMARK    9  A    between atoms: C_21  and  C_22
REMARK   10  A    between atoms: N_25  and  C_26
REMARK   11  A    between atoms: C_26  and  C_27
REMARK   12  A    between atoms: C_30  and  O_31
REMARK   13  A    between atoms: O_31  and  C_32
REMARK                            x       y       z     vdW  Elec       q    Type
REMARK                         _______ _______ _______ _____ _____    ______ ____
ROOT
ATOM      1  C   UNL     1       4.278   4.391  18.653  0.00  0.00    +0.000 C 
ATOM      2  C   UNL     1       3.321   4.201  17.404  0.00  0.00    +0.000 C 
ATOM      3  C   UNL     1       2.389   3.010  17.278  0.00  0.00    +0.000 C 
ATOM      4  C   UNL     1       4.625   4.013  16.602  0.00  0.00    +0.000 C 
ATOM      5  O   UNL     1       4.901   3.951  15.428  0.00  0.00    +0.000 OA
ATOM      6  N   UNL     1       5.386   4.096  17.716  0.00  0.00    +0.000 N 
ENDROOT
BRANCH   1   7
ATOM      7  C   UNL     1       4.069   3.276  19.776  0.00  0.00    +0.000 C 
ATOM      8  O   UNL     1       4.716   2.235  19.872  0.00  0.00    +0.000 OA
BRANCH   7  10
ATOM      9  C   UNL     1       2.445   2.525  21.320  0.00  0.00    +0.000 C 
ATOM     10  O   UNL     1       3.073   3.616  20.650  0.00  0.00    +0.000 OA
ENDBRANCH   7  10
ENDBRANCH   1   7
BRANCH   1  11
ATOM     11  C   UNL     1       4.332   5.785  19.340  0.00  0.00    +0.000 C 
BRANCH  11  12
ATOM     12  C   UNL     1       3.282   6.845  19.053  0.00  0.00    +0.000 A 
ATOM     13  C   UNL     1       2.264   7.213  19.924  0.00  0.00    +0.000 A 
ATOM     14  C   UNL     1       1.341   8.202  19.624  0.00  0.00    +0.000 A 
ATOM     15  C   UNL     1       1.441   8.920  18.448  0.00  0.00    +0.000 A 
ATOM     16  C   UNL     1       2.417   8.561  17.524  0.00  0.00    +0.000 A 
ATOM     17  C   UNL     1       3.327   7.535  17.823  0.00  0.00    +0.000 A 
BRANCH  15  18
ATOM     18  O   UNL     1       0.641   9.988  18.159  0.00  0.00    +0.000 OA
BRANCH  18  19
ATOM     19  C   UNL     1       0.217  10.710  19.321  0.00  0.00    +0.000 C 
BRANCH  19  20
ATOM     20  C   UNL     1      -1.212  11.123  19.143  0.00  0.00    +0.000 A 
ATOM     21  C   UNL     1      -1.783  12.082  19.987  0.00  0.00    +0.000 A 
ATOM     22  C   UNL     1      -3.116  12.441  19.822  0.00  0.00    +0.000 A 
ATOM     23  C   UNL     1      -3.880  11.846  18.818  0.00  0.00    +0.000 A 
ATOM     24  C   UNL     1      -3.316  10.892  17.970  0.00  0.00    +0.000 A 
ATOM     25  C   UNL     1      -1.985  10.527  18.136  0.00  0.00    +0.000 A 
ENDBRANCH  19  20
ENDBRANCH  18  19
ENDBRANCH  15  18
ENDBRANCH  11  12
ENDBRANCH   1  11
BRANCH   6  26
ATOM     26  C   UNL     1       6.809   4.229  17.873  0.00  0.00    +0.000 C 
BRANCH  26  27
ATOM     27  C   UNL     1       7.240   5.676  17.956  0.00  0.00    +0.000 A 
ATOM     28  C   UNL     1       6.889   6.585  16.947  0.00  0.00    +0.000 A 
ATOM     29  C   UNL     1       7.311   7.912  16.998  0.00  0.00    +0.000 A 
ATOM     30  C   UNL     1       8.045   8.371  18.087  0.00  0.00    +0.000 A 
ATOM     31  C   UNL     1       8.401   7.481  19.101  0.00  0.00    +0.000 A 
ATOM     32  C   UNL     1       8.004   6.140  19.034  0.00  0.00    +0.000 A 
BRANCH  30  33
ATOM     33  O   UNL     1       8.402   9.690  18.042  0.00  0.00    +0.000 OA
ATOM     34  C   UNL     1       9.263  10.104  19.096  0.00  0.00    +0.000 C 
ENDBRANCH  30  33
ENDBRANCH  26  27
ENDBRANCH   6  26
TORSDOF 10
ENDMDL
MODEL 5
REMARK VINA RESULT:      -7.9      0.965      1.564
REMARK  Name = 
REMARK  13 active torsions:
REMARK  status: ('A' for Active; 'I' for Inactive)
REMARK    1  A    between atoms: C_1  and  O_2
REMARK    2  A    between atoms: O_2  and  C_3
REMARK    3  A    between atoms: C_3  and  C_5
REMARK    4  A    between atoms: C_5  and  C_6
REMARK    5  A    between atoms: C_6  and  C_7
REMARK    6  A    between atoms: C_10  and  O_11
REMARK    7  A    between atoms: O_11  and  C_12
REMARK    8  A    between atoms: C_12  and  C_13
REMARK    9  A    between atoms: C_21  and  C_22
REMARK   10  A    between atoms: N_25  and  C_26
REMARK   11  A    between atoms: C_26  and  C_27
REMARK   12  A    between atoms: C_30  and  O_31
REMARK   13  A    between atoms: O_31  and  C_32
REMARK                            x       y       z     vdW  Elec       q    Type
REMARK                         _______ _______ _______ _____ _____    ______ ____
ROOT
ATOM      1  C   UNL     1       3.116   4.003  19.299  0.00  0.00    +0.000 C 
ATOM      2  C   UNL     1       1.650   3.924  18.701  0.00  0.00    +0.000 C 
ATOM      3  C   UNL     1       0.637   2.904  19.187  0.00  0.00    +0.000 C 
ATOM      4  C   UNL     1       2.347   3.485  17.399  0.00  0.00    +0.000 C 
ATOM      5  O   UNL     1       1.993   3.326  16.254  0.00  0.00    +0.000 OA
ATOM      6  N   UNL     1       3.565   3.485  17.985  0.00  0.00    +0.000 N 
ENDROOT
BRANCH   1   7
ATOM      7  C   UNL     1       3.354   2.989  20.508  0.00  0.00    +0.000 C 
ATOM      8  O   UNL     1       2.726   2.984  21.564  0.00  0.00    +0.000 OA
BRANCH   7  10
ATOM      9  C   UNL     1       4.849   1.365  21.352  0.00  0.00    +0.000 C 
ATOM     10  O   UNL     1       4.351   2.095  20.232  0.00  0.00    +0.000 OA
ENDBRANCH   7  10
ENDBRANCH   1   7
BRANCH   1  11
ATOM     11  C   UNL     1       3.680   5.395  19.699  0.00  0.00    +0.000 C 
BRANCH  11  12
ATOM     12  C   UNL     1       2.797   6.632  19.699  0.00  0.00    +0.000 A 
ATOM     13  C   UNL     1       2.650   7.505  18.630  0.00  0.00    +0.000 A 
ATOM     14  C   UNL     1       1.815   8.611  18.672  0.00  0.00    +0.000 A 
ATOM     15  C   UNL     1       1.032   8.854  19.784  0.00  0.00    +0.000 A 
ATOM     16  C   UNL     1       1.175   8.033  20.898  0.00  0.00    +0.000 A 
ATOM     17  C   UNL     1       2.048   6.935  20.857  0.00  0.00    +0.000 A 
BRANCH  15  18
ATOM     18  O   UNL     1       0.100   9.851  19.833  0.00  0.00    +0.000 OA
BRANCH  18  19
ATOM     19  C   UNL     1       0.056  10.645  18.641  0.00  0.00    +0.000 C 
BRANCH  19  20
ATOM     20  C   UNL     1      -1.353  10.680  18.132  0.00  0.00    +0.000 A 
ATOM     21  C   UNL     1      -1.755   9.822  17.102  0.00  0.00    +0.000 A 
ATOM     22  C   UNL     1      -3.061   9.879  16.626  0.00  0.00    +0.000 A 
ATOM     23  C   UNL     1      -3.964  10.789  17.176  0.00  0.00    +0.000 A 
ATOM     24  C   UNL     1      -3.571  11.644  18.205  0.00  0.00    +0.000 A 
ATOM     25  C   UNL     1      -2.265  11.593  18.680  0.00  0.00    +0.000 A 
ENDBRANCH  19  20
ENDBRANCH  18  19
ENDBRANCH  15  18
ENDBRANCH  11  12
ENDBRANCH   1  11
BRANCH   6  26
ATOM     26  C   UNL     1       4.882   3.381  17.416  0.00  0.00    +0.000 C 
BRANCH  26  27
ATOM     27  C   UNL     1       5.570   4.724  17.327  0.00  0.00    +0.000 A 
ATOM     28  C   UNL     1       6.752   4.970  18.041  0.00  0.00    +0.000 A 
ATOM     29  C   UNL     1       7.374   6.216  17.992  0.00  0.00    +0.000 A 
ATOM     30  C   UNL     1       6.860   7.223  17.183  0.00  0.00    +0.000 A 
ATOM     31  C   UNL     1       5.686   6.996  16.463  0.00  0.00    +0.000 A 
ATOM     32  C   UNL     1       5.043   5.754  16.537  0.00  0.00    +0.000 A 
BRANCH  30  33
ATOM     33  O   UNL     1       7.550   8.403  17.201  0.00  0.00    +0.000 OA
ATOM     34  C   UNL     1       8.411   8.566  18.321  0.00  0.00    +0.000 C 
ENDBRANCH  30  33
ENDBRANCH  26  27
ENDBRANCH   6  26
TORSDOF 10
ENDMDL
MODEL 6
REMARK VINA RESULT:      -7.9      0.947      1.619
REMARK  Name = 
REMARK  13 active torsions:
REMARK  status: ('A' for Active; 'I' for Inactive)
REMARK    1  A    between atoms: C_1  and  O_2
REMARK    2  A    between atoms: O_2  and  C_3
REMARK    3  A    between atoms: C_3  and  C_5
REMARK    4  A    between atoms: C_5  and  C_6
REMARK    5  A    between atoms: C_6  and  C_7
REMARK    6  A    between atoms: C_10  and  O_11
REMARK    7  A    between atoms: O_11  and  C_12
REMARK    8  A    between atoms: C_12  and  C_13
REMARK    9  A    between atoms: C_21  and  C_22
REMARK   10  A    between atoms: N_25  and  C_26
REMARK   11  A    between atoms: C_26  and  C_27
REMARK   12  A    between atoms: C_30  and  O_31
REMARK   13  A    between atoms: O_31  and  C_32
REMARK                            x       y       z     vdW  Elec       q    Type
REMARK                         _______ _______ _______ _____ _____    ______ ____
ROOT
ATOM      1  C   UNL     1       3.436   4.597  19.092  0.00  0.00    +0.000 C 
ATOM      2  C   UNL     1       2.447   4.539  17.856  0.00  0.00    +0.000 C 
ATOM      3  C   UNL     1       1.366   3.480  17.739  0.00  0.00    +0.000 C 
ATOM      4  C   UNL     1       3.704   4.188  17.035  0.00  0.00    +0.000 C 
ATOM      5  O   UNL     1       3.954   4.096  15.857  0.00  0.00    +0.000 OA
ATOM      6  N   UNL     1       4.484   4.165  18.138  0.00  0.00    +0.000 N 
ENDROOT
BRANCH   1   7
ATOM      7  C   UNL     1       3.099   3.513  20.214  0.00  0.00    +0.000 C 
ATOM      8  O   UNL     1       3.752   2.496  20.438  0.00  0.00    +0.000 OA
BRANCH   7  10
ATOM      9  C   UNL     1       1.368   2.785  21.648  0.00  0.00    +0.000 C 
ATOM     10  O   UNL     1       1.982   3.851  20.927  0.00  0.00    +0.000 OA
ENDBRANCH   7  10
ENDBRANCH   1   7
BRANCH   1  11
ATOM     11  C   UNL     1       3.681   5.968  19.782  0.00  0.00    +0.000 C 
BRANCH  11  12
ATOM     12  C   UNL     1       2.653   7.085  19.703  0.00  0.00    +0.000 A 
ATOM     13  C   UNL     1       2.435   7.888  18.591  0.00  0.00    +0.000 A 
ATOM     14  C   UNL     1       1.470   8.882  18.561  0.00  0.00    +0.000 A 
ATOM     15  C   UNL     1       0.626   9.072  19.639  0.00  0.00    +0.000 A 
ATOM     16  C   UNL     1       0.832   8.321  20.792  0.00  0.00    +0.000 A 
ATOM     17  C   UNL     1       1.834   7.339  20.824  0.00  0.00    +0.000 A 
BRANCH  15  18
ATOM     18  O   UNL     1      -0.423   9.946  19.616  0.00  0.00    +0.000 OA
BRANCH  18  19
ATOM     19  C   UNL     1      -0.425  10.800  18.466  0.00  0.00    +0.000 C 
BRANCH  19  20
ATOM     20  C   UNL     1      -1.810  10.846  17.897  0.00  0.00    +0.000 A 
ATOM     21  C   UNL     1      -2.121  10.137  16.732  0.00  0.00    +0.000 A 
ATOM     22  C   UNL     1      -3.407  10.205  16.205  0.00  0.00    +0.000 A 
ATOM     23  C   UNL     1      -4.380  10.978  16.838  0.00  0.00    +0.000 A 
ATOM     24  C   UNL     1      -4.078  11.684  18.002  0.00  0.00    +0.000 A 
ATOM     25  C   UNL     1      -2.793  11.623  18.529  0.00  0.00    +0.000 A 
ENDBRANCH  19  20
ENDBRANCH  18  19
ENDBRANCH  15  18
ENDBRANCH  11  12
ENDBRANCH   1  11
BRANCH   6  26
ATOM     26  C   UNL     1       5.915   4.111  18.276  0.00  0.00    +0.000 C 
BRANCH  26  27
ATOM     27  C   UNL     1       6.555   5.471  18.109  0.00  0.00    +0.000 A 
ATOM     28  C   UNL     1       7.670   5.835  18.877  0.00  0.00    +0.000 A 
ATOM     29  C   UNL     1       8.244   7.098  18.756  0.00  0.00    +0.000 A 
ATOM     30  C   UNL     1       7.751   8.003  17.822  0.00  0.00    +0.000 A 
ATOM     31  C   UNL     1       6.644   7.658  17.047  0.00  0.00    +0.000 A 
ATOM     32  C   UNL     1       6.047   6.399  17.192  0.00  0.00    +0.000 A 
BRANCH  30  33
ATOM     33  O   UNL     1       8.391   9.211  17.778  0.00  0.00    +0.000 OA
ATOM     34  C   UNL     1       8.946   9.630  19.019  0.00  0.00    +0.000 C 
ENDBRANCH  30  33
ENDBRANCH  26  27
ENDBRANCH   6  26
TORSDOF 10
ENDMDL
MODEL 7
REMARK VINA RESULT:      -7.8      1.249      1.866
REMARK  Name = 
REMARK  13 active torsions:
REMARK  status: ('A' for Active; 'I' for Inactive)
REMARK    1  A    between atoms: C_1  and  O_2
REMARK    2  A    between atoms: O_2  and  C_3
REMARK    3  A    between atoms: C_3  and  C_5
REMARK    4  A    between atoms: C_5  and  C_6
REMARK    5  A    between atoms: C_6  and  C_7
REMARK    6  A    between atoms: C_10  and  O_11
REMARK    7  A    between atoms: O_11  and  C_12
REMARK    8  A    between atoms: C_12  and  C_13
REMARK    9  A    between atoms: C_21  and  C_22
REMARK   10  A    between atoms: N_25  and  C_26
REMARK   11  A    between atoms: C_26  and  C_27
REMARK   12  A    between atoms: C_30  and  O_31
REMARK   13  A    between atoms: O_31  and  C_32
REMARK                            x       y       z     vdW  Elec       q    Type
REMARK                         _______ _______ _______ _____ _____    ______ ____
ROOT
ATOM      1  C   UNL     1       4.120   4.394  18.728  0.00  0.00    +0.000 C 
ATOM      2  C   UNL     1       3.178   4.324  17.455  0.00  0.00    +0.000 C 
ATOM      3  C   UNL     1       2.244   3.154  17.209  0.00  0.00    +0.000 C 
ATOM      4  C   UNL     1       4.490   4.207  16.654  0.00  0.00    +0.000 C 
ATOM      5  O   UNL     1       4.780   4.253  15.482  0.00  0.00    +0.000 OA
ATOM      6  N   UNL     1       5.239   4.183  17.779  0.00  0.00    +0.000 N 
ENDROOT
BRANCH   1   7
ATOM      7  C   UNL     1       3.895   3.181  19.740  0.00  0.00    +0.000 C 
ATOM      8  O   UNL     1       4.714   2.296  19.981  0.00  0.00    +0.000 OA
BRANCH   7  10
ATOM      9  C   UNL     1       2.575   2.622  21.618  0.00  0.00    +0.000 C 
ATOM     10  O   UNL     1       2.666   3.238  20.335  0.00  0.00    +0.000 OA
ENDBRANCH   7  10
ENDBRANCH   1   7
BRANCH   1  11
ATOM     11  C   UNL     1       4.171   5.718  19.541  0.00  0.00    +0.000 C 
BRANCH  11  12
ATOM     12  C   UNL     1       3.071   6.760  19.418  0.00  0.00    +0.000 A 
ATOM     13  C   UNL     1       2.144   7.059  20.407  0.00  0.00    +0.000 A 
ATOM     14  C   UNL     1       1.171   8.034  20.254  0.00  0.00    +0.000 A 
ATOM     15  C   UNL     1       1.128   8.807  19.110  0.00  0.00    +0.000 A 
ATOM     16  C   UNL     1       2.009   8.518  18.073  0.00  0.00    +0.000 A 
ATOM     17  C   UNL     1       2.969   7.506  18.224  0.00  0.00    +0.000 A 
BRANCH  15  18
ATOM     18  O   UNL     1       0.277   9.864  18.958  0.00  0.00    +0.000 OA
BRANCH  18  19
ATOM     19  C   UNL     1      -0.271   9.965  17.639  0.00  0.00    +0.000 C 
BRANCH  19  20
ATOM     20  C   UNL     1      -1.667  10.504  17.732  0.00  0.00    +0.000 A 
ATOM     21  C   UNL     1      -2.603  10.222  16.732  0.00  0.00    +0.000 A 
ATOM     22  C   UNL     1      -3.889  10.745  16.823  0.00  0.00    +0.000 A 
ATOM     23  C   UNL     1      -4.240  11.549  17.908  0.00  0.00    +0.000 A 
ATOM     24  C   UNL     1      -3.312  11.831  18.910  0.00  0.00    +0.000 A 
ATOM     25  C   UNL     1      -2.025  11.313  18.821  0.00  0.00    +0.000 A 
ENDBRANCH  19  20
ENDBRANCH  18  19
ENDBRANCH  15  18
ENDBRANCH  11  12
ENDBRANCH   1  11
BRANCH   6  26
ATOM     26  C   UNL     1       6.661   4.296  17.964  0.00  0.00    +0.000 C 
BRANCH  26  27
ATOM     27  C   UNL     1       7.124   5.735  17.951  0.00  0.00    +0.000 A 
ATOM     28  C   UNL     1       8.049   6.196  18.899  0.00  0.00    +0.000 A 
ATOM     29  C   UNL     1       8.456   7.528  18.917  0.00  0.00    +0.000 A 
ATOM     30  C   UNL     1       7.990   8.414  17.952  0.00  0.00    +0.000 A 
ATOM     31  C   UNL     1       7.071   7.973  16.999  0.00  0.00    +0.000 A 
ATOM     32  C   UNL     1       6.638   6.641  17.001  0.00  0.00    +0.000 A 
BRANCH  30  33
ATOM     33  O   UNL     1       8.456   9.695  18.054  0.00  0.00    +0.000 OA
ATOM     34  C   UNL     1       9.150   9.976  19.264  0.00  0.00    +0.000 C 
ENDBRANCH  30  33
ENDBRANCH  26  27
ENDBRANCH   6  26
TORSDOF 10
ENDMDL
MODEL 8
REMARK VINA RESULT:      -7.8      1.220      2.002
REMARK  Name = 
REMARK  13 active torsions:
REMARK  status: ('A' for Active; 'I' for Inactive)
REMARK    1  A    between atoms: C_1  and  O_2
REMARK    2  A    between atoms: O_2  and  C_3
REMARK    3  A    between atoms: C_3  and  C_5
REMARK    4  A    between atoms: C_5  and  C_6
REMARK    5  A    between atoms: C_6  and  C_7
REMARK    6  A    between atoms: C_10  and  O_11
REMARK    7  A    between atoms: O_11  and  C_12
REMARK    8  A    between atoms: C_12  and  C_13
REMARK    9  A    between atoms: C_21  and  C_22
REMARK   10  A    between atoms: N_25  and  C_26
REMARK   11  A    between atoms: C_26  and  C_27
REMARK   12  A    between atoms: C_30  and  O_31
REMARK   13  A    between atoms: O_31  and  C_32
REMARK                            x       y       z     vdW  Elec       q    Type
REMARK                         _______ _______ _______ _____ _____    ______ ____
ROOT
ATOM      1  C   UNL     1       3.651   4.491  18.957  0.00  0.00    +0.000 C 
ATOM      2  C   UNL     1       2.721   4.397  17.677  0.00  0.00    +0.000 C 
ATOM      3  C   UNL     1       1.670   3.313  17.525  0.00  0.00    +0.000 C 
ATOM      4  C   UNL     1       4.022   4.062  16.920  0.00  0.00    +0.000 C 
ATOM      5  O   UNL     1       4.328   3.961  15.755  0.00  0.00    +0.000 OA
ATOM      6  N   UNL     1       4.751   4.071  18.057  0.00  0.00    +0.000 N 
ENDROOT
BRANCH   1   7
ATOM      7  C   UNL     1       3.285   3.415  20.076  0.00  0.00    +0.000 C 
ATOM      8  O   UNL     1       3.915   2.384  20.303  0.00  0.00    +0.000 OA
BRANCH   7  10
ATOM      9  C   UNL     1       1.655   2.782  21.666  0.00  0.00    +0.000 C 
ATOM     10  O   UNL     1       2.173   3.776  20.784  0.00  0.00    +0.000 OA
ENDBRANCH   7  10
ENDBRANCH   1   7
BRANCH   1  11
ATOM     11  C   UNL     1       3.835   5.876  19.639  0.00  0.00    +0.000 C 
BRANCH  11  12
ATOM     12  C   UNL     1       2.982   7.070  19.240  0.00  0.00    +0.000 A 
ATOM     13  C   UNL     1       3.043   7.717  18.014  0.00  0.00    +0.000 A 
ATOM     14  C   UNL     1       2.229   8.791  17.691  0.00  0.00    +0.000 A 
ATOM     15  C   UNL     1       1.259   9.225  18.574  0.00  0.00    +0.000 A 
ATOM     16  C   UNL     1       1.187   8.637  19.832  0.00  0.00    +0.000 A 
ATOM     17  C   UNL     1       2.039   7.571  20.162  0.00  0.00    +0.000 A 
BRANCH  15  18
ATOM     18  O   UNL     1       0.346  10.191  18.260  0.00  0.00    +0.000 OA
BRANCH  18  19
ATOM     19  C   UNL     1       0.143  11.142  19.312  0.00  0.00    +0.000 C 
BRANCH  19  20
ATOM     20  C   UNL     1      -1.303  11.536  19.338  0.00  0.00    +0.000 A 
ATOM     21  C   UNL     1      -1.798  12.347  20.365  0.00  0.00    +0.000 A 
ATOM     22  C   UNL     1      -3.146  12.688  20.387  0.00  0.00    +0.000 A 
ATOM     23  C   UNL     1      -3.999  12.222  19.386  0.00  0.00    +0.000 A 
ATOM     24  C   UNL     1      -3.512  11.418  18.357  0.00  0.00    +0.000 A 
ATOM     25  C   UNL     1      -2.166  11.070  18.335  0.00  0.00    +0.000 A 
ENDBRANCH  19  20
ENDBRANCH  18  19
ENDBRANCH  15  18
ENDBRANCH  11  12
ENDBRANCH   1  11
BRANCH   6  26
ATOM     26  C   UNL     1       6.174   4.049  18.261  0.00  0.00    +0.000 C 
BRANCH  26  27
ATOM     27  C   UNL     1       6.783   5.430  18.175  0.00  0.00    +0.000 A 
ATOM     28  C   UNL     1       6.378   6.328  17.177  0.00  0.00    +0.000 A 
ATOM     29  C   UNL     1       6.958   7.590  17.068  0.00  0.00    +0.000 A 
ATOM     30  C   UNL     1       7.914   8.002  17.991  0.00  0.00    +0.000 A 
ATOM     31  C   UNL     1       8.327   7.123  18.993  0.00  0.00    +0.000 A 
ATOM     32  C   UNL     1       7.766   5.843  19.083  0.00  0.00    +0.000 A 
BRANCH  30  33
ATOM     33  O   UNL     1       8.413   9.260  17.799  0.00  0.00    +0.000 OA
ATOM     34  C   UNL     1       9.095   9.802  18.924  0.00  0.00    +0.000 C 
ENDBRANCH  30  33
ENDBRANCH  26  27
ENDBRANCH   6  26
TORSDOF 10
ENDMDL
MODEL 9
REMARK VINA RESULT:      -7.7      1.015      1.644
REMARK  Name = 
REMARK  13 active torsions:
REMARK  status: ('A' for Active; 'I' for Inactive)
REMARK    1  A    between atoms: C_1  and  O_2
REMARK    2  A    between atoms: O_2  and  C_3
REMARK    3  A    between atoms: C_3  and  C_5
REMARK    4  A    between atoms: C_5  and  C_6
REMARK    5  A    between atoms: C_6  and  C_7
REMARK    6  A    between atoms: C_10  and  O_11
REMARK    7  A    between atoms: O_11  and  C_12
REMARK    8  A    between atoms: C_12  and  C_13
REMARK    9  A    between atoms: C_21  and  C_22
REMARK   10  A    between atoms: N_25  and  C_26
REMARK   11  A    between atoms: C_26  and  C_27
REMARK   12  A    between atoms: C_30  and  O_31
REMARK   13  A    between atoms: O_31  and  C_32
REMARK                            x       y       z     vdW  Elec       q    Type
REMARK                         _______ _______ _______ _____ _____    ______ ____
ROOT
ATOM      1  C   UNL     1       3.269   3.935  19.336  0.00  0.00    +0.000 C 
ATOM      2  C   UNL     1       1.785   3.824  18.790  0.00  0.00    +0.000 C 
ATOM      3  C   UNL     1       0.807   2.793  19.322  0.00  0.00    +0.000 C 
ATOM      4  C   UNL     1       2.445   3.381  17.470  0.00  0.00    +0.000 C 
ATOM      5  O   UNL     1       2.055   3.203  16.340  0.00  0.00    +0.000 OA
ATOM      6  N   UNL     1       3.681   3.410  18.014  0.00  0.00    +0.000 N 
ENDROOT
BRANCH   1   7
ATOM      7  C   UNL     1       3.566   2.941  20.548  0.00  0.00    +0.000 C 
ATOM      8  O   UNL     1       2.766   2.640  21.432  0.00  0.00    +0.000 OA
BRANCH   7  10
ATOM      9  C   UNL     1       4.981   1.090  20.941  0.00  0.00    +0.000 C 
ATOM     10  O   UNL     1       4.835   2.435  20.491  0.00  0.00    +0.000 OA
ENDBRANCH   7  10
ENDBRANCH   1   7
BRANCH   1  11
ATOM     11  C   UNL     1       3.821   5.342  19.701  0.00  0.00    +0.000 C 
BRANCH  11  12
ATOM     12  C   UNL     1       2.971   6.591  19.532  0.00  0.00    +0.000 A 
ATOM     13  C   UNL     1       2.884   7.343  18.368  0.00  0.00    +0.000 A 
ATOM     14  C   UNL     1       2.077   8.464  18.258  0.00  0.00    +0.000 A 
ATOM     15  C   UNL     1       1.262   8.846  19.306  0.00  0.00    +0.000 A 
ATOM     16  C   UNL     1       1.344   8.150  20.508  0.00  0.00    +0.000 A 
ATOM     17  C   UNL     1       2.190   7.035  20.620  0.00  0.00    +0.000 A 
BRANCH  15  18
ATOM     18  O   UNL     1       0.354   9.862  19.210  0.00  0.00    +0.000 OA
BRANCH  18  19
ATOM     19  C   UNL     1      -0.266   9.948  17.921  0.00  0.00    +0.000 C 
BRANCH  19  20
ATOM     20  C   UNL     1      -1.642  10.519  18.081  0.00  0.00    +0.000 A 
ATOM     21  C   UNL     1      -1.879  11.550  18.997  0.00  0.00    +0.000 A 
ATOM     22  C   UNL     1      -3.166  12.057  19.148  0.00  0.00    +0.000 A 
ATOM     23  C   UNL     1      -4.214  11.537  18.388  0.00  0.00    +0.000 A 
ATOM     24  C   UNL     1      -3.984  10.512  17.470  0.00  0.00    +0.000 A 
ATOM     25  C   UNL     1      -2.700  10.000  17.320  0.00  0.00    +0.000 A 
ENDBRANCH  19  20
ENDBRANCH  18  19
ENDBRANCH  15  18
ENDBRANCH  11  12
ENDBRANCH   1  11
BRANCH   6  26
ATOM     26  C   UNL     1       4.980   3.322  17.402  0.00  0.00    +0.000 C 
BRANCH  26  27
ATOM     27  C   UNL     1       5.684   4.659  17.367  0.00  0.00    +0.000 A 
ATOM     28  C   UNL     1       5.249   5.673  16.502  0.00  0.00    +0.000 A 
ATOM     29  C   UNL     1       5.914   6.896  16.438  0.00  0.00    +0.000 A 
ATOM     30  C   UNL     1       6.992   7.151  17.278  0.00  0.00    +0.000 A 
ATOM     31  C   UNL     1       7.437   6.155  18.148  0.00  0.00    +0.000 A 
ATOM     32  C   UNL     1       6.788   4.915  18.190  0.00  0.00    +0.000 A 
BRANCH  30  33
ATOM     33  O   UNL     1       7.567   8.384  17.141  0.00  0.00    +0.000 OA
ATOM     34  C   UNL     1       8.349   8.798  18.255  0.00  0.00    +0.000 C 
ENDBRANCH  30  33
ENDBRANCH  26  27
ENDBRANCH   6  26
TORSDOF 10
ENDMDL
