MODEL 1
REMARK VINA RESULT:      -7.3      0.000      0.000
REMARK  Name = 
REMARK  4 active torsions:
REMARK  status: ('A' for Active; 'I' for Inactive)
REMARK    1  A    between atoms: N_3  and  C_4
REMARK    2  A    between atoms: C_4  and  C_5
REMARK    3  A    between atoms: N_21  and  C_22
REMARK    4  A    between atoms: C_22  and  C_23
REMARK                            x       y       z     vdW  Elec       q    Type
REMARK                         _______ _______ _______ _____ _____    ______ ____
ROOT
ATOM      1  O   UNL     1       0.633  12.879  20.656  0.00  0.00    +0.000 OA
ATOM      2  C   UNL     1      -0.392  12.485  20.089  0.00  0.00    +0.000 C 
ATOM      3  N   UNL     1      -1.640  13.013  20.419  0.00  0.00    +0.000 N 
ATOM      4  C   UNL     1      -2.830  12.613  19.745  0.00  0.00    +0.000 A 
ATOM      5  C   UNL     1      -4.090  13.149  20.068  0.00  0.00    +0.000 A 
ATOM      6  C   UNL     1      -5.240  12.742  19.392  0.00  0.00    +0.000 A 
ATOM      7  C   UNL     1      -5.150  11.808  18.366  0.00  0.00    +0.000 A 
ATOM      8  C   UNL     1      -3.908  11.261  18.022  0.00  0.00    +0.000 A 
ATOM      9  C   UNL     1      -3.819  10.329  16.983  0.00  0.00    +0.000 A 
ATOM     10  C   UNL     1      -2.594   9.763  16.656  0.00  0.00    +0.000 A 
ATOM     11  C   UNL     1      -1.447  10.117  17.370  0.00  0.00    +0.000 A 
ATOM     12  C   UNL     1      -1.499  11.075  18.396  0.00  0.00    +0.000 A 
ATOM     13  C   UNL     1      -2.736  11.653  18.726  0.00  0.00    +0.000 A 
ATOM     14  N   UNL     1      -0.334  11.500  19.104  0.00  0.00    +0.000 N 
ENDROOT
BRANCH   3  15
ATOM     15  C   UNL     1      -1.689  13.959  21.537  0.00  0.00    +0.000 C 
BRANCH  15  16
ATOM     16  C   UNL     1      -2.544  13.563  22.729  0.00  0.00    +0.000 A 
ATOM     17  C   UNL     1      -3.439  14.500  23.276  0.00  0.00    +0.000 A 
ATOM     18  C   UNL     1      -4.373  14.122  24.244  0.00  0.00    +0.000 A 
ATOM     19  C   UNL     1      -4.429  12.802  24.681  0.00  0.00    +0.000 A 
ATOM     20  C   UNL     1      -3.534  11.866  24.168  0.00  0.00    +0.000 A 
ATOM     21  C   UNL     1      -2.598  12.243  23.201  0.00  0.00    +0.000 A 
ENDBRANCH  15  16
ENDBRANCH   3  15
BRANCH  14  22
ATOM     22  C   UNL     1       0.998  10.998  18.742  0.00  0.00    +0.000 C 
BRANCH  22  23
ATOM     23  C   UNL     1       1.301   9.545  19.075  0.00  0.00    +0.000 A 
ATOM     24  C   UNL     1       1.976   8.750  18.131  0.00  0.00    +0.000 A 
ATOM     25  C   UNL     1       2.449   7.478  18.463  0.00  0.00    +0.000 A 
ATOM     26  C   UNL     1       2.259   6.976  19.748  0.00  0.00    +0.000 A 
ATOM     27  C   UNL     1       1.575   7.739  20.690  0.00  0.00    +0.000 A 
ATOM     28  C   UNL     1       1.099   9.013  20.357  0.00  0.00    +0.000 A 
ENDBRANCH  22  23
ENDBRANCH  14  22
TORSDOF 4
ENDMDL
MODEL 2
REMARK VINA RESULT:      -7.3      1.177      1.800
REMARK  Name = 
REMARK  4 active torsions:
REMARK  status: ('A' for Active; 'I' for Inactive)
REMARK    1  A    between atoms: N_3  and  C_4
REMARK    2  A    between atoms: C_4  and  C_5
REMARK    3  A    between atoms: N_21  and  C_22
REMARK    4  A    between atoms: C_22  and  C_23
REMARK                            x       y       z     vdW  Elec       q    Type
REMARK                         _______ _______ _______ _____ _____    ______ ____
ROOT
ATOM      1  O   UNL     1      -0.920  13.376  21.045  0.00  0.00    +0.000 OA
ATOM      2  C   UNL     1      -1.676  12.806  20.251  0.00  0.00    +0.000 C 
ATOM      3  N   UNL     1      -3.046  13.066  20.254  0.00  0.00    +0.000 N 
ATOM      4  C   UNL     1      -3.932  12.461  19.316  0.00  0.00    +0.000 A 
ATOM      5  C   UNL     1      -5.313  12.727  19.310  0.00  0.00    +0.000 A 
ATOM      6  C   UNL     1      -6.158  12.123  18.380  0.00  0.00    +0.000 A 
ATOM      7  C   UNL     1      -5.636  11.258  17.424  0.00  0.00    +0.000 A 
ATOM      8  C   UNL     1      -4.264  10.978  17.406  0.00  0.00    +0.000 A 
ATOM      9  C   UNL     1      -3.741  10.115  16.438  0.00  0.00    +0.000 A 
ATOM     10  C   UNL     1      -2.386   9.812  16.432  0.00  0.00    +0.000 A 
ATOM     11  C   UNL     1      -1.543  10.363  17.400  0.00  0.00    +0.000 A 
ATOM     12  C   UNL     1      -2.033  11.259  18.364  0.00  0.00    +0.000 A 
ATOM     13  C   UNL     1      -3.402  11.571  18.369  0.00  0.00    +0.000 A 
ATOM     14  N   UNL     1      -1.185  11.883  19.328  0.00  0.00    +0.000 N 
ENDROOT
BRANCH   3  15
ATOM     15  C   UNL     1      -3.555  13.949  21.309  0.00  0.00    +0.000 C 
BRANCH  15  16
ATOM     16  C   UNL     1      -4.257  13.280  22.477  0.00  0.00    +0.000 A 
ATOM     17  C   UNL     1      -3.487  12.688  23.496  0.00  0.00    +0.000 A 
ATOM     18  C   UNL     1      -4.083  12.232  24.675  0.00  0.00    +0.000 A 
ATOM     19  C   UNL     1      -5.457  12.360  24.857  0.00  0.00    +0.000 A 
ATOM     20  C   UNL     1      -6.238  12.920  23.848  0.00  0.00    +0.000 A 
ATOM     21  C   UNL     1      -5.644  13.376  22.668  0.00  0.00    +0.000 A 
ENDBRANCH  15  16
ENDBRANCH   3  15
BRANCH  14  22
ATOM     22  C   UNL     1       0.268  11.665  19.314  0.00  0.00    +0.000 C 
BRANCH  22  23
ATOM     23  C   UNL     1       0.779  10.381  19.948  0.00  0.00    +0.000 A 
ATOM     24  C   UNL     1       0.441  10.091  21.283  0.00  0.00    +0.000 A 
ATOM     25  C   UNL     1       0.718   8.842  21.843  0.00  0.00    +0.000 A 
ATOM     26  C   UNL     1       1.335   7.854  21.080  0.00  0.00    +0.000 A 
ATOM     27  C   UNL     1       1.696   8.129  19.763  0.00  0.00    +0.000 A 
ATOM     28  C   UNL     1       1.421   9.381  19.201  0.00  0.00    +0.000 A 
ENDBRANCH  22  23
ENDBRANCH  14  22
TORSDOF 4
ENDMDL
MODEL 3
REMARK VINA RESULT:      -7.3      0.277      6.184
REMARK  Name = 
REMARK  4 active torsions:
REMARK  status: ('A' for Active; 'I' for Inactive)
REMARK    1  A    between atoms: N_3  and  C_4
REMARK    2  A    between atoms: C_4  and  C_5
REMARK    3  A    between atoms: N_21  and  C_22
REMARK    4  A    between atoms: C_22  and  C_23
REMARK                            x       y       z     vdW  Elec       q    Type
REMARK                         _______ _______ _______ _____ _____    ______ ____
ROOT
ATOM      1  O   UNL     1       0.333  12.942  20.794  0.00  0.00    +0.000 OA
ATOM      2  C   UNL     1      -0.639  12.567  20.131  0.00  0.00    +0.000 C 
ATOM      3  N   UNL     1      -0.494  11.617  19.120  0.00  0.00    +0.000 N 
ATOM      4  C   UNL     1      -1.608  11.130  18.376  0.00  0.00    +0.000 A 
ATOM      5  C   UNL     1      -1.468  10.166  17.362  0.00  0.00    +0.000 A 
ATOM      6  C   UNL     1      -2.574   9.704  16.650  0.00  0.00    +0.000 A 
ATOM      7  C   UNL     1      -3.845  10.183  16.951  0.00  0.00    +0.000 A 
ATOM      8  C   UNL     1      -4.012  11.141  17.958  0.00  0.00    +0.000 A 
ATOM      9  C   UNL     1      -5.292  11.613  18.265  0.00  0.00    +0.000 A 
ATOM     10  C   UNL     1      -5.462  12.584  19.243  0.00  0.00    +0.000 A 
ATOM     11  C   UNL     1      -4.353  13.098  19.918  0.00  0.00    +0.000 A 
ATOM     12  C   UNL     1      -3.058  12.619  19.655  0.00  0.00    +0.000 A 
ATOM     13  C   UNL     1      -2.884  11.634  18.670  0.00  0.00    +0.000 A 
ATOM     14  N   UNL     1      -1.913  13.083  20.369  0.00  0.00    +0.000 N 
ENDROOT
BRANCH   3  15
ATOM     15  C   UNL     1       0.869  11.177  18.809  0.00  0.00    +0.000 C 
BRANCH  15  16
ATOM     16  C   UNL     1       1.208   9.730  19.124  0.00  0.00    +0.000 A 
ATOM     17  C   UNL     1       1.910   8.966  18.174  0.00  0.00    +0.000 A 
ATOM     18  C   UNL     1       2.404   7.698  18.494  0.00  0.00    +0.000 A 
ATOM     19  C   UNL     1       2.206   7.174  19.767  0.00  0.00    +0.000 A 
ATOM     20  C   UNL     1       1.491   7.907  20.713  0.00  0.00    +0.000 A 
ATOM     21  C   UNL     1       0.995   9.174  20.394  0.00  0.00    +0.000 A 
ENDBRANCH  15  16
ENDBRANCH   3  15
BRANCH  14  22
ATOM     22  C   UNL     1      -2.045  14.045  21.472  0.00  0.00    +0.000 C 
BRANCH  22  23
ATOM     23  C   UNL     1      -2.891  13.618  22.662  0.00  0.00    +0.000 A 
ATOM     24  C   UNL     1      -3.966  14.429  23.067  0.00  0.00    +0.000 A 
ATOM     25  C   UNL     1      -4.885  13.986  24.021  0.00  0.00    +0.000 A 
ATOM     26  C   UNL     1      -4.752  12.721  24.586  0.00  0.00    +0.000 A 
ATOM     27  C   UNL     1      -3.682  11.911  24.212  0.00  0.00    +0.000 A 
ATOM     28  C   UNL     1      -2.759  12.355  23.259  0.00  0.00    +0.000 A 
ENDBRANCH  22  23
ENDBRANCH  14  22
TORSDOF 4
ENDMDL
MODEL 4
REMARK VINA RESULT:      -7.2      2.581      6.770
REMARK  Name = 
REMARK  4 active torsions:
REMARK  status: ('A' for Active; 'I' for Inactive)
REMARK    1  A    between atoms: N_3  and  C_4
REMARK    2  A    between atoms: C_4  and  C_5
REMARK    3  A    between atoms: N_21  and  C_22
REMARK    4  A    between atoms: C_22  and  C_23
REMARK                            x       y       z     vdW  Elec       q    Type
REMARK                         _______ _______ _______ _____ _____    ______ ____
ROOT
ATOM      1  O   UNL     1      -3.239  12.589  19.520  0.00  0.00    +0.000 OA
ATOM      2  C   UNL     1      -3.529  13.209  20.548  0.00  0.00    +0.000 C 
ATOM      3  N   UNL     1      -2.551  13.534  21.489  0.00  0.00    +0.000 N 
ATOM      4  C   UNL     1      -2.851  14.292  22.658  0.00  0.00    +0.000 A 
ATOM      5  C   UNL     1      -1.867  14.629  23.604  0.00  0.00    +0.000 A 
ATOM      6  C   UNL     1      -2.185  15.374  24.740  0.00  0.00    +0.000 A 
ATOM      7  C   UNL     1      -3.489  15.814  24.939  0.00  0.00    +0.000 A 
ATOM      8  C   UNL     1      -4.487  15.495  24.011  0.00  0.00    +0.000 A 
ATOM      9  C   UNL     1      -5.795  15.947  24.210  0.00  0.00    +0.000 A 
ATOM     10  C   UNL     1      -6.795  15.611  23.307  0.00  0.00    +0.000 A 
ATOM     11  C   UNL     1      -6.498  14.812  22.201  0.00  0.00    +0.000 A 
ATOM     12  C   UNL     1      -5.187  14.371  21.956  0.00  0.00    +0.000 A 
ATOM     13  C   UNL     1      -4.173  14.714  22.865  0.00  0.00    +0.000 A 
ATOM     14  N   UNL     1      -4.842  13.602  20.804  0.00  0.00    +0.000 N 
ENDROOT
BRANCH   3  15
ATOM     15  C   UNL     1      -1.203  13.008  21.257  0.00  0.00    +0.000 C 
BRANCH  15  16
ATOM     16  C   UNL     1      -0.974  11.545  21.595  0.00  0.00    +0.000 A 
ATOM     17  C   UNL     1      -0.530  10.667  20.589  0.00  0.00    +0.000 A 
ATOM     18  C   UNL     1      -0.128   9.365  20.898  0.00  0.00    +0.000 A 
ATOM     19  C   UNL     1      -0.160   8.919  22.215  0.00  0.00    +0.000 A 
ATOM     20  C   UNL     1      -0.621   9.766  23.221  0.00  0.00    +0.000 A 
ATOM     21  C   UNL     1      -1.025  11.069  22.914  0.00  0.00    +0.000 A 
ENDBRANCH  15  16
ENDBRANCH   3  15
BRANCH  14  22
ATOM     22  C   UNL     1      -5.842  13.291  19.773  0.00  0.00    +0.000 C 
BRANCH  22  23
ATOM     23  C   UNL     1      -6.578  11.966  19.904  0.00  0.00    +0.000 A 
ATOM     24  C   UNL     1      -6.275  10.920  19.014  0.00  0.00    +0.000 A 
ATOM     25  C   UNL     1      -6.776   9.632  19.216  0.00  0.00    +0.000 A 
ATOM     26  C   UNL     1      -7.587   9.361  20.314  0.00  0.00    +0.000 A 
ATOM     27  C   UNL     1      -7.916  10.389  21.195  0.00  0.00    +0.000 A 
ATOM     28  C   UNL     1      -7.416  11.681  20.993  0.00  0.00    +0.000 A 
ENDBRANCH  22  23
ENDBRANCH  14  22
TORSDOF 4
ENDMDL
MODEL 5
REMARK VINA RESULT:      -7.1      1.501      2.066
REMARK  Name = 
REMARK  4 active torsions:
REMARK  status: ('A' for Active; 'I' for Inactive)
REMARK    1  A    between atoms: N_3  and  C_4
REMARK    2  A    between atoms: C_4  and  C_5
REMARK    3  A    between atoms: N_21  and  C_22
REMARK    4  A    between atoms: C_22  and  C_23
REMARK                            x       y       z     vdW  Elec       q    Type
REMARK                         _______ _______ _______ _____ _____    ______ ____
ROOT
ATOM      1  O   UNL     1       0.787  12.054  21.650  0.00  0.00    +0.000 OA
ATOM      2  C   UNL     1      -0.305  12.008  21.073  0.00  0.00    +0.000 C 
ATOM      3  N   UNL     1      -1.475  12.397  21.724  0.00  0.00    +0.000 N 
ATOM      4  C   UNL     1      -2.739  12.401  21.065  0.00  0.00    +0.000 A 
ATOM      5  C   UNL     1      -3.921  12.801  21.714  0.00  0.00    +0.000 A 
ATOM      6  C   UNL     1      -5.145  12.798  21.046  0.00  0.00    +0.000 A 
ATOM      7  C   UNL     1      -5.208  12.416  19.710  0.00  0.00    +0.000 A 
ATOM      8  C   UNL     1      -4.046  12.017  19.039  0.00  0.00    +0.000 A 
ATOM      9  C   UNL     1      -4.111  11.643  17.694  0.00  0.00    +0.000 A 
ATOM     10  C   UNL     1      -2.966  11.220  17.031  0.00  0.00    +0.000 A 
ATOM     11  C   UNL     1      -1.748  11.158  17.710  0.00  0.00    +0.000 A 
ATOM     12  C   UNL     1      -1.644  11.560  19.052  0.00  0.00    +0.000 A 
ATOM     13  C   UNL     1      -2.799  11.993  19.724  0.00  0.00    +0.000 A 
ATOM     14  N   UNL     1      -0.402  11.563  19.755  0.00  0.00    +0.000 N 
ENDROOT
BRANCH   3  15
ATOM     15  C   UNL     1      -1.365  12.747  23.143  0.00  0.00    +0.000 C 
BRANCH  15  16
ATOM     16  C   UNL     1      -1.330  14.227  23.479  0.00  0.00    +0.000 A 
ATOM     17  C   UNL     1      -2.102  14.708  24.553  0.00  0.00    +0.000 A 
ATOM     18  C   UNL     1      -1.955  16.019  25.014  0.00  0.00    +0.000 A 
ATOM     19  C   UNL     1      -1.035  16.871  24.411  0.00  0.00    +0.000 A 
ATOM     20  C   UNL     1      -0.281  16.421  23.330  0.00  0.00    +0.000 A 
ATOM     21  C   UNL     1      -0.427  15.110  22.867  0.00  0.00    +0.000 A 
ENDBRANCH  15  16
ENDBRANCH   3  15
BRANCH  14  22
ATOM     22  C   UNL     1       0.853  11.208  19.079  0.00  0.00    +0.000 C 
BRANCH  22  23
ATOM     23  C   UNL     1       1.242   9.737  19.078  0.00  0.00    +0.000 A 
ATOM     24  C   UNL     1       1.806   9.176  17.917  0.00  0.00    +0.000 A 
ATOM     25  C   UNL     1       2.357   7.893  17.930  0.00  0.00    +0.000 A 
ATOM     26  C   UNL     1       2.361   7.145  19.104  0.00  0.00    +0.000 A 
ATOM     27  C   UNL     1       1.789   7.675  20.258  0.00  0.00    +0.000 A 
ATOM     28  C   UNL     1       1.234   8.960  20.246  0.00  0.00    +0.000 A 
ENDBRANCH  22  23
ENDBRANCH  14  22
TORSDOF 4
ENDMDL
MODEL 6
REMARK VINA RESULT:      -7.1      2.515      5.454
REMARK  Name = 
REMARK  4 active torsions:
REMARK  status: ('A' for Active; 'I' for Inactive)
REMARK    1  A    between atoms: N_3  and  C_4
REMARK    2  A    between atoms: C_4  and  C_5
REMARK    3  A    between atoms: N_21  and  C_22
REMARK    4  A    between atoms: C_22  and  C_23
REMARK                            x       y       z     vdW  Elec       q    Type
REMARK                         _______ _______ _______ _____ _____    ______ ____
ROOT
ATOM      1  O   UNL     1      -3.134  12.408  19.523  0.00  0.00    +0.000 OA
ATOM      2  C   UNL     1      -3.365  13.116  20.509  0.00  0.00    +0.000 C 
ATOM      3  N   UNL     1      -4.647  13.610  20.751  0.00  0.00    +0.000 N 
ATOM      4  C   UNL     1      -4.950  14.386  21.907  0.00  0.00    +0.000 A 
ATOM      5  C   UNL     1      -6.243  14.879  22.161  0.00  0.00    +0.000 A 
ATOM      6  C   UNL     1      -6.515  15.635  23.301  0.00  0.00    +0.000 A 
ATOM      7  C   UNL     1      -5.504  15.895  24.220  0.00  0.00    +0.000 A 
ATOM      8  C   UNL     1      -4.209  15.413  23.994  0.00  0.00    +0.000 A 
ATOM      9  C   UNL     1      -3.198  15.668  24.925  0.00  0.00    +0.000 A 
ATOM     10  C   UNL     1      -1.905  15.217  24.692  0.00  0.00    +0.000 A 
ATOM     11  C   UNL     1      -1.610  14.514  23.522  0.00  0.00    +0.000 A 
ATOM     12  C   UNL     1      -2.612  14.214  22.585  0.00  0.00    +0.000 A 
ATOM     13  C   UNL     1      -3.921  14.664  22.820  0.00  0.00    +0.000 A 
ATOM     14  N   UNL     1      -2.352  13.447  21.409  0.00  0.00    +0.000 N 
ENDROOT
BRANCH   3  15
ATOM     15  C   UNL     1      -5.666  13.348  19.731  0.00  0.00    +0.000 C 
BRANCH  15  16
ATOM     16  C   UNL     1      -6.452  12.056  19.868  0.00  0.00    +0.000 A 
ATOM     17  C   UNL     1      -6.248  11.024  18.935  0.00  0.00    +0.000 A 
ATOM     18  C   UNL     1      -6.805   9.757  19.131  0.00  0.00    +0.000 A 
ATOM     19  C   UNL     1      -7.574   9.500  20.261  0.00  0.00    +0.000 A 
ATOM     20  C   UNL     1      -7.808  10.518  21.183  0.00  0.00    +0.000 A 
ATOM     21  C   UNL     1      -7.253  11.787  20.989  0.00  0.00    +0.000 A 
ENDBRANCH  15  16
ENDBRANCH   3  15
BRANCH  14  22
ATOM     22  C   UNL     1      -1.024  12.873  21.156  0.00  0.00    +0.000 C 
BRANCH  22  23
ATOM     23  C   UNL     1      -0.817  11.417  21.546  0.00  0.00    +0.000 A 
ATOM     24  C   UNL     1      -0.383  10.500  20.572  0.00  0.00    +0.000 A 
ATOM     25  C   UNL     1       0.009   9.205  20.923  0.00  0.00    +0.000 A 
ATOM     26  C   UNL     1      -0.022   8.802  22.255  0.00  0.00    +0.000 A 
ATOM     27  C   UNL     1      -0.469   9.690  23.231  0.00  0.00    +0.000 A 
ATOM     28  C   UNL     1      -0.864  10.986  22.880  0.00  0.00    +0.000 A 
ENDBRANCH  22  23
ENDBRANCH  14  22
TORSDOF 4
ENDMDL
MODEL 7
REMARK VINA RESULT:      -7.1      0.789      1.231
REMARK  Name = 
REMARK  4 active torsions:
REMARK  status: ('A' for Active; 'I' for Inactive)
REMARK    1  A    between atoms: N_3  and  C_4
REMARK    2  A    between atoms: C_4  and  C_5
REMARK    3  A    between atoms: N_21  and  C_22
REMARK    4  A    between atoms: C_22  and  C_23
REMARK                            x       y       z     vdW  Elec       q    Type
REMARK                         _______ _______ _______ _____ _____    ______ ____
ROOT
ATOM      1  O   UNL     1      -0.245  13.426  20.660  0.00  0.00    +0.000 OA
ATOM      2  C   UNL     1      -1.137  12.842  20.036  0.00  0.00    +0.000 C 
ATOM      3  N   UNL     1      -2.478  13.183  20.216  0.00  0.00    +0.000 N 
ATOM      4  C   UNL     1      -3.521  12.560  19.472  0.00  0.00    +0.000 A 
ATOM      5  C   UNL     1      -4.873  12.907  19.642  0.00  0.00    +0.000 A 
ATOM      6  C   UNL     1      -5.875  12.283  18.900  0.00  0.00    +0.000 A 
ATOM      7  C   UNL     1      -5.543  11.315  17.957  0.00  0.00    +0.000 A 
ATOM      8  C   UNL     1      -4.205  10.954  17.765  0.00  0.00    +0.000 A 
ATOM      9  C   UNL     1      -3.873   9.987  16.811  0.00  0.00    +0.000 A 
ATOM     10  C   UNL     1      -2.550   9.605  16.635  0.00  0.00    +0.000 A 
ATOM     11  C   UNL     1      -1.547  10.178  17.419  0.00  0.00    +0.000 A 
ATOM     12  C   UNL     1      -1.844  11.176  18.362  0.00  0.00    +0.000 A 
ATOM     13  C   UNL     1      -3.181  11.568  18.538  0.00  0.00    +0.000 A 
ATOM     14  N   UNL     1      -0.834  11.821  19.136  0.00  0.00    +0.000 N 
ENDROOT
BRANCH   3  15
ATOM     15  C   UNL     1      -2.781  14.175  21.252  0.00  0.00    +0.000 C 
BRANCH  15  16
ATOM     16  C   UNL     1      -3.498  13.668  22.491  0.00  0.00    +0.000 A 
ATOM     17  C   UNL     1      -4.755  14.204  22.826  0.00  0.00    +0.000 A 
ATOM     18  C   UNL     1      -5.531  13.639  23.842  0.00  0.00    +0.000 A 
ATOM     19  C   UNL     1      -5.065  12.529  24.539  0.00  0.00    +0.000 A 
ATOM     20  C   UNL     1      -3.811  12.001  24.238  0.00  0.00    +0.000 A 
ATOM     21  C   UNL     1      -3.033  12.566  23.223  0.00  0.00    +0.000 A 
ENDBRANCH  15  16
ENDBRANCH   3  15
BRANCH  14  22
ATOM     22  C   UNL     1       0.589  11.517  18.931  0.00  0.00    +0.000 C 
BRANCH  22  23
ATOM     23  C   UNL     1       1.098  10.196  19.486  0.00  0.00    +0.000 A 
ATOM     24  C   UNL     1       0.719   9.803  20.782  0.00  0.00    +0.000 A 
ATOM     25  C   UNL     1       0.996   8.519  21.258  0.00  0.00    +0.000 A 
ATOM     26  C   UNL     1       1.656   7.600  20.446  0.00  0.00    +0.000 A 
ATOM     27  C   UNL     1       2.058   7.977  19.168  0.00  0.00    +0.000 A 
ATOM     28  C   UNL     1       1.783   9.264  18.691  0.00  0.00    +0.000 A 
ENDBRANCH  22  23
ENDBRANCH  14  22
TORSDOF 4
ENDMDL
MODEL 8
REMARK VINA RESULT:      -7.1      2.115      3.085
REMARK  Name = 
REMARK  4 active torsions:
REMARK  status: ('A' for Active; 'I' for Inactive)
REMARK    1  A    between atoms: N_3  and  C_4
REMARK    2  A    between atoms: C_4  and  C_5
REMARK    3  A    between atoms: N_21  and  C_22
REMARK    4  A    between atoms: C_22  and  C_23
REMARK                            x       y       z     vdW  Elec       q    Type
REMARK                         _______ _______ _______ _____ _____    ______ ____
ROOT
ATOM      1  O   UNL     1      -2.716  12.999  22.670  0.00  0.00    +0.000 OA
ATOM      2  C   UNL     1      -3.303  12.694  21.626  0.00  0.00    +0.000 C 
ATOM      3  N   UNL     1      -4.692  12.774  21.536  0.00  0.00    +0.000 N 
ATOM      4  C   UNL     1      -5.388  12.477  20.329  0.00  0.00    +0.000 A 
ATOM      5  C   UNL     1      -6.789  12.565  20.230  0.00  0.00    +0.000 A 
ATOM      6  C   UNL     1      -7.446  12.270  19.036  0.00  0.00    +0.000 A 
ATOM      7  C   UNL     1      -6.715  11.902  17.912  0.00  0.00    +0.000 A 
ATOM      8  C   UNL     1      -5.320  11.811  17.982  0.00  0.00    +0.000 A 
ATOM      9  C   UNL     1      -4.587  11.449  16.847  0.00  0.00    +0.000 A 
ATOM     10  C   UNL     1      -3.205  11.330  16.918  0.00  0.00    +0.000 A 
ATOM     11  C   UNL     1      -2.544  11.561  18.126  0.00  0.00    +0.000 A 
ATOM     12  C   UNL     1      -3.249  11.957  19.274  0.00  0.00    +0.000 A 
ATOM     13  C   UNL     1      -4.647  12.084  19.204  0.00  0.00    +0.000 A 
ATOM     14  N   UNL     1      -2.596  12.257  20.507  0.00  0.00    +0.000 N 
ENDROOT
BRANCH   3  15
ATOM     15  C   UNL     1      -5.421  13.121  22.760  0.00  0.00    +0.000 C 
BRANCH  15  16
ATOM     16  C   UNL     1      -5.615  14.601  23.041  0.00  0.00    +0.000 A 
ATOM     17  C   UNL     1      -6.727  15.266  22.492  0.00  0.00    +0.000 A 
ATOM     18  C   UNL     1      -7.046  16.571  22.876  0.00  0.00    +0.000 A 
ATOM     19  C   UNL     1      -6.261  17.234  23.815  0.00  0.00    +0.000 A 
ATOM     20  C   UNL     1      -5.141  16.600  24.349  0.00  0.00    +0.000 A 
ATOM     21  C   UNL     1      -4.819  15.295  23.965  0.00  0.00    +0.000 A 
ENDBRANCH  15  16
ENDBRANCH   3  15
BRANCH  14  22
ATOM     22  C   UNL     1      -1.130  12.230  20.614  0.00  0.00    +0.000 C 
BRANCH  22  23
ATOM     23  C   UNL     1      -0.496  10.918  21.050  0.00  0.00    +0.000 A 
ATOM     24  C   UNL     1       0.202  10.144  20.106  0.00  0.00    +0.000 A 
ATOM     25  C   UNL     1       0.964   9.041  20.496  0.00  0.00    +0.000 A 
ATOM     26  C   UNL     1       1.048   8.690  21.841  0.00  0.00    +0.000 A 
ATOM     27  C   UNL     1       0.347   9.432  22.789  0.00  0.00    +0.000 A 
ATOM     28  C   UNL     1      -0.418  10.536  22.398  0.00  0.00    +0.000 A 
ENDBRANCH  22  23
ENDBRANCH  14  22
TORSDOF 4
ENDMDL
MODEL 9
REMARK VINA RESULT:      -7.1      2.011      2.868
REMARK  Name = 
REMARK  4 active torsions:
REMARK  status: ('A' for Active; 'I' for Inactive)
REMARK    1  A    between atoms: N_3  and  C_4
REMARK    2  A    between atoms: C_4  and  C_5
REMARK    3  A    between atoms: N_21  and  C_22
REMARK    4  A    between atoms: C_22  and  C_23
REMARK                            x       y       z     vdW  Elec       q    Type
REMARK                         _______ _______ _______ _____ _____    ______ ____
ROOT
ATOM      1  O   UNL     1      -2.242  14.303  21.538  0.00  0.00    +0.000 OA
ATOM      2  C   UNL     1      -2.932  13.648  20.749  0.00  0.00    +0.000 C 
ATOM      3  N   UNL     1      -4.285  13.935  20.573  0.00  0.00    +0.000 N 
ATOM      4  C   UNL     1      -5.090  13.228  19.633  0.00  0.00    +0.000 A 
ATOM      5  C   UNL     1      -6.453  13.519  19.445  0.00  0.00    +0.000 A 
ATOM      6  C   UNL     1      -7.218  12.814  18.517  0.00  0.00    +0.000 A 
ATOM      7  C   UNL     1      -6.631  11.818  17.744  0.00  0.00    +0.000 A 
ATOM      8  C   UNL     1      -5.275  11.511  17.909  0.00  0.00    +0.000 A 
ATOM      9  C   UNL     1      -4.686  10.515  17.123  0.00  0.00    +0.000 A 
ATOM     10  C   UNL     1      -3.349  10.186  17.302  0.00  0.00    +0.000 A 
ATOM     11  C   UNL     1      -2.591  10.843  18.273  0.00  0.00    +0.000 A 
ATOM     12  C   UNL     1      -3.146  11.870  19.054  0.00  0.00    +0.000 A 
ATOM     13  C   UNL     1      -4.497  12.209  18.872  0.00  0.00    +0.000 A 
ATOM     14  N   UNL     1      -2.381  12.599  20.013  0.00  0.00    +0.000 N 
ENDROOT
BRANCH   3  15
ATOM     15  C   UNL     1      -4.868  14.961  21.442  0.00  0.00    +0.000 C 
BRANCH  15  16
ATOM     16  C   UNL     1      -5.761  14.472  22.570  0.00  0.00    +0.000 A 
ATOM     17  C   UNL     1      -6.915  15.205  22.901  0.00  0.00    +0.000 A 
ATOM     18  C   UNL     1      -7.859  14.695  23.797  0.00  0.00    +0.000 A 
ATOM     19  C   UNL     1      -7.666  13.444  24.375  0.00  0.00    +0.000 A 
ATOM     20  C   UNL     1      -6.516  12.715  24.079  0.00  0.00    +0.000 A 
ATOM     21  C   UNL     1      -5.570  13.225  23.184  0.00  0.00    +0.000 A 
ENDBRANCH  15  16
ENDBRANCH   3  15
BRANCH  14  22
ATOM     22  C   UNL     1      -0.942  12.352  20.182  0.00  0.00    +0.000 C 
BRANCH  22  23
ATOM     23  C   UNL     1      -0.544  11.158  21.037  0.00  0.00    +0.000 A 
ATOM     24  C   UNL     1       0.413  10.251  20.549  0.00  0.00    +0.000 A 
ATOM     25  C   UNL     1       0.953   9.259  21.370  0.00  0.00    +0.000 A 
ATOM     26  C   UNL     1       0.550   9.154  22.698  0.00  0.00    +0.000 A 
ATOM     27  C   UNL     1      -0.413  10.030  23.194  0.00  0.00    +0.000 A 
ATOM     28  C   UNL     1      -0.956  11.024  22.372  0.00  0.00    +0.000 A 
ENDBRANCH  22  23
ENDBRANCH  14  22
TORSDOF 4
ENDMDL
