MODEL 1
REMARK VINA RESULT:      -7.4      0.000      0.000
REMARK  Name = 
REMARK  9 active torsions:
REMARK  status: ('A' for Active; 'I' for Inactive)
REMARK    1  A    between atoms: C_4  and  O_5
REMARK    2  A    between atoms: N_9  and  C_10
REMARK    3  A    between atoms: C_10  and  C_11
REMARK    4  A    between atoms: C_11  and  C_12
REMARK    5  A    between atoms: C_12  and  C_13
REMARK    6  A    between atoms: C_13  and  C_14
REMARK    7  A    between atoms: C_14  and  P_17
REMARK    8  A    between atoms: P_17  and  O_19
REMARK    9  A    between atoms: P_17  and  O_20
REMARK                            x       y       z     vdW  Elec       q    Type
REMARK                         _______ _______ _______ _____ _____    ______ ____
ROOT
ATOM      1  N   UNL     1       6.786   5.205  14.012  0.00  0.00    +0.000 N 
ATOM      2  C   UNL     1       6.691   5.140  15.388  0.00  0.00    +0.000 A 
ATOM      3  N   UNL     1       7.711   4.543  16.030  0.00  0.00    +0.000 NA
ATOM      4  C   UNL     1       7.656   4.487  17.375  0.00  0.00    +0.000 A 
ATOM      5  C   UNL     1       6.579   5.016  18.074  0.00  0.00    +0.000 A 
ATOM      6  N   UNL     1       6.249   5.120  19.409  0.00  0.00    +0.000 NA
ATOM      7  C   UNL     1       5.084   5.737  19.422  0.00  0.00    +0.000 A 
ATOM      8  N   UNL     1       4.649   6.027  18.156  0.00  0.00    +0.000 N 
ATOM      9  C   UNL     1       5.594   5.574  17.280  0.00  0.00    +0.000 A 
ATOM     10  N   UNL     1       5.582   5.658  15.938  0.00  0.00    +0.000 NA
ATOM     11  H   UNL     1       7.407   4.486  13.666  0.00  0.00    +0.000 HD
ATOM     12  H   UNL     1       5.870   5.271  13.595  0.00  0.00    +0.000 HD
ENDROOT
BRANCH   4  13
ATOM     13  O   UNL     1       8.728   3.886  17.971  0.00  0.00    +0.000 OA
ATOM     14  H   UNL     1       8.456   2.955  17.943  0.00  0.00    +0.000 HD
ENDBRANCH   4  13
BRANCH   8  15
ATOM     15  C   UNL     1       3.416   6.695  17.809  0.00  0.00    +0.000 C 
BRANCH  15  16
ATOM     16  C   UNL     1       2.177   6.086  18.460  0.00  0.00    +0.000 C 
BRANCH  16  17
ATOM     17  C   UNL     1       1.527   4.971  17.633  0.00  0.00    +0.000 C 
BRANCH  17  18
ATOM     18  C   UNL     1       1.652   3.649  18.386  0.00  0.00    +0.000 C 
BRANCH  18  19
ATOM     19  C   UNL     1       2.702   2.719  17.817  0.00  0.00    +0.000 C 
ATOM     20  F   UNL     1       2.175   1.577  17.324  0.00  0.00    +0.000 F 
ATOM     21  F   UNL     1       3.430   3.320  16.849  0.00  0.00    +0.000 F 
BRANCH  19  22
ATOM     22  P   UNL     1       3.971   2.192  19.026  0.00  0.00    +0.000 P 
ATOM     23  O   UNL     1       2.985   2.219  20.203  0.00  0.00    +0.000 OA
BRANCH  22  24
ATOM     24  O   UNL     1       3.954   0.632  18.502  0.00  0.00    +0.000 OA
ATOM     25  H   UNL     1       3.098   0.207  18.704  0.00  0.00    +0.000 HD
ENDBRANCH  22  24
BRANCH  22  26
ATOM     26  O   UNL     1       5.170   1.692  20.169  0.00  0.00    +0.000 OA
ATOM     27  H   UNL     1       6.002   2.084  19.833  0.00  0.00    +0.000 HD
ENDBRANCH  22  26
ENDBRANCH  19  22
ENDBRANCH  18  19
ENDBRANCH  17  18
ENDBRANCH  16  17
ENDBRANCH  15  16
ENDBRANCH   8  15
TORSDOF 9
ENDMDL
MODEL 2
REMARK VINA RESULT:      -7.3      2.745      3.803
REMARK  Name = 
REMARK  9 active torsions:
REMARK  status: ('A' for Active; 'I' for Inactive)
REMARK    1  A    between atoms: C_4  and  O_5
REMARK    2  A    between atoms: N_9  and  C_10
REMARK    3  A    between atoms: C_10  and  C_11
REMARK    4  A    between atoms: C_11  and  C_12
REMARK    5  A    between atoms: C_12  and  C_13
REMARK    6  A    between atoms: C_13  and  C_14
REMARK    7  A    between atoms: C_14  and  P_17
REMARK    8  A    between atoms: P_17  and  O_19
REMARK    9  A    between atoms: P_17  and  O_20
REMARK                            x       y       z     vdW  Elec       q    Type
REMARK                         _______ _______ _______ _____ _____    ______ ____
ROOT
ATOM      1  N   UNL     1       8.367   5.293  20.474  0.00  0.00    +0.000 N 
ATOM      2  C   UNL     1       7.722   5.667  19.312  0.00  0.00    +0.000 A 
ATOM      3  N   UNL     1       8.088   6.846  18.778  0.00  0.00    +0.000 NA
ATOM      4  C   UNL     1       7.492   7.225  17.631  0.00  0.00    +0.000 A 
ATOM      5  C   UNL     1       6.524   6.433  17.027  0.00  0.00    +0.000 A 
ATOM      6  N   UNL     1       5.766   6.539  15.881  0.00  0.00    +0.000 NA
ATOM      7  C   UNL     1       5.029   5.446  15.861  0.00  0.00    +0.000 A 
ATOM      8  N   UNL     1       5.276   4.647  16.946  0.00  0.00    +0.000 N 
ATOM      9  C   UNL     1       6.232   5.263  17.703  0.00  0.00    +0.000 A 
ATOM     10  N   UNL     1       6.783   4.828  18.850  0.00  0.00    +0.000 NA
ATOM     11  H   UNL     1       8.741   6.103  20.947  0.00  0.00    +0.000 HD
ATOM     12  H   UNL     1       7.793   4.661  21.012  0.00  0.00    +0.000 HD
ENDROOT
BRANCH   4  13
ATOM     13  O   UNL     1       7.918   8.422  17.128  0.00  0.00    +0.000 OA
ATOM     14  H   UNL     1       7.142   8.690  16.610  0.00  0.00    +0.000 HD
ENDBRANCH   4  13
BRANCH   8  15
ATOM     15  C   UNL     1       4.644   3.381  17.237  0.00  0.00    +0.000 C 
BRANCH  15  16
ATOM     16  C   UNL     1       3.135   3.376  17.011  0.00  0.00    +0.000 C 
BRANCH  16  17
ATOM     17  C   UNL     1       2.373   2.419  17.935  0.00  0.00    +0.000 C 
BRANCH  17  18
ATOM     18  C   UNL     1       1.278   3.191  18.666  0.00  0.00    +0.000 C 
BRANCH  18  19
ATOM     19  C   UNL     1       1.769   3.938  19.888  0.00  0.00    +0.000 C 
ATOM     20  F   UNL     1       0.854   3.967  20.881  0.00  0.00    +0.000 F 
ATOM     21  F   UNL     1       2.919   3.414  20.365  0.00  0.00    +0.000 F 
BRANCH  19  22
ATOM     22  P   UNL     1       2.206   5.686  19.572  0.00  0.00    +0.000 P 
ATOM     23  O   UNL     1       1.523   6.180  20.855  0.00  0.00    +0.000 OA
BRANCH  22  24
ATOM     24  O   UNL     1       3.781   5.465  19.994  0.00  0.00    +0.000 OA
ATOM     25  H   UNL     1       4.260   4.971  19.301  0.00  0.00    +0.000 HD
ENDBRANCH  22  24
BRANCH  22  26
ATOM     26  O   UNL     1       2.621   7.339  19.273  0.00  0.00    +0.000 OA
ATOM     27  H   UNL     1       1.840   7.704  18.808  0.00  0.00    +0.000 HD
ENDBRANCH  22  26
ENDBRANCH  19  22
ENDBRANCH  18  19
ENDBRANCH  17  18
ENDBRANCH  16  17
ENDBRANCH  15  16
ENDBRANCH   8  15
TORSDOF 9
ENDMDL
MODEL 3
REMARK VINA RESULT:      -7.2      2.592      3.599
REMARK  Name = 
REMARK  9 active torsions:
REMARK  status: ('A' for Active; 'I' for Inactive)
REMARK    1  A    between atoms: C_4  and  O_5
REMARK    2  A    between atoms: N_9  and  C_10
REMARK    3  A    between atoms: C_10  and  C_11
REMARK    4  A    between atoms: C_11  and  C_12
REMARK    5  A    between atoms: C_12  and  C_13
REMARK    6  A    between atoms: C_13  and  C_14
REMARK    7  A    between atoms: C_14  and  P_17
REMARK    8  A    between atoms: P_17  and  O_19
REMARK    9  A    between atoms: P_17  and  O_20
REMARK                            x       y       z     vdW  Elec       q    Type
REMARK                         _______ _______ _______ _____ _____    ______ ____
ROOT
ATOM      1  N   UNL     1       8.423   5.264  20.387  0.00  0.00    +0.000 N 
ATOM      2  C   UNL     1       7.764   5.683  19.248  0.00  0.00    +0.000 A 
ATOM      3  N   UNL     1       8.115   6.887  18.763  0.00  0.00    +0.000 NA
ATOM      4  C   UNL     1       7.505   7.310  17.638  0.00  0.00    +0.000 A 
ATOM      5  C   UNL     1       6.539   6.536  17.008  0.00  0.00    +0.000 A 
ATOM      6  N   UNL     1       5.769   6.685  15.875  0.00  0.00    +0.000 NA
ATOM      7  C   UNL     1       5.042   5.588  15.814  0.00  0.00    +0.000 A 
ATOM      8  N   UNL     1       5.306   4.745  16.861  0.00  0.00    +0.000 N 
ATOM      9  C   UNL     1       6.263   5.335  17.636  0.00  0.00    +0.000 A 
ATOM     10  N   UNL     1       6.828   4.856  18.758  0.00  0.00    +0.000 NA
ATOM     11  H   UNL     1       8.794   6.056  20.891  0.00  0.00    +0.000 HD
ATOM     12  H   UNL     1       7.860   4.604  20.901  0.00  0.00    +0.000 HD
ENDROOT
BRANCH   4  13
ATOM     13  O   UNL     1       7.917   8.531  17.184  0.00  0.00    +0.000 OA
ATOM     14  H   UNL     1       7.212   9.102  17.530  0.00  0.00    +0.000 HD
ENDBRANCH   4  13
BRANCH   8  15
ATOM     15  C   UNL     1       4.688   3.462  17.101  0.00  0.00    +0.000 C 
BRANCH  15  16
ATOM     16  C   UNL     1       3.169   3.469  16.954  0.00  0.00    +0.000 C 
BRANCH  16  17
ATOM     17  C   UNL     1       2.479   2.251  17.581  0.00  0.00    +0.000 C 
BRANCH  17  18
ATOM     18  C   UNL     1       2.849   2.171  19.060  0.00  0.00    +0.000 C 
BRANCH  18  19
ATOM     19  C   UNL     1       1.743   2.618  19.991  0.00  0.00    +0.000 C 
ATOM     20  F   UNL     1       0.531   2.626  19.394  0.00  0.00    +0.000 F 
ATOM     21  F   UNL     1       1.682   1.848  21.100  0.00  0.00    +0.000 F 
BRANCH  19  22
ATOM     22  P   UNL     1       1.967   4.304  20.666  0.00  0.00    +0.000 P 
ATOM     23  O   UNL     1       2.177   3.797  22.100  0.00  0.00    +0.000 OA
BRANCH  22  24
ATOM     24  O   UNL     1       3.485   4.450  20.047  0.00  0.00    +0.000 OA
ATOM     25  H   UNL     1       4.158   4.255  20.729  0.00  0.00    +0.000 HD
ENDBRANCH  22  24
BRANCH  22  26
ATOM     26  O   UNL     1       2.181   5.899  21.303  0.00  0.00    +0.000 OA
ATOM     27  H   UNL     1       2.268   6.466  20.510  0.00  0.00    +0.000 HD
ENDBRANCH  22  26
ENDBRANCH  19  22
ENDBRANCH  18  19
ENDBRANCH  17  18
ENDBRANCH  16  17
ENDBRANCH  15  16
ENDBRANCH   8  15
TORSDOF 9
ENDMDL
MODEL 4
REMARK VINA RESULT:      -7.1      2.569      3.524
REMARK  Name = 
REMARK  9 active torsions:
REMARK  status: ('A' for Active; 'I' for Inactive)
REMARK    1  A    between atoms: C_4  and  O_5
REMARK    2  A    between atoms: N_9  and  C_10
REMARK    3  A    between atoms: C_10  and  C_11
REMARK    4  A    between atoms: C_11  and  C_12
REMARK    5  A    between atoms: C_12  and  C_13
REMARK    6  A    between atoms: C_13  and  C_14
REMARK    7  A    between atoms: C_14  and  P_17
REMARK    8  A    between atoms: P_17  and  O_19
REMARK    9  A    between atoms: P_17  and  O_20
REMARK                            x       y       z     vdW  Elec       q    Type
REMARK                         _______ _______ _______ _____ _____    ______ ____
ROOT
ATOM      1  N   UNL     1       8.462   5.242  20.413  0.00  0.00    +0.000 N 
ATOM      2  C   UNL     1       7.791   5.667  19.283  0.00  0.00    +0.000 A 
ATOM      3  N   UNL     1       8.156   6.860  18.783  0.00  0.00    +0.000 NA
ATOM      4  C   UNL     1       7.534   7.287  17.667  0.00  0.00    +0.000 A 
ATOM      5  C   UNL     1       6.542   6.528  17.061  0.00  0.00    +0.000 A 
ATOM      6  N   UNL     1       5.754   6.685  15.940  0.00  0.00    +0.000 NA
ATOM      7  C   UNL     1       5.004   5.602  15.901  0.00  0.00    +0.000 A 
ATOM      8  N   UNL     1       5.270   4.761  16.949  0.00  0.00    +0.000 N 
ATOM      9  C   UNL     1       6.254   5.338  17.702  0.00  0.00    +0.000 A 
ATOM     10  N   UNL     1       6.830   4.855  18.817  0.00  0.00    +0.000 NA
ATOM     11  H   UNL     1       8.859   6.031  20.905  0.00  0.00    +0.000 HD
ATOM     12  H   UNL     1       7.896   4.598  20.943  0.00  0.00    +0.000 HD
ENDROOT
BRANCH   4  13
ATOM     13  O   UNL     1       7.962   8.497  17.196  0.00  0.00    +0.000 OA
ATOM     14  H   UNL     1       7.814   9.058  17.974  0.00  0.00    +0.000 HD
ENDBRANCH   4  13
BRANCH   8  15
ATOM     15  C   UNL     1       4.632   3.492  17.211  0.00  0.00    +0.000 C 
BRANCH  15  16
ATOM     16  C   UNL     1       3.223   3.378  16.634  0.00  0.00    +0.000 C 
BRANCH  16  17
ATOM     17  C   UNL     1       2.118   3.805  17.608  0.00  0.00    +0.000 C 
BRANCH  17  18
ATOM     18  C   UNL     1       1.633   2.584  18.384  0.00  0.00    +0.000 C 
BRANCH  18  19
ATOM     19  C   UNL     1       2.118   2.540  19.817  0.00  0.00    +0.000 C 
ATOM     20  F   UNL     1       1.346   1.758  20.604  0.00  0.00    +0.000 F 
ATOM     21  F   UNL     1       3.399   2.116  19.899  0.00  0.00    +0.000 F 
BRANCH  19  22
ATOM     22  P   UNL     1       2.165   4.172  20.643  0.00  0.00    +0.000 P 
ATOM     23  O   UNL     1       0.661   4.411  20.448  0.00  0.00    +0.000 OA
BRANCH  22  24
ATOM     24  O   UNL     1       2.293   3.512  22.145  0.00  0.00    +0.000 OA
ATOM     25  H   UNL     1       1.512   2.961  22.350  0.00  0.00    +0.000 HD
ENDBRANCH  22  24
BRANCH  22  26
ATOM     26  O   UNL     1       2.210   5.715  21.425  0.00  0.00    +0.000 OA
ATOM     27  H   UNL     1       1.344   5.783  21.876  0.00  0.00    +0.000 HD
ENDBRANCH  22  26
ENDBRANCH  19  22
ENDBRANCH  18  19
ENDBRANCH  17  18
ENDBRANCH  16  17
ENDBRANCH  15  16
ENDBRANCH   8  15
TORSDOF 9
ENDMDL
MODEL 5
REMARK VINA RESULT:      -7.0      2.379      3.490
REMARK  Name = 
REMARK  9 active torsions:
REMARK  status: ('A' for Active; 'I' for Inactive)
REMARK    1  A    between atoms: C_4  and  O_5
REMARK    2  A    between atoms: N_9  and  C_10
REMARK    3  A    between atoms: C_10  and  C_11
REMARK    4  A    between atoms: C_11  and  C_12
REMARK    5  A    between atoms: C_12  and  C_13
REMARK    6  A    between atoms: C_13  and  C_14
REMARK    7  A    between atoms: C_14  and  P_17
REMARK    8  A    between atoms: P_17  and  O_19
REMARK    9  A    between atoms: P_17  and  O_20
REMARK                            x       y       z     vdW  Elec       q    Type
REMARK                         _______ _______ _______ _____ _____    ______ ____
ROOT
ATOM      1  N   UNL     1       8.494   5.280  20.352  0.00  0.00    +0.000 N 
ATOM      2  C   UNL     1       7.839   5.705  19.212  0.00  0.00    +0.000 A 
ATOM      3  N   UNL     1       8.153   6.933  18.764  0.00  0.00    +0.000 NA
ATOM      4  C   UNL     1       7.548   7.363  17.640  0.00  0.00    +0.000 A 
ATOM      5  C   UNL     1       6.622   6.571  16.974  0.00  0.00    +0.000 A 
ATOM      6  N   UNL     1       5.866   6.721  15.830  0.00  0.00    +0.000 NA
ATOM      7  C   UNL     1       5.181   5.599  15.729  0.00  0.00    +0.000 A 
ATOM      8  N   UNL     1       5.458   4.740  16.759  0.00  0.00    +0.000 N 
ATOM      9  C   UNL     1       6.380   5.345  17.565  0.00  0.00    +0.000 A 
ATOM     10  N   UNL     1       6.943   4.857  18.685  0.00  0.00    +0.000 NA
ATOM     11  H   UNL     1       8.827   6.073  20.883  0.00  0.00    +0.000 HD
ATOM     12  H   UNL     1       7.946   4.587  20.840  0.00  0.00    +0.000 HD
ENDROOT
BRANCH   4  13
ATOM     13  O   UNL     1       7.922   8.609  17.225  0.00  0.00    +0.000 OA
ATOM     14  H   UNL     1       7.144   8.869  16.704  0.00  0.00    +0.000 HD
ENDBRANCH   4  13
BRANCH   8  15
ATOM     15  C   UNL     1       4.883   3.429  16.956  0.00  0.00    +0.000 C 
BRANCH  15  16
ATOM     16  C   UNL     1       3.363   3.434  17.094  0.00  0.00    +0.000 C 
BRANCH  16  17
ATOM     17  C   UNL     1       2.843   4.367  18.194  0.00  0.00    +0.000 C 
BRANCH  17  18
ATOM     18  C   UNL     1       1.350   4.124  18.393  0.00  0.00    +0.000 C 
BRANCH  18  19
ATOM     19  C   UNL     1       0.982   3.699  19.799  0.00  0.00    +0.000 C 
ATOM     20  F   UNL     1       0.528   4.726  20.551  0.00  0.00    +0.000 F 
ATOM     21  F   UNL     1       0.058   2.713  19.797  0.00  0.00    +0.000 F 
BRANCH  19  22
ATOM     22  P   UNL     1       2.367   2.972  20.747  0.00  0.00    +0.000 P 
ATOM     23  O   UNL     1       2.790   4.325  21.336  0.00  0.00    +0.000 OA
BRANCH  22  24
ATOM     24  O   UNL     1       1.369   2.317  21.880  0.00  0.00    +0.000 OA
ATOM     25  H   UNL     1       1.332   2.879  22.678  0.00  0.00    +0.000 HD
ENDBRANCH  22  24
BRANCH  22  26
ATOM     26  O   UNL     1       3.676   2.282  21.646  0.00  0.00    +0.000 OA
ATOM     27  H   UNL     1       3.271   1.530  22.123  0.00  0.00    +0.000 HD
ENDBRANCH  22  26
ENDBRANCH  19  22
ENDBRANCH  18  19
ENDBRANCH  17  18
ENDBRANCH  16  17
ENDBRANCH  15  16
ENDBRANCH   8  15
TORSDOF 9
ENDMDL
MODEL 6
REMARK VINA RESULT:      -7.0      1.238      1.613
REMARK  Name = 
REMARK  9 active torsions:
REMARK  status: ('A' for Active; 'I' for Inactive)
REMARK    1  A    between atoms: C_4  and  O_5
REMARK    2  A    between atoms: N_9  and  C_10
REMARK    3  A    between atoms: C_10  and  C_11
REMARK    4  A    between atoms: C_11  and  C_12
REMARK    5  A    between atoms: C_12  and  C_13
REMARK    6  A    between atoms: C_13  and  C_14
REMARK    7  A    between atoms: C_14  and  P_17
REMARK    8  A    between atoms: P_17  and  O_19
REMARK    9  A    between atoms: P_17  and  O_20
REMARK                            x       y       z     vdW  Elec       q    Type
REMARK                         _______ _______ _______ _____ _____    ______ ____
ROOT
ATOM      1  N   UNL     1       6.292   5.427  14.114  0.00  0.00    +0.000 N 
ATOM      2  C   UNL     1       6.312   5.229  15.481  0.00  0.00    +0.000 A 
ATOM      3  N   UNL     1       7.429   4.680  15.990  0.00  0.00    +0.000 NA
ATOM      4  C   UNL     1       7.485   4.499  17.323  0.00  0.00    +0.000 A 
ATOM      5  C   UNL     1       6.422   4.855  18.143  0.00  0.00    +0.000 A 
ATOM      6  N   UNL     1       6.191   4.807  19.502  0.00  0.00    +0.000 NA
ATOM      7  C   UNL     1       4.979   5.303  19.655  0.00  0.00    +0.000 A 
ATOM      8  N   UNL     1       4.421   5.661  18.457  0.00  0.00    +0.000 N 
ATOM      9  C   UNL     1       5.332   5.383  17.477  0.00  0.00    +0.000 A 
ATOM     10  N   UNL     1       5.207   5.586  16.154  0.00  0.00    +0.000 NA
ATOM     11  H   UNL     1       6.947   4.806  13.658  0.00  0.00    +0.000 HD
ATOM     12  H   UNL     1       5.344   5.441  13.770  0.00  0.00    +0.000 HD
ENDROOT
BRANCH   4  13
ATOM     13  O   UNL     1       8.651   3.955  17.783  0.00  0.00    +0.000 OA
ATOM     14  H   UNL     1       9.109   3.771  16.946  0.00  0.00    +0.000 HD
ENDBRANCH   4  13
BRANCH   8  15
ATOM     15  C   UNL     1       3.109   6.234  18.262  0.00  0.00    +0.000 C 
BRANCH  15  16
ATOM     16  C   UNL     1       2.309   6.399  19.551  0.00  0.00    +0.000 C 
BRANCH  16  17
ATOM     17  C   UNL     1       1.423   5.193  19.889  0.00  0.00    +0.000 C 
BRANCH  17  18
ATOM     18  C   UNL     1       1.480   4.191  18.739  0.00  0.00    +0.000 C 
BRANCH  18  19
ATOM     19  C   UNL     1       1.422   2.745  19.186  0.00  0.00    +0.000 C 
ATOM     20  F   UNL     1       1.284   2.619  20.524  0.00  0.00    +0.000 F 
ATOM     21  F   UNL     1       0.422   2.073  18.575  0.00  0.00    +0.000 F 
BRANCH  19  22
ATOM     22  P   UNL     1       2.907   1.768  18.752  0.00  0.00    +0.000 P 
ATOM     23  O   UNL     1       3.222   2.629  17.521  0.00  0.00    +0.000 OA
BRANCH  22  24
ATOM     24  O   UNL     1       3.807   2.425  19.963  0.00  0.00    +0.000 OA
ATOM     25  H   UNL     1       3.234   2.848  20.632  0.00  0.00    +0.000 HD
ENDBRANCH  22  24
BRANCH  22  26
ATOM     26  O   UNL     1       4.312   0.844  18.344  0.00  0.00    +0.000 OA
ATOM     27  H   UNL     1       4.950   1.046  19.058  0.00  0.00    +0.000 HD
ENDBRANCH  22  26
ENDBRANCH  19  22
ENDBRANCH  18  19
ENDBRANCH  17  18
ENDBRANCH  16  17
ENDBRANCH  15  16
ENDBRANCH   8  15
TORSDOF 9
ENDMDL
MODEL 7
REMARK VINA RESULT:      -7.0      0.769      1.131
REMARK  Name = 
REMARK  9 active torsions:
REMARK  status: ('A' for Active; 'I' for Inactive)
REMARK    1  A    between atoms: C_4  and  O_5
REMARK    2  A    between atoms: N_9  and  C_10
REMARK    3  A    between atoms: C_10  and  C_11
REMARK    4  A    between atoms: C_11  and  C_12
REMARK    5  A    between atoms: C_12  and  C_13
REMARK    6  A    between atoms: C_13  and  C_14
REMARK    7  A    between atoms: C_14  and  P_17
REMARK    8  A    between atoms: P_17  and  O_19
REMARK    9  A    between atoms: P_17  and  O_20
REMARK                            x       y       z     vdW  Elec       q    Type
REMARK                         _______ _______ _______ _____ _____    ______ ____
ROOT
ATOM      1  N   UNL     1       6.950   5.075  14.090  0.00  0.00    +0.000 N 
ATOM      2  C   UNL     1       6.794   5.059  15.462  0.00  0.00    +0.000 A 
ATOM      3  N   UNL     1       7.781   4.482  16.170  0.00  0.00    +0.000 NA
ATOM      4  C   UNL     1       7.666   4.475  17.512  0.00  0.00    +0.000 A 
ATOM      5  C   UNL     1       6.561   5.032  18.143  0.00  0.00    +0.000 A 
ATOM      6  N   UNL     1       6.173   5.184  19.457  0.00  0.00    +0.000 NA
ATOM      7  C   UNL     1       5.012   5.805  19.396  0.00  0.00    +0.000 A 
ATOM      8  N   UNL     1       4.634   6.051  18.103  0.00  0.00    +0.000 N 
ATOM      9  C   UNL     1       5.615   5.564  17.286  0.00  0.00    +0.000 A 
ATOM     10  N   UNL     1       5.664   5.600  15.943  0.00  0.00    +0.000 NA
ATOM     11  H   UNL     1       7.582   4.342  13.798  0.00  0.00    +0.000 HD
ATOM     12  H   UNL     1       6.054   5.130  13.630  0.00  0.00    +0.000 HD
ENDROOT
BRANCH   4  13
ATOM     13  O   UNL     1       8.708   3.892  18.177  0.00  0.00    +0.000 OA
ATOM     14  H   UNL     1       8.722   3.015  17.761  0.00  0.00    +0.000 HD
ENDBRANCH   4  13
BRANCH   8  15
ATOM     15  C   UNL     1       3.422   6.711  17.677  0.00  0.00    +0.000 C 
BRANCH  15  16
ATOM     16  C   UNL     1       2.150   6.106  18.264  0.00  0.00    +0.000 C 
BRANCH  16  17
ATOM     17  C   UNL     1       1.815   4.713  17.717  0.00  0.00    +0.000 C 
BRANCH  17  18
ATOM     18  C   UNL     1       1.493   3.780  18.881  0.00  0.00    +0.000 C 
BRANCH  18  19
ATOM     19  C   UNL     1       1.937   2.350  18.659  0.00  0.00    +0.000 C 
ATOM     20  F   UNL     1       1.127   1.454  19.264  0.00  0.00    +0.000 F 
ATOM     21  F   UNL     1       2.018   2.051  17.344  0.00  0.00    +0.000 F 
BRANCH  19  22
ATOM     22  P   UNL     1       3.621   1.984  19.275  0.00  0.00    +0.000 P 
ATOM     23  O   UNL     1       4.296   2.513  18.001  0.00  0.00    +0.000 OA
BRANCH  22  24
ATOM     24  O   UNL     1       3.620   3.263  20.310  0.00  0.00    +0.000 OA
ATOM     25  H   UNL     1       3.805   4.096  19.833  0.00  0.00    +0.000 HD
ENDBRANCH  22  24
BRANCH  22  26
ATOM     26  O   UNL     1       5.213   1.639  19.859  0.00  0.00    +0.000 OA
ATOM     27  H   UNL     1       5.806   1.967  19.152  0.00  0.00    +0.000 HD
ENDBRANCH  22  26
ENDBRANCH  19  22
ENDBRANCH  18  19
ENDBRANCH  17  18
ENDBRANCH  16  17
ENDBRANCH  15  16
ENDBRANCH   8  15
TORSDOF 9
ENDMDL
MODEL 8
REMARK VINA RESULT:      -7.0      2.220      3.438
REMARK  Name = 
REMARK  9 active torsions:
REMARK  status: ('A' for Active; 'I' for Inactive)
REMARK    1  A    between atoms: C_4  and  O_5
REMARK    2  A    between atoms: N_9  and  C_10
REMARK    3  A    between atoms: C_10  and  C_11
REMARK    4  A    between atoms: C_11  and  C_12
REMARK    5  A    between atoms: C_12  and  C_13
REMARK    6  A    between atoms: C_13  and  C_14
REMARK    7  A    between atoms: C_14  and  P_17
REMARK    8  A    between atoms: P_17  and  O_19
REMARK    9  A    between atoms: P_17  and  O_20
REMARK                            x       y       z     vdW  Elec       q    Type
REMARK                         _______ _______ _______ _____ _____    ______ ____
ROOT
ATOM      1  N   UNL     1       8.594   5.194  20.245  0.00  0.00    +0.000 N 
ATOM      2  C   UNL     1       7.922   5.698  19.149  0.00  0.00    +0.000 A 
ATOM      3  N   UNL     1       8.156   6.986  18.843  0.00  0.00    +0.000 NA
ATOM      4  C   UNL     1       7.532   7.497  17.764  0.00  0.00    +0.000 A 
ATOM      5  C   UNL     1       6.667   6.725  17.000  0.00  0.00    +0.000 A 
ATOM      6  N   UNL     1       5.913   6.951  15.869  0.00  0.00    +0.000 NA
ATOM      7  C   UNL     1       5.305   5.805  15.634  0.00  0.00    +0.000 A 
ATOM      8  N   UNL     1       5.631   4.856  16.567  0.00  0.00    +0.000 N 
ATOM      9  C   UNL     1       6.504   5.427  17.449  0.00  0.00    +0.000 A 
ATOM     10  N   UNL     1       7.089   4.857  18.517  0.00  0.00    +0.000 NA
ATOM     11  H   UNL     1       8.869   5.943  20.865  0.00  0.00    +0.000 HD
ATOM     12  H   UNL     1       8.091   4.417  20.644  0.00  0.00    +0.000 HD
ENDROOT
BRANCH   4  13
ATOM     13  O   UNL     1       7.825   8.804  17.494  0.00  0.00    +0.000 OA
ATOM     14  H   UNL     1       7.535   8.870  16.570  0.00  0.00    +0.000 HD
ENDBRANCH   4  13
BRANCH   8  15
ATOM     15  C   UNL     1       5.144   3.497  16.610  0.00  0.00    +0.000 C 
BRANCH  15  16
ATOM     16  C   UNL     1       4.052   3.263  17.650  0.00  0.00    +0.000 C 
BRANCH  16  17
ATOM     17  C   UNL     1       2.630   3.318  17.078  0.00  0.00    +0.000 C 
BRANCH  17  18
ATOM     18  C   UNL     1       1.671   3.799  18.164  0.00  0.00    +0.000 C 
BRANCH  18  19
ATOM     19  C   UNL     1       1.272   2.720  19.148  0.00  0.00    +0.000 C 
ATOM     20  F   UNL     1      -0.065   2.537  19.205  0.00  0.00    +0.000 F 
ATOM     21  F   UNL     1       1.866   1.540  18.863  0.00  0.00    +0.000 F 
BRANCH  19  22
ATOM     22  P   UNL     1       1.797   3.046  20.870  0.00  0.00    +0.000 P 
ATOM     23  O   UNL     1       3.160   2.366  20.676  0.00  0.00    +0.000 OA
BRANCH  22  24
ATOM     24  O   UNL     1       2.081   4.641  20.579  0.00  0.00    +0.000 OA
ATOM     25  H   UNL     1       1.292   5.177  20.789  0.00  0.00    +0.000 HD
ENDBRANCH  22  24
BRANCH  22  26
ATOM     26  O   UNL     1       2.294   3.356  22.498  0.00  0.00    +0.000 OA
ATOM     27  H   UNL     1       1.486   3.207  23.030  0.00  0.00    +0.000 HD
ENDBRANCH  22  26
ENDBRANCH  19  22
ENDBRANCH  18  19
ENDBRANCH  17  18
ENDBRANCH  16  17
ENDBRANCH  15  16
ENDBRANCH   8  15
TORSDOF 9
ENDMDL
MODEL 9
REMARK VINA RESULT:      -6.9      3.125      4.095
REMARK  Name = 
REMARK  9 active torsions:
REMARK  status: ('A' for Active; 'I' for Inactive)
REMARK    1  A    between atoms: C_4  and  O_5
REMARK    2  A    between atoms: N_9  and  C_10
REMARK    3  A    between atoms: C_10  and  C_11
REMARK    4  A    between atoms: C_11  and  C_12
REMARK    5  A    between atoms: C_12  and  C_13
REMARK    6  A    between atoms: C_13  and  C_14
REMARK    7  A    between atoms: C_14  and  P_17
REMARK    8  A    between atoms: P_17  and  O_19
REMARK    9  A    between atoms: P_17  and  O_20
REMARK                            x       y       z     vdW  Elec       q    Type
REMARK                         _______ _______ _______ _____ _____    ______ ____
ROOT
ATOM      1  N   UNL     1       8.214   5.656  20.117  0.00  0.00    +0.000 N 
ATOM      2  C   UNL     1       7.396   5.295  19.064  0.00  0.00    +0.000 A 
ATOM      3  N   UNL     1       7.697   5.824  17.865  0.00  0.00    +0.000 NA
ATOM      4  C   UNL     1       6.930   5.471  16.815  0.00  0.00    +0.000 A 
ATOM      5  C   UNL     1       5.859   4.599  16.967  0.00  0.00    +0.000 A 
ATOM      6  N   UNL     1       4.926   4.056  16.111  0.00  0.00    +0.000 NA
ATOM      7  C   UNL     1       4.171   3.291  16.875  0.00  0.00    +0.000 A 
ATOM      8  N   UNL     1       4.574   3.326  18.183  0.00  0.00    +0.000 N 
ATOM      9  C   UNL     1       5.655   4.157  18.261  0.00  0.00    +0.000 A 
ATOM     10  N   UNL     1       6.375   4.473  19.352  0.00  0.00    +0.000 NA
ATOM     11  H   UNL     1       8.679   6.531  19.919  0.00  0.00    +0.000 HD
ATOM     12  H   UNL     1       7.722   5.575  20.994  0.00  0.00    +0.000 HD
ENDROOT
BRANCH   4  13
ATOM     13  O   UNL     1       7.295   6.025  15.621  0.00  0.00    +0.000 OA
ATOM     14  H   UNL     1       6.468   5.942  15.120  0.00  0.00    +0.000 HD
ENDBRANCH   4  13
BRANCH   8  15
ATOM     15  C   UNL     1       3.969   2.609  19.282  0.00  0.00    +0.000 C 
BRANCH  15  16
ATOM     16  C   UNL     1       2.478   2.343  19.102  0.00  0.00    +0.000 C 
BRANCH  16  17
ATOM     17  C   UNL     1       1.622   2.767  20.302  0.00  0.00    +0.000 C 
BRANCH  17  18
ATOM     18  C   UNL     1       0.914   4.078  19.976  0.00  0.00    +0.000 C 
BRANCH  18  19
ATOM     19  C   UNL     1       1.630   5.305  20.498  0.00  0.00    +0.000 C 
ATOM     20  F   UNL     1       0.789   6.193  21.073  0.00  0.00    +0.000 F 
ATOM     21  F   UNL     1       2.597   4.980  21.384  0.00  0.00    +0.000 F 
BRANCH  19  22
ATOM     22  P   UNL     1       2.536   6.247  19.218  0.00  0.00    +0.000 P 
ATOM     23  O   UNL     1       1.977   7.596  19.689  0.00  0.00    +0.000 OA
BRANCH  22  24
ATOM     24  O   UNL     1       3.978   6.096  19.996  0.00  0.00    +0.000 OA
ATOM     25  H   UNL     1       4.533   5.414  19.570  0.00  0.00    +0.000 HD
ENDBRANCH  22  24
BRANCH  22  26
ATOM     26  O   UNL     1       3.395   7.136  18.007  0.00  0.00    +0.000 OA
ATOM     27  H   UNL     1       2.780   7.165  17.246  0.00  0.00    +0.000 HD
ENDBRANCH  22  26
ENDBRANCH  19  22
ENDBRANCH  18  19
ENDBRANCH  17  18
ENDBRANCH  16  17
ENDBRANCH  15  16
ENDBRANCH   8  15
TORSDOF 9
ENDMDL
