MODEL 1
REMARK VINA RESULT:      -8.3      0.000      0.000
REMARK  Name = 
REMARK  6 active torsions:
REMARK  status: ('A' for Active; 'I' for Inactive)
REMARK    1  A    between atoms: C_1  and  O_2
REMARK    2  A    between atoms: O_2  and  C_3
REMARK    3  A    between atoms: C_8  and  N_9
REMARK    4  A    between atoms: C_13  and  C_15
REMARK    5  A    between atoms: C_15  and  N_16
REMARK    6  A    between atoms: C_21  and  C_22
REMARK                            x       y       z     vdW  Elec       q    Type
REMARK                         _______ _______ _______ _____ _____    ______ ____
ROOT
ATOM      1  C   UNL     1       0.039  11.331  20.792  0.00  0.00    +0.000 C 
ENDROOT
BRANCH   1   2
ATOM      2  N   UNL     1       0.657  10.122  20.316  0.00  0.00    +0.000 N 
ATOM      3  N   UNL     1       0.645   8.938  21.032  0.00  0.00    +0.000 NA
ATOM      4  C   UNL     1       1.367   8.141  20.304  0.00  0.00    +0.000 A 
ATOM      5  C   UNL     1       1.706   6.753  20.602  0.00  0.00    +0.000 A 
ATOM      6  C   UNL     1       2.496   6.106  19.737  0.00  0.00    +0.000 A 
ATOM      7  C   UNL     1       2.942   6.828  18.505  0.00  0.00    +0.000 A 
ATOM      8  N   UNL     1       2.668   8.074  18.252  0.00  0.00    +0.000 NA
ATOM      9  N   UNL     1       1.867   8.688  19.171  0.00  0.00    +0.000 N 
ATOM     10  C   UNL     1       1.441  10.002  19.152  0.00  0.00    +0.000 A 
ATOM     11  O   UNL     1       1.709  10.896  18.361  0.00  0.00    +0.000 OA
BRANCH   7  12
ATOM     12  C   UNL     1       3.761   6.041  17.538  0.00  0.00    +0.000 A 
ATOM     13  C   UNL     1       3.691   4.641  17.500  0.00  0.00    +0.000 A 
ATOM     14  C   UNL     1       4.480   3.921  16.598  0.00  0.00    +0.000 A 
ATOM     15  C   UNL     1       5.324   4.599  15.722  0.00  0.00    +0.000 A 
ATOM     16 CL   UNL     1       6.292   3.705  14.617  0.00  0.00    +0.000 Cl
ATOM     17  C   UNL     1       5.383   5.992  15.732  0.00  0.00    +0.000 A 
ATOM     18  C   UNL     1       4.597   6.716  16.637  0.00  0.00    +0.000 A 
ENDBRANCH   7  12
ENDBRANCH   1   2
BRANCH   1  23
ATOM     19  N   UNL     1      -4.574  13.012  22.279  0.00  0.00    +0.000 N 
ATOM     20  C   UNL     1      -4.743  12.408  20.948  0.00  0.00    +0.000 C 
ATOM     21  C   UNL     1      -3.487  12.688  20.102  0.00  0.00    +0.000 C 
ATOM     22  N   UNL     1      -2.261  12.255  20.784  0.00  0.00    +0.000 N 
ATOM     23  C   UNL     1      -1.236  11.690  20.025  0.00  0.00    +0.000 C 
ATOM     24  O   UNL     1      -1.367  11.471  18.821  0.00  0.00    +0.000 OA
ATOM     25  C   UNL     1      -2.124  12.754  22.169  0.00  0.00    +0.000 C 
ATOM     26  C   UNL     1      -3.397  12.512  23.010  0.00  0.00    +0.000 C 
BRANCH  19  32
ATOM     27  C   UNL     1      -5.793  15.034  23.005  0.00  0.00    +0.000 A 
ATOM     28  C   UNL     1      -6.921  15.596  23.629  0.00  0.00    +0.000 A 
ATOM     29  C   UNL     1      -7.915  14.787  24.173  0.00  0.00    +0.000 A 
ATOM     30  C   UNL     1      -7.780  13.409  24.124  0.00  0.00    +0.000 A 
ATOM     31  C   UNL     1      -6.650  12.843  23.528  0.00  0.00    +0.000 A 
ATOM     32  C   UNL     1      -5.631  13.623  22.945  0.00  0.00    +0.000 A 
BRANCH  27  34
ATOM     33  C   UNL     1      -5.155  16.404  21.155  0.00  0.00    +0.000 C 
ATOM     34  O   UNL     1      -4.824  15.808  22.403  0.00  0.00    +0.000 OA
ENDBRANCH  27  34
ENDBRANCH  19  32
ENDBRANCH   1  23
TORSDOF 5
ENDMDL
MODEL 2
REMARK VINA RESULT:      -8.0      1.309      2.011
REMARK  Name = 
REMARK  6 active torsions:
REMARK  status: ('A' for Active; 'I' for Inactive)
REMARK    1  A    between atoms: C_1  and  O_2
REMARK    2  A    between atoms: O_2  and  C_3
REMARK    3  A    between atoms: C_8  and  N_9
REMARK    4  A    between atoms: C_13  and  C_15
REMARK    5  A    between atoms: C_15  and  N_16
REMARK    6  A    between atoms: C_21  and  C_22
REMARK                            x       y       z     vdW  Elec       q    Type
REMARK                         _______ _______ _______ _____ _____    ______ ____
ROOT
ATOM      1  C   UNL     1      -0.077  11.684  20.798  0.00  0.00    +0.000 C 
ENDROOT
BRANCH   1   2
ATOM      2  N   UNL     1       0.513  10.444  20.372  0.00  0.00    +0.000 N 
ATOM      3  N   UNL     1       0.458   9.285  21.126  0.00  0.00    +0.000 NA
ATOM      4  C   UNL     1       1.168   8.445  20.437  0.00  0.00    +0.000 A 
ATOM      5  C   UNL     1       1.464   7.059  20.785  0.00  0.00    +0.000 A 
ATOM      6  C   UNL     1       2.248   6.362  19.955  0.00  0.00    +0.000 A 
ATOM      7  C   UNL     1       2.731   7.030  18.707  0.00  0.00    +0.000 A 
ATOM      8  N   UNL     1       2.496   8.273  18.408  0.00  0.00    +0.000 NA
ATOM      9  N   UNL     1       1.699   8.940  19.294  0.00  0.00    +0.000 N 
ATOM     10  C   UNL     1       1.311  10.264  19.225  0.00  0.00    +0.000 A 
ATOM     11  O   UNL     1       1.615  11.123  18.409  0.00  0.00    +0.000 OA
BRANCH   7  12
ATOM     12  C   UNL     1       3.542   6.188  17.779  0.00  0.00    +0.000 A 
ATOM     13  C   UNL     1       3.361   4.800  17.714  0.00  0.00    +0.000 A 
ATOM     14  C   UNL     1       4.143   4.027  16.850  0.00  0.00    +0.000 A 
ATOM     15  C   UNL     1       5.092   4.643  16.038  0.00  0.00    +0.000 A 
ATOM     16 CL   UNL     1       6.051   3.685  14.980  0.00  0.00    +0.000 Cl
ATOM     17  C   UNL     1       5.263   6.026  16.075  0.00  0.00    +0.000 A 
ATOM     18  C   UNL     1       4.485   6.802  16.941  0.00  0.00    +0.000 A 
ENDBRANCH   7  12
ENDBRANCH   1   2
BRANCH   1  23
ATOM     19  N   UNL     1      -4.239  13.989  22.718  0.00  0.00    +0.000 N 
ATOM     20  C   UNL     1      -3.463  13.478  23.860  0.00  0.00    +0.000 C 
ATOM     21  C   UNL     1      -2.803  12.144  23.465  0.00  0.00    +0.000 C 
ATOM     22  N   UNL     1      -2.011  12.269  22.235  0.00  0.00    +0.000 N 
ATOM     23  C   UNL     1      -0.810  11.565  22.137  0.00  0.00    +0.000 C 
ATOM     24  O   UNL     1      -0.362  10.914  23.081  0.00  0.00    +0.000 OA
ATOM     25  C   UNL     1      -2.733  12.890  21.105  0.00  0.00    +0.000 C 
ATOM     26  C   UNL     1      -3.432  14.207  21.505  0.00  0.00    +0.000 C 
BRANCH  19  32
ATOM     27  C   UNL     1      -6.701  13.914  22.901  0.00  0.00    +0.000 A 
ATOM     28  C   UNL     1      -7.907  14.592  23.154  0.00  0.00    +0.000 A 
ATOM     29  C   UNL     1      -7.916  15.957  23.429  0.00  0.00    +0.000 A 
ATOM     30  C   UNL     1      -6.725  16.664  23.427  0.00  0.00    +0.000 A 
ATOM     31  C   UNL     1      -5.525  16.003  23.152  0.00  0.00    +0.000 A 
ATOM     32  C   UNL     1      -5.467  14.620  22.891  0.00  0.00    +0.000 A 
BRANCH  27  34
ATOM     33  C   UNL     1      -7.594  11.755  23.395  0.00  0.00    +0.000 C 
ATOM     34  O   UNL     1      -6.654  12.554  22.688  0.00  0.00    +0.000 OA
ENDBRANCH  27  34
ENDBRANCH  19  32
ENDBRANCH   1  23
TORSDOF 5
ENDMDL
MODEL 3
REMARK VINA RESULT:      -7.9      1.194      1.532
REMARK  Name = 
REMARK  6 active torsions:
REMARK  status: ('A' for Active; 'I' for Inactive)
REMARK    1  A    between atoms: C_1  and  O_2
REMARK    2  A    between atoms: O_2  and  C_3
REMARK    3  A    between atoms: C_8  and  N_9
REMARK    4  A    between atoms: C_13  and  C_15
REMARK    5  A    between atoms: C_15  and  N_16
REMARK    6  A    between atoms: C_21  and  C_22
REMARK                            x       y       z     vdW  Elec       q    Type
REMARK                         _______ _______ _______ _____ _____    ______ ____
ROOT
ATOM      1  C   UNL     1      -0.001  11.478  20.603  0.00  0.00    +0.000 C 
ENDROOT
BRANCH   1   2
ATOM      2  N   UNL     1       0.617  10.253  20.170  0.00  0.00    +0.000 N 
ATOM      3  N   UNL     1       0.584   9.088  20.916  0.00  0.00    +0.000 NA
ATOM      4  C   UNL     1       1.314   8.268  20.224  0.00  0.00    +0.000 A 
ATOM      5  C   UNL     1       1.639   6.887  20.563  0.00  0.00    +0.000 A 
ATOM      6  C   UNL     1       2.439   6.212  19.731  0.00  0.00    +0.000 A 
ATOM      7  C   UNL     1       2.911   6.898  18.488  0.00  0.00    +0.000 A 
ATOM      8  N   UNL     1       2.650   8.139  18.197  0.00  0.00    +0.000 NA
ATOM      9  N   UNL     1       1.838   8.782  19.085  0.00  0.00    +0.000 N 
ATOM     10  C   UNL     1       1.421  10.098  19.024  0.00  0.00    +0.000 A 
ATOM     11  O   UNL     1       1.709  10.969  18.214  0.00  0.00    +0.000 OA
BRANCH   7  12
ATOM     12  C   UNL     1       3.743   6.081  17.557  0.00  0.00    +0.000 A 
ATOM     13  C   UNL     1       3.597   4.688  17.489  0.00  0.00    +0.000 A 
ATOM     14  C   UNL     1       4.397   3.938  16.622  0.00  0.00    +0.000 A 
ATOM     15  C   UNL     1       5.329   4.581  15.810  0.00  0.00    +0.000 A 
ATOM     16 CL   UNL     1       6.311   3.650  14.748  0.00  0.00    +0.000 Cl
ATOM     17  C   UNL     1       5.465   5.967  15.851  0.00  0.00    +0.000 A 
ATOM     18  C   UNL     1       4.668   6.721  16.720  0.00  0.00    +0.000 A 
ENDBRANCH   7  12
ENDBRANCH   1   2
BRANCH   1  23
ATOM     19  N   UNL     1      -4.099  13.646  22.800  0.00  0.00    +0.000 N 
ATOM     20  C   UNL     1      -3.202  13.219  23.886  0.00  0.00    +0.000 C 
ATOM     21  C   UNL     1      -2.508  11.905  23.481  0.00  0.00    +0.000 C 
ATOM     22  N   UNL     1      -1.833  12.022  22.183  0.00  0.00    +0.000 N 
ATOM     23  C   UNL     1      -0.610  11.375  22.004  0.00  0.00    +0.000 C 
ATOM     24  O   UNL     1      -0.048  10.784  22.926  0.00  0.00    +0.000 OA
ATOM     25  C   UNL     1      -2.681  12.561  21.099  0.00  0.00    +0.000 C 
ATOM     26  C   UNL     1      -3.412  13.857  21.515  0.00  0.00    +0.000 C 
BRANCH  19  32
ATOM     27  C   UNL     1      -5.491  15.578  23.457  0.00  0.00    +0.000 A 
ATOM     28  C   UNL     1      -6.772  16.129  23.634  0.00  0.00    +0.000 A 
ATOM     29  C   UNL     1      -7.916  15.372  23.393  0.00  0.00    +0.000 A 
ATOM     30  C   UNL     1      -7.792  14.050  23.000  0.00  0.00    +0.000 A 
ATOM     31  C   UNL     1      -6.522  13.487  22.847  0.00  0.00    +0.000 A 
ATOM     32  C   UNL     1      -5.338  14.222  23.058  0.00  0.00    +0.000 A 
BRANCH  27  34
ATOM     33  C   UNL     1      -4.034  16.742  24.950  0.00  0.00    +0.000 C 
ATOM     34  O   UNL     1      -4.342  16.320  23.628  0.00  0.00    +0.000 OA
ENDBRANCH  27  34
ENDBRANCH  19  32
ENDBRANCH   1  23
TORSDOF 5
ENDMDL
MODEL 4
REMARK VINA RESULT:      -7.9      0.834      1.582
REMARK  Name = 
REMARK  6 active torsions:
REMARK  status: ('A' for Active; 'I' for Inactive)
REMARK    1  A    between atoms: C_1  and  O_2
REMARK    2  A    between atoms: O_2  and  C_3
REMARK    3  A    between atoms: C_8  and  N_9
REMARK    4  A    between atoms: C_13  and  C_15
REMARK    5  A    between atoms: C_15  and  N_16
REMARK    6  A    between atoms: C_21  and  C_22
REMARK                            x       y       z     vdW  Elec       q    Type
REMARK                         _______ _______ _______ _____ _____    ______ ____
ROOT
ATOM      1  C   UNL     1      -0.051  11.158  20.593  0.00  0.00    +0.000 C 
ENDROOT
BRANCH   1   2
ATOM      2  N   UNL     1       0.628   9.972  20.144  0.00  0.00    +0.000 N 
ATOM      3  N   UNL     1       0.729   8.825  20.913  0.00  0.00    +0.000 NA
ATOM      4  C   UNL     1       1.473   8.045  20.190  0.00  0.00    +0.000 A 
ATOM      5  C   UNL     1       1.921   6.699  20.534  0.00  0.00    +0.000 A 
ATOM      6  C   UNL     1       2.716   6.066  19.664  0.00  0.00    +0.000 A 
ATOM      7  C   UNL     1       3.057   6.756  18.382  0.00  0.00    +0.000 A 
ATOM      8  N   UNL     1       2.686   7.967  18.085  0.00  0.00    +0.000 NA
ATOM      9  N   UNL     1       1.885   8.569  19.011  0.00  0.00    +0.000 N 
ATOM     10  C   UNL     1       1.368   9.849  18.952  0.00  0.00    +0.000 A 
ATOM     11  O   UNL     1       1.539  10.720  18.110  0.00  0.00    +0.000 OA
BRANCH   7  12
ATOM     12  C   UNL     1       3.887   5.980  17.415  0.00  0.00    +0.000 A 
ATOM     13  C   UNL     1       3.871   4.578  17.408  0.00  0.00    +0.000 A 
ATOM     14  C   UNL     1       4.669   3.869  16.505  0.00  0.00    +0.000 A 
ATOM     15  C   UNL     1       5.468   4.560  15.597  0.00  0.00    +0.000 A 
ATOM     16 CL   UNL     1       6.449   3.680  14.491  0.00  0.00    +0.000 Cl
ATOM     17  C   UNL     1       5.473   5.954  15.577  0.00  0.00    +0.000 A 
ATOM     18  C   UNL     1       4.679   6.667  16.483  0.00  0.00    +0.000 A 
ENDBRANCH   7  12
ENDBRANCH   1   2
BRANCH   1  23
ATOM     19  N   UNL     1      -4.279  13.769  21.868  0.00  0.00    +0.000 N 
ATOM     20  C   UNL     1      -4.676  12.769  20.863  0.00  0.00    +0.000 C 
ATOM     21  C   UNL     1      -3.533  12.596  19.845  0.00  0.00    +0.000 C 
ATOM     22  N   UNL     1      -2.259  12.284  20.502  0.00  0.00    +0.000 N 
ATOM     23  C   UNL     1      -1.393  11.378  19.888  0.00  0.00    +0.000 C 
ATOM     24  O   UNL     1      -1.706  10.777  18.861  0.00  0.00    +0.000 OA
ATOM     25  C   UNL     1      -1.894  13.206  21.598  0.00  0.00    +0.000 C 
ATOM     26  C   UNL     1      -3.051  13.416  22.599  0.00  0.00    +0.000 C 
BRANCH  19  32
ATOM     27  C   UNL     1      -6.163  14.344  23.358  0.00  0.00    +0.000 A 
ATOM     28  C   UNL     1      -7.008  15.330  23.899  0.00  0.00    +0.000 A 
ATOM     29  C   UNL     1      -6.887  16.664  23.518  0.00  0.00    +0.000 A 
ATOM     30  C   UNL     1      -5.940  17.022  22.572  0.00  0.00    +0.000 A 
ATOM     31  C   UNL     1      -5.114  16.045  22.011  0.00  0.00    +0.000 A 
ATOM     32  C   UNL     1      -5.187  14.688  22.383  0.00  0.00    +0.000 A 
BRANCH  27  34
ATOM     33  C   UNL     1      -7.467  12.362  23.629  0.00  0.00    +0.000 C 
ATOM     34  O   UNL     1      -6.218  13.028  23.762  0.00  0.00    +0.000 OA
ENDBRANCH  27  34
ENDBRANCH  19  32
ENDBRANCH   1  23
TORSDOF 5
ENDMDL
MODEL 5
REMARK VINA RESULT:      -7.8      5.213      8.253
REMARK  Name = 
REMARK  6 active torsions:
REMARK  status: ('A' for Active; 'I' for Inactive)
REMARK    1  A    between atoms: C_1  and  O_2
REMARK    2  A    between atoms: O_2  and  C_3
REMARK    3  A    between atoms: C_8  and  N_9
REMARK    4  A    between atoms: C_13  and  C_15
REMARK    5  A    between atoms: C_15  and  N_16
REMARK    6  A    between atoms: C_21  and  C_22
REMARK                            x       y       z     vdW  Elec       q    Type
REMARK                         _______ _______ _______ _____ _____    ______ ____
ROOT
ATOM      1  C   UNL     1       0.194  13.443  20.250  0.00  0.00    +0.000 C 
ENDROOT
BRANCH   1   2
ATOM      2  N   UNL     1       0.689  12.140  19.895  0.00  0.00    +0.000 N 
ATOM      3  N   UNL     1       1.002  11.782  18.595  0.00  0.00    +0.000 NA
ATOM      4  C   UNL     1       1.321  10.528  18.699  0.00  0.00    +0.000 A 
ATOM      5  C   UNL     1       1.720   9.635  17.616  0.00  0.00    +0.000 A 
ATOM      6  C   UNL     1       1.979   8.360  17.923  0.00  0.00    +0.000 A 
ATOM      7  C   UNL     1       1.888   7.943  19.357  0.00  0.00    +0.000 A 
ATOM      8  N   UNL     1       1.504   8.727  20.320  0.00  0.00    +0.000 NA
ATOM      9  N   UNL     1       1.243  10.014  19.949  0.00  0.00    +0.000 N 
ATOM     10  C   UNL     1       0.806  11.039  20.766  0.00  0.00    +0.000 A 
ATOM     11  O   UNL     1       0.521  11.019  21.955  0.00  0.00    +0.000 OA
BRANCH   7  12
ATOM     12  C   UNL     1       2.256   6.528  19.658  0.00  0.00    +0.000 A 
ATOM     13  C   UNL     1       1.695   5.850  20.749  0.00  0.00    +0.000 A 
ATOM     14  C   UNL     1       2.065   4.531  21.024  0.00  0.00    +0.000 A 
ATOM     15  C   UNL     1       2.981   3.882  20.199  0.00  0.00    +0.000 A 
ATOM     16 CL   UNL     1       3.433   2.259  20.546  0.00  0.00    +0.000 Cl
ATOM     17  C   UNL     1       3.526   4.537  19.096  0.00  0.00    +0.000 A 
ATOM     18  C   UNL     1       3.161   5.860  18.820  0.00  0.00    +0.000 A 
ENDBRANCH   7  12
ENDBRANCH   1   2
BRANCH   1  23
ATOM     19  N   UNL     1       4.968  15.207  19.606  0.00  0.00    +0.000 N 
ATOM     20  C   UNL     1       4.739  15.100  21.057  0.00  0.00    +0.000 C 
ATOM     21  C   UNL     1       3.271  15.453  21.364  0.00  0.00    +0.000 C 
ATOM     22  N   UNL     1       2.338  14.646  20.568  0.00  0.00    +0.000 N 
ATOM     23  C   UNL     1       1.152  14.215  21.162  0.00  0.00    +0.000 C 
ATOM     24  O   UNL     1       0.910  14.422  22.351  0.00  0.00    +0.000 OA
ATOM     25  C   UNL     1       2.619  14.642  19.117  0.00  0.00    +0.000 C 
ATOM     26  C   UNL     1       4.099  14.329  18.805  0.00  0.00    +0.000 C 
BRANCH  19  32
ATOM     27  C   UNL     1       6.459  17.104  19.078  0.00  0.00    +0.000 A 
ATOM     28  C   UNL     1       7.705  17.557  18.610  0.00  0.00    +0.000 A 
ATOM     29  C   UNL     1       8.676  16.658  18.176  0.00  0.00    +0.000 A 
ATOM     30  C   UNL     1       8.403  15.300  18.181  0.00  0.00    +0.000 A 
ATOM     31  C   UNL     1       7.158  14.843  18.621  0.00  0.00    +0.000 A 
ATOM     32  C   UNL     1       6.154  15.715  19.089  0.00  0.00    +0.000 A 
BRANCH  27  34
ATOM     33  C   UNL     1       5.787  18.611  20.805  0.00  0.00    +0.000 C 
ATOM     34  O   UNL     1       5.502  17.964  19.571  0.00  0.00    +0.000 OA
ENDBRANCH  27  34
ENDBRANCH  19  32
ENDBRANCH   1  23
TORSDOF 5
ENDMDL
MODEL 6
REMARK VINA RESULT:      -7.6      2.115      2.747
REMARK  Name = 
REMARK  6 active torsions:
REMARK  status: ('A' for Active; 'I' for Inactive)
REMARK    1  A    between atoms: C_1  and  O_2
REMARK    2  A    between atoms: O_2  and  C_3
REMARK    3  A    between atoms: C_8  and  N_9
REMARK    4  A    between atoms: C_13  and  C_15
REMARK    5  A    between atoms: C_15  and  N_16
REMARK    6  A    between atoms: C_21  and  C_22
REMARK                            x       y       z     vdW  Elec       q    Type
REMARK                         _______ _______ _______ _____ _____    ______ ____
ROOT
ATOM      1  C   UNL     1       0.809  12.274  19.360  0.00  0.00    +0.000 C 
ENDROOT
BRANCH   1   2
ATOM      2  N   UNL     1       0.997  10.857  19.528  0.00  0.00    +0.000 N 
ATOM      3  N   UNL     1       0.687  10.191  20.700  0.00  0.00    +0.000 NA
ATOM      4  C   UNL     1       1.080   8.975  20.466  0.00  0.00    +0.000 A 
ATOM      5  C   UNL     1       1.010   7.842  21.382  0.00  0.00    +0.000 A 
ATOM      6  C   UNL     1       1.500   6.671  20.963  0.00  0.00    +0.000 A 
ATOM      7  C   UNL     1       2.044   6.586  19.572  0.00  0.00    +0.000 A 
ATOM      8  N   UNL     1       2.137   7.600  18.763  0.00  0.00    +0.000 NA
ATOM      9  N   UNL     1       1.630   8.772  19.245  0.00  0.00    +0.000 N 
ATOM     10  C   UNL     1       1.617   9.995  18.602  0.00  0.00    +0.000 A 
ATOM     11  O   UNL     1       2.078  10.307  17.513  0.00  0.00    +0.000 OA
BRANCH   7  12
ATOM     12  C   UNL     1       2.513   5.241  19.127  0.00  0.00    +0.000 A 
ATOM     13  C   UNL     1       1.730   4.445  18.280  0.00  0.00    +0.000 A 
ATOM     14  C   UNL     1       2.180   3.180  17.887  0.00  0.00    +0.000 A 
ATOM     15  C   UNL     1       3.419   2.720  18.326  0.00  0.00    +0.000 A 
ATOM     16 CL   UNL     1       3.964   1.162  17.841  0.00  0.00    +0.000 Cl
ATOM     17  C   UNL     1       4.218   3.513  19.148  0.00  0.00    +0.000 A 
ATOM     18  C   UNL     1       3.769   4.778  19.546  0.00  0.00    +0.000 A 
ENDBRANCH   7  12
ENDBRANCH   1   2
BRANCH   1  23
ATOM     19  N   UNL     1      -3.142  14.394  21.853  0.00  0.00    +0.000 N 
ATOM     20  C   UNL     1      -1.916  15.029  22.366  0.00  0.00    +0.000 C 
ATOM     21  C   UNL     1      -0.786  13.984  22.407  0.00  0.00    +0.000 C 
ATOM     22  N   UNL     1      -0.599  13.330  21.106  0.00  0.00    +0.000 N 
ATOM     23  C   UNL     1       0.697  13.021  20.691  0.00  0.00    +0.000 C 
ATOM     24  O   UNL     1       1.684  13.356  21.346  0.00  0.00    +0.000 OA
ATOM     25  C   UNL     1      -1.839  12.787  20.512  0.00  0.00    +0.000 C 
ATOM     26  C   UNL     1      -2.989  13.818  20.507  0.00  0.00    +0.000 C 
BRANCH  19  32
ATOM     27  C   UNL     1      -5.175  13.775  23.112  0.00  0.00    +0.000 A 
ATOM     28  C   UNL     1      -6.404  14.164  23.672  0.00  0.00    +0.000 A 
ATOM     29  C   UNL     1      -6.871  15.468  23.538  0.00  0.00    +0.000 A 
ATOM     30  C   UNL     1      -6.128  16.391  22.820  0.00  0.00    +0.000 A 
ATOM     31  C   UNL     1      -4.917  16.007  22.238  0.00  0.00    +0.000 A 
ATOM     32  C   UNL     1      -4.396  14.703  22.367  0.00  0.00    +0.000 A 
BRANCH  27  34
ATOM     33  C   UNL     1      -4.113  12.197  24.557  0.00  0.00    +0.000 C 
ATOM     34  O   UNL     1      -4.657  12.509  23.280  0.00  0.00    +0.000 OA
ENDBRANCH  27  34
ENDBRANCH  19  32
ENDBRANCH   1  23
TORSDOF 5
ENDMDL
MODEL 7
REMARK VINA RESULT:      -7.5      1.155      1.550
REMARK  Name = 
REMARK  6 active torsions:
REMARK  status: ('A' for Active; 'I' for Inactive)
REMARK    1  A    between atoms: C_1  and  O_2
REMARK    2  A    between atoms: O_2  and  C_3
REMARK    3  A    between atoms: C_8  and  N_9
REMARK    4  A    between atoms: C_13  and  C_15
REMARK    5  A    between atoms: C_15  and  N_16
REMARK    6  A    between atoms: C_21  and  C_22
REMARK                            x       y       z     vdW  Elec       q    Type
REMARK                         _______ _______ _______ _____ _____    ______ ____
ROOT
ATOM      1  C   UNL     1       0.014  11.230  20.567  0.00  0.00    +0.000 C 
ENDROOT
BRANCH   1   2
ATOM      2  N   UNL     1       0.688  10.046  20.106  0.00  0.00    +0.000 N 
ATOM      3  N   UNL     1       0.780   8.890  20.860  0.00  0.00    +0.000 NA
ATOM      4  C   UNL     1       1.522   8.114  20.129  0.00  0.00    +0.000 A 
ATOM      5  C   UNL     1       1.961   6.762  20.457  0.00  0.00    +0.000 A 
ATOM      6  C   UNL     1       2.755   6.135  19.582  0.00  0.00    +0.000 A 
ATOM      7  C   UNL     1       3.104   6.840  18.310  0.00  0.00    +0.000 A 
ATOM      8  N   UNL     1       2.742   8.056  18.028  0.00  0.00    +0.000 NA
ATOM      9  N   UNL     1       1.941   8.651  18.958  0.00  0.00    +0.000 N 
ATOM     10  C   UNL     1       1.431   9.935  18.914  0.00  0.00    +0.000 A 
ATOM     11  O   UNL     1       1.610  10.815  18.084  0.00  0.00    +0.000 OA
BRANCH   7  12
ATOM     12  C   UNL     1       3.934   6.072  17.335  0.00  0.00    +0.000 A 
ATOM     13  C   UNL     1       4.687   6.726  16.351  0.00  0.00    +0.000 A 
ATOM     14  C   UNL     1       5.444   5.988  15.437  0.00  0.00    +0.000 A 
ATOM     15  C   UNL     1       5.464   4.598  15.517  0.00  0.00    +0.000 A 
ATOM     16 CL   UNL     1       6.396   3.697  14.387  0.00  0.00    +0.000 Cl
ATOM     17  C   UNL     1       4.739   3.937  16.508  0.00  0.00    +0.000 A 
ATOM     18  C   UNL     1       3.977   4.672  17.422  0.00  0.00    +0.000 A 
ENDBRANCH   7  12
ENDBRANCH   1   2
BRANCH   1  23
ATOM     19  N   UNL     1      -4.019  14.131  21.848  0.00  0.00    +0.000 N 
ATOM     20  C   UNL     1      -4.532  13.008  21.046  0.00  0.00    +0.000 C 
ATOM     21  C   UNL     1      -3.501  12.653  19.958  0.00  0.00    +0.000 C 
ATOM     22  N   UNL     1      -2.172  12.400  20.527  0.00  0.00    +0.000 N 
ATOM     23  C   UNL     1      -1.388  11.387  19.972  0.00  0.00    +0.000 C 
ATOM     24  O   UNL     1      -1.813  10.653  19.081  0.00  0.00    +0.000 OA
ATOM     25  C   UNL     1      -1.683  13.460  21.433  0.00  0.00    +0.000 C 
ATOM     26  C   UNL     1      -2.729  13.850  22.500  0.00  0.00    +0.000 C 
BRANCH  19  32
ATOM     27  C   UNL     1      -5.560  16.016  21.435  0.00  0.00    +0.000 A 
ATOM     28  C   UNL     1      -6.449  16.975  21.952  0.00  0.00    +0.000 A 
ATOM     29  C   UNL     1      -6.680  17.072  23.322  0.00  0.00    +0.000 A 
ATOM     30  C   UNL     1      -6.006  16.230  24.191  0.00  0.00    +0.000 A 
ATOM     31  C   UNL     1      -5.102  15.291  23.687  0.00  0.00    +0.000 A 
ATOM     32  C   UNL     1      -4.854  15.144  22.308  0.00  0.00    +0.000 A 
BRANCH  27  34
ATOM     33  C   UNL     1      -6.504  15.933  19.243  0.00  0.00    +0.000 C 
ATOM     34  O   UNL     1      -5.358  15.855  20.081  0.00  0.00    +0.000 OA
ENDBRANCH  27  34
ENDBRANCH  19  32
ENDBRANCH   1  23
TORSDOF 5
ENDMDL
MODEL 8
REMARK VINA RESULT:      -7.5      4.013      5.392
REMARK  Name = 
REMARK  6 active torsions:
REMARK  status: ('A' for Active; 'I' for Inactive)
REMARK    1  A    between atoms: C_1  and  O_2
REMARK    2  A    between atoms: O_2  and  C_3
REMARK    3  A    between atoms: C_8  and  N_9
REMARK    4  A    between atoms: C_13  and  C_15
REMARK    5  A    between atoms: C_15  and  N_16
REMARK    6  A    between atoms: C_21  and  C_22
REMARK                            x       y       z     vdW  Elec       q    Type
REMARK                         _______ _______ _______ _____ _____    ______ ____
ROOT
ATOM      1  C   UNL     1      -0.517  10.071  20.583  0.00  0.00    +0.000 C 
ENDROOT
BRANCH   1   2
ATOM      2  N   UNL     1       0.426   9.093  20.110  0.00  0.00    +0.000 N 
ATOM      3  N   UNL     1       0.809   7.993  20.858  0.00  0.00    +0.000 NA
ATOM      4  C   UNL     1       1.714   7.428  20.117  0.00  0.00    +0.000 A 
ATOM      5  C   UNL     1       2.478   6.226  20.435  0.00  0.00    +0.000 A 
ATOM      6  C   UNL     1       3.395   5.819  19.550  0.00  0.00    +0.000 A 
ATOM      7  C   UNL     1       3.546   6.591  18.278  0.00  0.00    +0.000 A 
ATOM      8  N   UNL     1       2.890   7.680  18.005  0.00  0.00    +0.000 NA
ATOM      9  N   UNL     1       1.975   8.055  18.946  0.00  0.00    +0.000 N 
ATOM     10  C   UNL     1       1.162   9.172  18.912  0.00  0.00    +0.000 A 
ATOM     11  O   UNL     1       1.109  10.072  18.084  0.00  0.00    +0.000 OA
BRANCH   7  12
ATOM     12  C   UNL     1       4.531   6.056  17.293  0.00  0.00    +0.000 A 
ATOM     13  C   UNL     1       5.695   6.767  16.973  0.00  0.00    +0.000 A 
ATOM     14  C   UNL     1       6.597   6.256  16.035  0.00  0.00    +0.000 A 
ATOM     15  C   UNL     1       6.345   5.027  15.431  0.00  0.00    +0.000 A 
ATOM     16 CL   UNL     1       7.459   4.406  14.277  0.00  0.00    +0.000 Cl
ATOM     17  C   UNL     1       5.204   4.298  15.761  0.00  0.00    +0.000 A 
ATOM     18  C   UNL     1       4.297   4.808  16.697  0.00  0.00    +0.000 A 
ENDBRANCH   7  12
ENDBRANCH   1   2
BRANCH   1  23
ATOM     19  N   UNL     1       0.635  14.864  19.162  0.00  0.00    +0.000 N 
ATOM     20  C   UNL     1       1.505  14.531  20.302  0.00  0.00    +0.000 C 
ATOM     21  C   UNL     1       0.728  13.636  21.285  0.00  0.00    +0.000 C 
ATOM     22  N   UNL     1       0.165  12.455  20.621  0.00  0.00    +0.000 N 
ATOM     23  C   UNL     1       0.154  11.241  21.309  0.00  0.00    +0.000 C 
ATOM     24  O   UNL     1       0.676  11.119  22.417  0.00  0.00    +0.000 OA
ATOM     25  C   UNL     1      -0.617  12.754  19.403  0.00  0.00    +0.000 C 
ATOM     26  C   UNL     1       0.141  13.685  18.431  0.00  0.00    +0.000 C 
BRANCH  19  32
ATOM     27  C   UNL     1       1.792  16.643  17.899  0.00  0.00    +0.000 A 
ATOM     28  C   UNL     1       1.731  17.893  17.256  0.00  0.00    +0.000 A 
ATOM     29  C   UNL     1       0.551  18.631  17.237  0.00  0.00    +0.000 A 
ATOM     30  C   UNL     1      -0.572  18.142  17.883  0.00  0.00    +0.000 A 
ATOM     31  C   UNL     1      -0.514  16.913  18.546  0.00  0.00    +0.000 A 
ATOM     32  C   UNL     1       0.653  16.123  18.572  0.00  0.00    +0.000 A 
BRANCH  27  34
ATOM     33  C   UNL     1       4.129  16.456  18.357  0.00  0.00    +0.000 C 
ATOM     34  O   UNL     1       2.928  15.862  17.881  0.00  0.00    +0.000 OA
ENDBRANCH  27  34
ENDBRANCH  19  32
ENDBRANCH   1  23
TORSDOF 5
ENDMDL
MODEL 9
REMARK VINA RESULT:      -7.3      4.515      7.250
REMARK  Name = 
REMARK  6 active torsions:
REMARK  status: ('A' for Active; 'I' for Inactive)
REMARK    1  A    between atoms: C_1  and  O_2
REMARK    2  A    between atoms: O_2  and  C_3
REMARK    3  A    between atoms: C_8  and  N_9
REMARK    4  A    between atoms: C_13  and  C_15
REMARK    5  A    between atoms: C_15  and  N_16
REMARK    6  A    between atoms: C_21  and  C_22
REMARK                            x       y       z     vdW  Elec       q    Type
REMARK                         _______ _______ _______ _____ _____    ______ ____
ROOT
ATOM      1  C   UNL     1      -0.688  12.168  20.101  0.00  0.00    +0.000 C 
ENDROOT
BRANCH   1   2
ATOM      2  N   UNL     1       0.142  11.033  19.797  0.00  0.00    +0.000 N 
ATOM      3  N   UNL     1       0.832  10.902  18.605  0.00  0.00    +0.000 NA
ATOM      4  C   UNL     1       1.374   9.726  18.700  0.00  0.00    +0.000 A 
ATOM      5  C   UNL     1       2.204   9.062  17.700  0.00  0.00    +0.000 A 
ATOM      6  C   UNL     1       2.643   7.829  17.974  0.00  0.00    +0.000 A 
ATOM      7  C   UNL     1       2.295   7.230  19.300  0.00  0.00    +0.000 A 
ATOM      8  N   UNL     1       1.530   7.804  20.180  0.00  0.00    +0.000 NA
ATOM      9  N   UNL     1       1.103   9.056  19.846  0.00  0.00    +0.000 N 
ATOM     10  C   UNL     1       0.273   9.874  20.589  0.00  0.00    +0.000 A 
ATOM     11  O   UNL     1      -0.284   9.656  21.655  0.00  0.00    +0.000 OA
BRANCH   7  12
ATOM     12  C   UNL     1       2.868   5.882  19.587  0.00  0.00    +0.000 A 
ATOM     13  C   UNL     1       4.129   5.512  19.097  0.00  0.00    +0.000 A 
ATOM     14  C   UNL     1       4.641   4.238  19.362  0.00  0.00    +0.000 A 
ATOM     15  C   UNL     1       3.903   3.342  20.132  0.00  0.00    +0.000 A 
ATOM     16 CL   UNL     1       4.540   1.777  20.452  0.00  0.00    +0.000 Cl
ATOM     17  C   UNL     1       2.660   3.708  20.646  0.00  0.00    +0.000 A 
ATOM     18  C   UNL     1       2.143   4.981  20.379  0.00  0.00    +0.000 A 
ENDBRANCH   7  12
ENDBRANCH   1   2
BRANCH   1  23
ATOM     19  N   UNL     1       3.712  14.791  20.370  0.00  0.00    +0.000 N 
ATOM     20  C   UNL     1       3.233  14.609  21.750  0.00  0.00    +0.000 C 
ATOM     21  C   UNL     1       1.695  14.679  21.764  0.00  0.00    +0.000 C 
ATOM     22  N   UNL     1       1.096  13.735  20.812  0.00  0.00    +0.000 N 
ATOM     23  C   UNL     1      -0.082  13.079  21.171  0.00  0.00    +0.000 C 
ATOM     24  O   UNL     1      -0.581  13.209  22.289  0.00  0.00    +0.000 OA
ATOM     25  C   UNL     1       1.646  13.818  19.443  0.00  0.00    +0.000 C 
ATOM     26  C   UNL     1       3.190  13.789  19.426  0.00  0.00    +0.000 C 
BRANCH  19  32
ATOM     27  C   UNL     1       4.838  16.743  19.358  0.00  0.00    +0.000 A 
ATOM     28  C   UNL     1       6.021  17.478  19.162  0.00  0.00    +0.000 A 
ATOM     29  C   UNL     1       7.231  17.043  19.698  0.00  0.00    +0.000 A 
ATOM     30  C   UNL     1       7.276  15.857  20.412  0.00  0.00    +0.000 A 
ATOM     31  C   UNL     1       6.110  15.108  20.590  0.00  0.00    +0.000 A 
ATOM     32  C   UNL     1       4.861  15.521  20.085  0.00  0.00    +0.000 A 
BRANCH  27  34
ATOM     33  C   UNL     1       3.266  16.823  17.562  0.00  0.00    +0.000 C 
ATOM     34  O   UNL     1       3.616  17.179  18.894  0.00  0.00    +0.000 OA
ENDBRANCH  27  34
ENDBRANCH  19  32
ENDBRANCH   1  23
TORSDOF 5
ENDMDL
