MODEL 1
REMARK VINA RESULT:      -7.3      0.000      0.000
REMARK  Name = 
REMARK  11 active torsions:
REMARK  status: ('A' for Active; 'I' for Inactive)
REMARK    1  A    between atoms: C_1  and  S_2
REMARK    2  A    between atoms: S_2  and  C_3
REMARK    3  A    between atoms: C_3  and  C_4
REMARK    4  A    between atoms: C_4  and  C_5
REMARK    5  A    between atoms: N_7  and  C_8
REMARK    6  A    between atoms: N_7  and  C_9
REMARK    7  A    between atoms: C_9  and  C_10
REMARK    8  A    between atoms: C_9  and  C_18
REMARK    9  A    between atoms: C_10  and  C_11
REMARK   10  A    between atoms: C_22  and  C_24
REMARK   11  A    between atoms: N_32  and  C_33
REMARK                            x       y       z     vdW  Elec       q    Type
REMARK                         _______ _______ _______ _____ _____    ______ ____
ROOT
ATOM      1  C   UNL     1       0.683  11.549  20.776  0.00  0.00    +0.000 C 
ATOM      2  C   UNL     1      -0.340  11.615  21.929  0.00  0.00    +0.000 C 
ATOM      3  C   UNL     1      -1.626  12.290  21.498  0.00  0.00    +0.000 C 
ATOM      4  N   UNL     1      -1.447  13.650  21.008  0.00  0.00    +0.000 N 
ATOM      5  C   UNL     1      -2.490  14.609  20.977  0.00  0.00    +0.000 C 
ATOM      6  O   UNL     1      -2.284  15.758  20.608  0.00  0.00    +0.000 OA
ATOM      7  C   UNL     1      -0.314  13.898  20.132  0.00  0.00    +0.000 C 
ATOM      8  C   UNL     1       0.917  13.035  20.399  0.00  0.00    +0.000 C 
ENDROOT
BRANCH   5   9
ATOM      9  C   UNL     1      -3.813  14.171  21.406  0.00  0.00    +0.000 A 
ATOM     10  C   UNL     1      -4.848  13.665  20.634  0.00  0.00    +0.000 A 
ATOM     11  C   UNL     1      -5.824  13.116  21.494  0.00  0.00    +0.000 A 
ATOM     12  C   UNL     1      -6.942  12.299  21.270  0.00  0.00    +0.000 A 
ATOM     13  C   UNL     1      -7.740  11.927  22.351  0.00  0.00    +0.000 A 
ATOM     14  C   UNL     1      -7.436  12.376  23.633  0.00  0.00    +0.000 A 
ATOM     15  C   UNL     1      -6.313  13.175  23.877  0.00  0.00    +0.000 A 
ATOM     16  C   UNL     1      -5.495  13.518  22.788  0.00  0.00    +0.000 A 
ATOM     17  N   UNL     1      -4.316  14.236  22.695  0.00  0.00    +0.000 N 
ATOM     18  C   UNL     1      -3.653  14.905  23.797  0.00  0.00    +0.000 C 
ENDBRANCH   5   9
BRANCH   1  19
ATOM     19  C   UNL     1       0.326  10.453  19.662  0.00  0.00    +0.000 C 
BRANCH  19  22
ATOM     20  C   UNL     1       1.846   8.729  18.574  0.00  0.00    +0.000 C 
ATOM     21  O   UNL     1       1.825   9.307  17.490  0.00  0.00    +0.000 OA
ATOM     22  N   UNL     1       1.103   9.157  19.703  0.00  0.00    +0.000 N 
ATOM     23  C   UNL     1       1.244   8.444  20.966  0.00  0.00    +0.000 C 
BRANCH  20  24
ATOM     24  C   UNL     1       2.700   7.484  18.788  0.00  0.00    +0.000 C 
BRANCH  24  25
ATOM     25  C   UNL     1       2.420   6.297  17.879  0.00  0.00    +0.000 C 
BRANCH  25  27
ATOM     26  C   UNL     1       2.570   3.522  17.629  0.00  0.00    +0.000 C 
ATOM     27  S   UNL     1       2.809   4.801  18.875  0.00  0.00    +0.000 S 
ENDBRANCH  25  27
ENDBRANCH  24  25
ENDBRANCH  20  24
ENDBRANCH  19  22
BRANCH  19  28
ATOM     28  C   UNL     1      -1.231  10.143  19.687  0.00  0.00    +0.000 C 
BRANCH  28  29
ATOM     29  C   UNL     1      -1.940  10.461  18.383  0.00  0.00    +0.000 A 
ATOM     30  C   UNL     1      -3.019  11.359  18.339  0.00  0.00    +0.000 A 
ATOM     31  C   UNL     1      -3.788  11.486  17.184  0.00  0.00    +0.000 A 
ATOM     32  C   UNL     1      -3.451  10.751  16.056  0.00  0.00    +0.000 A 
ATOM     33  F   UNL     1      -4.220  10.836  14.962  0.00  0.00    +0.000 F 
ATOM     34  C   UNL     1      -2.337   9.920  16.048  0.00  0.00    +0.000 A 
ATOM     35  C   UNL     1      -1.578   9.782  17.211  0.00  0.00    +0.000 A 
ENDBRANCH  28  29
ENDBRANCH  19  28
ENDBRANCH   1  19
TORSDOF 8
ENDMDL
MODEL 2
REMARK VINA RESULT:      -7.1      1.011      1.188
REMARK  Name = 
REMARK  11 active torsions:
REMARK  status: ('A' for Active; 'I' for Inactive)
REMARK    1  A    between atoms: C_1  and  S_2
REMARK    2  A    between atoms: S_2  and  C_3
REMARK    3  A    between atoms: C_3  and  C_4
REMARK    4  A    between atoms: C_4  and  C_5
REMARK    5  A    between atoms: N_7  and  C_8
REMARK    6  A    between atoms: N_7  and  C_9
REMARK    7  A    between atoms: C_9  and  C_10
REMARK    8  A    between atoms: C_9  and  C_18
REMARK    9  A    between atoms: C_10  and  C_11
REMARK   10  A    between atoms: C_22  and  C_24
REMARK   11  A    between atoms: N_32  and  C_33
REMARK                            x       y       z     vdW  Elec       q    Type
REMARK                         _______ _______ _______ _____ _____    ______ ____
ROOT
ATOM      1  C   UNL     1       0.769  11.392  20.907  0.00  0.00    +0.000 C 
ATOM      2  C   UNL     1      -0.332  11.269  21.981  0.00  0.00    +0.000 C 
ATOM      3  C   UNL     1      -1.539  12.120  21.643  0.00  0.00    +0.000 C 
ATOM      4  N   UNL     1      -1.243  13.539  21.494  0.00  0.00    +0.000 N 
ATOM      5  C   UNL     1      -2.222  14.555  21.626  0.00  0.00    +0.000 C 
ATOM      6  O   UNL     1      -1.921  15.740  21.547  0.00  0.00    +0.000 OA
ATOM      7  C   UNL     1      -0.035  13.894  20.770  0.00  0.00    +0.000 C 
ATOM      8  C   UNL     1       1.119  12.902  20.901  0.00  0.00    +0.000 C 
ENDROOT
BRANCH   5   9
ATOM      9  C   UNL     1      -3.597  14.132  21.861  0.00  0.00    +0.000 A 
ATOM     10  C   UNL     1      -4.566  13.783  20.932  0.00  0.00    +0.000 A 
ATOM     11  C   UNL     1      -5.645  13.176  21.612  0.00  0.00    +0.000 A 
ATOM     12  C   UNL     1      -6.763  12.452  21.172  0.00  0.00    +0.000 A 
ATOM     13  C   UNL     1      -7.681  11.983  22.111  0.00  0.00    +0.000 A 
ATOM     14  C   UNL     1      -7.494  12.246  23.465  0.00  0.00    +0.000 A 
ATOM     15  C   UNL     1      -6.373  12.950  23.922  0.00  0.00    +0.000 A 
ATOM     16  C   UNL     1      -5.435  13.390  22.974  0.00  0.00    +0.000 A 
ATOM     17  N   UNL     1      -4.227  14.054  23.093  0.00  0.00    +0.000 N 
ATOM     18  C   UNL     1      -3.658  14.540  24.334  0.00  0.00    +0.000 C 
ENDBRANCH   5   9
BRANCH   1  19
ATOM     19  C   UNL     1       0.432  10.609  19.549  0.00  0.00    +0.000 C 
BRANCH  19  22
ATOM     20  C   UNL     1       1.522   8.350  19.961  0.00  0.00    +0.000 C 
ATOM     21  O   UNL     1       0.990   8.227  21.062  0.00  0.00    +0.000 OA
ATOM     22  N   UNL     1       1.377   9.500  19.146  0.00  0.00    +0.000 N 
ATOM     23  C   UNL     1       1.993   9.526  17.826  0.00  0.00    +0.000 C 
BRANCH  20  24
ATOM     24  C   UNL     1       2.392   7.241  19.377  0.00  0.00    +0.000 C 
BRANCH  24  25
ATOM     25  C   UNL     1       2.437   5.929  20.145  0.00  0.00    +0.000 C 
BRANCH  25  27
ATOM     26  C   UNL     1       4.171   5.978  17.960  0.00  0.00    +0.000 C 
ATOM     27  S   UNL     1       3.816   4.964  19.406  0.00  0.00    +0.000 S 
ENDBRANCH  25  27
ENDBRANCH  24  25
ENDBRANCH  20  24
ENDBRANCH  19  22
BRANCH  19  28
ATOM     28  C   UNL     1      -1.054  10.052  19.600  0.00  0.00    +0.000 C 
BRANCH  28  29
ATOM     29  C   UNL     1      -1.888  10.419  18.387  0.00  0.00    +0.000 A 
ATOM     30  C   UNL     1      -2.949  11.334  18.480  0.00  0.00    +0.000 A 
ATOM     31  C   UNL     1      -3.831  11.506  17.415  0.00  0.00    +0.000 A 
ATOM     32  C   UNL     1      -3.626  10.800  16.238  0.00  0.00    +0.000 A 
ATOM     33  F   UNL     1      -4.502  10.929  15.232  0.00  0.00    +0.000 F 
ATOM     34  C   UNL     1      -2.533   9.953  16.091  0.00  0.00    +0.000 A 
ATOM     35  C   UNL     1      -1.661   9.769  17.165  0.00  0.00    +0.000 A 
ENDBRANCH  28  29
ENDBRANCH  19  28
ENDBRANCH   1  19
TORSDOF 8
ENDMDL
MODEL 3
REMARK VINA RESULT:      -6.9      2.810      4.451
REMARK  Name = 
REMARK  11 active torsions:
REMARK  status: ('A' for Active; 'I' for Inactive)
REMARK    1  A    between atoms: C_1  and  S_2
REMARK    2  A    between atoms: S_2  and  C_3
REMARK    3  A    between atoms: C_3  and  C_4
REMARK    4  A    between atoms: C_4  and  C_5
REMARK    5  A    between atoms: N_7  and  C_8
REMARK    6  A    between atoms: N_7  and  C_9
REMARK    7  A    between atoms: C_9  and  C_10
REMARK    8  A    between atoms: C_9  and  C_18
REMARK    9  A    between atoms: C_10  and  C_11
REMARK   10  A    between atoms: C_22  and  C_24
REMARK   11  A    between atoms: N_32  and  C_33
REMARK                            x       y       z     vdW  Elec       q    Type
REMARK                         _______ _______ _______ _____ _____    ______ ____
ROOT
ATOM      1  C   UNL     1      -0.510  10.864  18.158  0.00  0.00    +0.000 C 
ATOM      2  C   UNL     1      -1.178  12.250  18.268  0.00  0.00    +0.000 C 
ATOM      3  C   UNL     1      -2.501  12.175  19.003  0.00  0.00    +0.000 C 
ATOM      4  N   UNL     1      -3.472  11.279  18.388  0.00  0.00    +0.000 N 
ATOM      5  C   UNL     1      -4.868  11.378  18.609  0.00  0.00    +0.000 C 
ATOM      6  O   UNL     1      -5.656  10.638  18.031  0.00  0.00    +0.000 OA
ATOM      7  C   UNL     1      -2.982  10.001  17.900  0.00  0.00    +0.000 C 
ATOM      8  C   UNL     1      -1.545  10.009  17.384  0.00  0.00    +0.000 C 
ENDROOT
BRANCH   5   9
ATOM      9  C   UNL     1      -5.327  12.395  19.548  0.00  0.00    +0.000 A 
ATOM     10  C   UNL     1      -5.237  12.397  20.932  0.00  0.00    +0.000 A 
ATOM     11  C   UNL     1      -5.550  13.692  21.401  0.00  0.00    +0.000 A 
ATOM     12  C   UNL     1      -5.409  14.313  22.651  0.00  0.00    +0.000 A 
ATOM     13  C   UNL     1      -5.834  15.631  22.806  0.00  0.00    +0.000 A 
ATOM     14  C   UNL     1      -6.405  16.314  21.736  0.00  0.00    +0.000 A 
ATOM     15  C   UNL     1      -6.535  15.715  20.477  0.00  0.00    +0.000 A 
ATOM     16  C   UNL     1      -6.073  14.399  20.318  0.00  0.00    +0.000 A 
ATOM     17  N   UNL     1      -6.011  13.555  19.223  0.00  0.00    +0.000 N 
ATOM     18  C   UNL     1      -6.521  13.861  17.901  0.00  0.00    +0.000 C 
ENDBRANCH   5   9
BRANCH   1  19
ATOM     19  C   UNL     1       0.133  10.350  19.535  0.00  0.00    +0.000 C 
BRANCH  19  22
ATOM     20  C   UNL     1       1.211   8.257  20.495  0.00  0.00    +0.000 C 
ATOM     21  O   UNL     1       0.599   8.356  21.556  0.00  0.00    +0.000 OA
ATOM     22  N   UNL     1       1.117   9.206  19.445  0.00  0.00    +0.000 N 
ATOM     23  C   UNL     1       1.830   8.968  18.198  0.00  0.00    +0.000 C 
BRANCH  20  24
ATOM     24  C   UNL     1       2.133   7.073  20.224  0.00  0.00    +0.000 C 
BRANCH  24  25
ATOM     25  C   UNL     1       1.467   5.725  19.996  0.00  0.00    +0.000 C 
BRANCH  25  27
ATOM     26  C   UNL     1       3.435   3.793  19.565  0.00  0.00    +0.000 C 
ATOM     27  S   UNL     1       2.484   4.502  20.921  0.00  0.00    +0.000 S 
ENDBRANCH  25  27
ENDBRANCH  24  25
ENDBRANCH  20  24
ENDBRANCH  19  22
BRANCH  19  28
ATOM     28  C   UNL     1       0.798  11.567  20.308  0.00  0.00    +0.000 C 
BRANCH  28  29
ATOM     29  C   UNL     1      -0.030  12.079  21.472  0.00  0.00    +0.000 A 
ATOM     30  C   UNL     1      -0.916  11.238  22.164  0.00  0.00    +0.000 A 
ATOM     31  C   UNL     1      -1.815  11.765  23.089  0.00  0.00    +0.000 A 
ATOM     32  C   UNL     1      -1.798  13.125  23.359  0.00  0.00    +0.000 A 
ATOM     33  F   UNL     1      -2.696  13.639  24.211  0.00  0.00    +0.000 F 
ATOM     34  C   UNL     1      -0.873  13.966  22.750  0.00  0.00    +0.000 A 
ATOM     35  C   UNL     1       0.016  13.439  21.812  0.00  0.00    +0.000 A 
ENDBRANCH  28  29
ENDBRANCH  19  28
ENDBRANCH   1  19
TORSDOF 8
ENDMDL
MODEL 4
REMARK VINA RESULT:      -6.8      1.224      1.759
REMARK  Name = 
REMARK  11 active torsions:
REMARK  status: ('A' for Active; 'I' for Inactive)
REMARK    1  A    between atoms: C_1  and  S_2
REMARK    2  A    between atoms: S_2  and  C_3
REMARK    3  A    between atoms: C_3  and  C_4
REMARK    4  A    between atoms: C_4  and  C_5
REMARK    5  A    between atoms: N_7  and  C_8
REMARK    6  A    between atoms: N_7  and  C_9
REMARK    7  A    between atoms: C_9  and  C_10
REMARK    8  A    between atoms: C_9  and  C_18
REMARK    9  A    between atoms: C_10  and  C_11
REMARK   10  A    between atoms: C_22  and  C_24
REMARK   11  A    between atoms: N_32  and  C_33
REMARK                            x       y       z     vdW  Elec       q    Type
REMARK                         _______ _______ _______ _____ _____    ______ ____
ROOT
ATOM      1  C   UNL     1       1.035  10.975  20.808  0.00  0.00    +0.000 C 
ATOM      2  C   UNL     1       0.084  10.914  22.021  0.00  0.00    +0.000 C 
ATOM      3  C   UNL     1      -1.240  11.591  21.728  0.00  0.00    +0.000 C 
ATOM      4  N   UNL     1      -1.119  12.992  21.348  0.00  0.00    +0.000 N 
ATOM      5  C   UNL     1      -2.182  13.922  21.464  0.00  0.00    +0.000 C 
ATOM      6  O   UNL     1      -2.024  15.105  21.185  0.00  0.00    +0.000 OA
ATOM      7  C   UNL     1      -0.048  13.344  20.432  0.00  0.00    +0.000 C 
ATOM      8  C   UNL     1       1.214  12.493  20.549  0.00  0.00    +0.000 C 
ENDROOT
BRANCH   5   9
ATOM      9  C   UNL     1      -3.467  13.415  21.931  0.00  0.00    +0.000 A 
ATOM     10  C   UNL     1      -3.939  13.323  23.232  0.00  0.00    +0.000 A 
ATOM     11  C   UNL     1      -5.322  13.040  23.190  0.00  0.00    +0.000 A 
ATOM     12  C   UNL     1      -6.328  13.057  24.167  0.00  0.00    +0.000 A 
ATOM     13  C   UNL     1      -7.629  12.705  23.809  0.00  0.00    +0.000 A 
ATOM     14  C   UNL     1      -7.917  12.327  22.500  0.00  0.00    +0.000 A 
ATOM     15  C   UNL     1      -6.928  12.323  21.509  0.00  0.00    +0.000 A 
ATOM     16  C   UNL     1      -5.627  12.712  21.869  0.00  0.00    +0.000 A 
ATOM     17  N   UNL     1      -4.460  12.859  21.141  0.00  0.00    +0.000 N 
ATOM     18  C   UNL     1      -4.307  12.549  19.734  0.00  0.00    +0.000 C 
ENDBRANCH   5   9
BRANCH   1  19
ATOM     19  C   UNL     1       0.633   9.970  19.625  0.00  0.00    +0.000 C 
BRANCH  19  22
ATOM     20  C   UNL     1       2.129   8.363  18.344  0.00  0.00    +0.000 C 
ATOM     21  O   UNL     1       2.076   9.037  17.318  0.00  0.00    +0.000 OA
ATOM     22  N   UNL     1       1.416   8.680  19.527  0.00  0.00    +0.000 N 
ATOM     23  C   UNL     1       1.594   7.857  20.715  0.00  0.00    +0.000 C 
BRANCH  20  24
ATOM     24  C   UNL     1       2.994   7.108  18.420  0.00  0.00    +0.000 C 
BRANCH  24  25
ATOM     25  C   UNL     1       4.161   7.021  17.448  0.00  0.00    +0.000 C 
BRANCH  25  27
ATOM     26  C   UNL     1       5.915   5.369  18.855  0.00  0.00    +0.000 C 
ATOM     27  S   UNL     1       4.727   5.272  17.504  0.00  0.00    +0.000 S 
ENDBRANCH  25  27
ENDBRANCH  24  25
ENDBRANCH  20  24
ENDBRANCH  19  22
BRANCH  19  28
ATOM     28  C   UNL     1      -0.921   9.647  19.694  0.00  0.00    +0.000 C 
BRANCH  28  29
ATOM     29  C   UNL     1      -1.711  10.188  18.517  0.00  0.00    +0.000 A 
ATOM     30  C   UNL     1      -2.813   9.491  17.996  0.00  0.00    +0.000 A 
ATOM     31  C   UNL     1      -3.400   9.889  16.796  0.00  0.00    +0.000 A 
ATOM     32  C   UNL     1      -2.918  11.012  16.140  0.00  0.00    +0.000 A 
ATOM     33  F   UNL     1      -3.450  11.366  14.963  0.00  0.00    +0.000 F 
ATOM     34  C   UNL     1      -1.884  11.769  16.680  0.00  0.00    +0.000 A 
ATOM     35  C   UNL     1      -1.286  11.359  17.873  0.00  0.00    +0.000 A 
ENDBRANCH  28  29
ENDBRANCH  19  28
ENDBRANCH   1  19
TORSDOF 8
ENDMDL
MODEL 5
REMARK VINA RESULT:      -6.5      4.916      8.882
REMARK  Name = 
REMARK  11 active torsions:
REMARK  status: ('A' for Active; 'I' for Inactive)
REMARK    1  A    between atoms: C_1  and  S_2
REMARK    2  A    between atoms: S_2  and  C_3
REMARK    3  A    between atoms: C_3  and  C_4
REMARK    4  A    between atoms: C_4  and  C_5
REMARK    5  A    between atoms: N_7  and  C_8
REMARK    6  A    between atoms: N_7  and  C_9
REMARK    7  A    between atoms: C_9  and  C_10
REMARK    8  A    between atoms: C_9  and  C_18
REMARK    9  A    between atoms: C_10  and  C_11
REMARK   10  A    between atoms: C_22  and  C_24
REMARK   11  A    between atoms: N_32  and  C_33
REMARK                            x       y       z     vdW  Elec       q    Type
REMARK                         _______ _______ _______ _____ _____    ______ ____
ROOT
ATOM      1  C   UNL     1       0.933  13.429  18.886  0.00  0.00    +0.000 C 
ATOM      2  C   UNL     1       2.455  13.280  18.682  0.00  0.00    +0.000 C 
ATOM      3  C   UNL     1       3.226  13.646  19.934  0.00  0.00    +0.000 C 
ATOM      4  N   UNL     1       2.988  15.005  20.402  0.00  0.00    +0.000 N 
ATOM      5  C   UNL     1       3.888  15.706  21.241  0.00  0.00    +0.000 C 
ATOM      6  O   UNL     1       3.677  16.868  21.569  0.00  0.00    +0.000 OA
ATOM      7  C   UNL     1       1.617  15.487  20.376  0.00  0.00    +0.000 C 
ATOM      8  C   UNL     1       0.749  14.924  19.254  0.00  0.00    +0.000 C 
ENDROOT
BRANCH   5   9
ATOM      9  C   UNL     1       5.075  14.990  21.695  0.00  0.00    +0.000 A 
ATOM     10  C   UNL     1       5.226  14.194  22.820  0.00  0.00    +0.000 A 
ATOM     11  C   UNL     1       6.443  13.486  22.710  0.00  0.00    +0.000 A 
ATOM     12  C   UNL     1       6.986  12.407  23.424  0.00  0.00    +0.000 A 
ATOM     13  C   UNL     1       8.248  11.929  23.076  0.00  0.00    +0.000 A 
ATOM     14  C   UNL     1       8.964  12.528  22.043  0.00  0.00    +0.000 A 
ATOM     15  C   UNL     1       8.428  13.592  21.308  0.00  0.00    +0.000 A 
ATOM     16  C   UNL     1       7.142  14.047  21.642  0.00  0.00    +0.000 A 
ATOM     17  N   UNL     1       6.325  15.022  21.099  0.00  0.00    +0.000 N 
ATOM     18  C   UNL     1       6.689  15.909  20.011  0.00  0.00    +0.000 C 
ENDBRANCH   5   9
BRANCH   1  19
ATOM     19  C   UNL     1       0.288  12.265  19.782  0.00  0.00    +0.000 C 
BRANCH  19  22
ATOM     20  C   UNL     1      -0.849  12.469  22.047  0.00  0.00    +0.000 C 
ATOM     21  O   UNL     1       0.085  11.926  22.632  0.00  0.00    +0.000 OA
ATOM     22  N   UNL     1      -0.898  12.641  20.640  0.00  0.00    +0.000 N 
ATOM     23  C   UNL     1      -2.018  13.356  20.044  0.00  0.00    +0.000 C 
BRANCH  20  24
ATOM     24  C   UNL     1      -2.048  13.017  22.813  0.00  0.00    +0.000 C 
BRANCH  24  25
ATOM     25  C   UNL     1      -2.998  11.995  23.419  0.00  0.00    +0.000 C 
BRANCH  25  27
ATOM     26  C   UNL     1      -5.550  13.028  22.966  0.00  0.00    +0.000 C 
ATOM     27  S   UNL     1      -4.306  12.970  24.268  0.00  0.00    +0.000 S 
ENDBRANCH  25  27
ENDBRANCH  24  25
ENDBRANCH  20  24
ENDBRANCH  19  22
BRANCH  19  28
ATOM     28  C   UNL     1      -0.086  11.023  18.867  0.00  0.00    +0.000 C 
BRANCH  28  29
ATOM     29  C   UNL     1       0.845   9.836  19.034  0.00  0.00    +0.000 A 
ATOM     30  C   UNL     1       1.537   9.291  17.941  0.00  0.00    +0.000 A 
ATOM     31  C   UNL     1       2.222   8.084  18.067  0.00  0.00    +0.000 A 
ATOM     32  C   UNL     1       2.258   7.445  19.298  0.00  0.00    +0.000 A 
ATOM     33  F   UNL     1       2.875   6.261  19.408  0.00  0.00    +0.000 F 
ATOM     34  C   UNL     1       1.653   8.009  20.416  0.00  0.00    +0.000 A 
ATOM     35  C   UNL     1       0.952   9.208  20.284  0.00  0.00    +0.000 A 
ENDBRANCH  28  29
ENDBRANCH  19  28
ENDBRANCH   1  19
TORSDOF 8
ENDMDL
MODEL 6
REMARK VINA RESULT:      -6.5      6.036     10.389
REMARK  Name = 
REMARK  11 active torsions:
REMARK  status: ('A' for Active; 'I' for Inactive)
REMARK    1  A    between atoms: C_1  and  S_2
REMARK    2  A    between atoms: S_2  and  C_3
REMARK    3  A    between atoms: C_3  and  C_4
REMARK    4  A    between atoms: C_4  and  C_5
REMARK    5  A    between atoms: N_7  and  C_8
REMARK    6  A    between atoms: N_7  and  C_9
REMARK    7  A    between atoms: C_9  and  C_10
REMARK    8  A    between atoms: C_9  and  C_18
REMARK    9  A    between atoms: C_10  and  C_11
REMARK   10  A    between atoms: C_22  and  C_24
REMARK   11  A    between atoms: N_32  and  C_33
REMARK                            x       y       z     vdW  Elec       q    Type
REMARK                         _______ _______ _______ _____ _____    ______ ____
ROOT
ATOM      1  C   UNL     1       2.447  15.582  18.494  0.00  0.00    +0.000 C 
ATOM      2  C   UNL     1       3.578  15.041  17.596  0.00  0.00    +0.000 C 
ATOM      3  C   UNL     1       4.836  14.758  18.392  0.00  0.00    +0.000 C 
ATOM      4  N   UNL     1       5.367  15.919  19.097  0.00  0.00    +0.000 N 
ATOM      5  C   UNL     1       6.716  16.022  19.517  0.00  0.00    +0.000 C 
ATOM      6  O   UNL     1       7.135  17.038  20.059  0.00  0.00    +0.000 OA
ATOM      7  C   UNL     1       4.411  16.783  19.768  0.00  0.00    +0.000 C 
ATOM      8  C   UNL     1       3.039  16.878  19.104  0.00  0.00    +0.000 C 
ENDROOT
BRANCH   5   9
ATOM      9  C   UNL     1       7.582  14.875  19.274  0.00  0.00    +0.000 A 
ATOM     10  C   UNL     1       8.079  14.408  18.067  0.00  0.00    +0.000 A 
ATOM     11  C   UNL     1       9.088  13.456  18.333  0.00  0.00    +0.000 A 
ATOM     12  C   UNL     1      10.056  12.841  17.526  0.00  0.00    +0.000 A 
ATOM     13  C   UNL     1      10.923  11.909  18.094  0.00  0.00    +0.000 A 
ATOM     14  C   UNL     1      10.815  11.585  19.443  0.00  0.00    +0.000 A 
ATOM     15  C   UNL     1       9.868  12.204  20.268  0.00  0.00    +0.000 A 
ATOM     16  C   UNL     1       9.021  13.167  19.696  0.00  0.00    +0.000 A 
ATOM     17  N   UNL     1       8.033  13.977  20.228  0.00  0.00    +0.000 N 
ATOM     18  C   UNL     1       7.579  13.950  21.604  0.00  0.00    +0.000 C 
ENDBRANCH   5   9
BRANCH   1  19
ATOM     19  C   UNL     1       1.768  14.461  19.419  0.00  0.00    +0.000 C 
BRANCH  19  22
ATOM     20  C   UNL     1       0.872  15.020  21.731  0.00  0.00    +0.000 C 
ATOM     21  O   UNL     1       1.911  14.667  22.285  0.00  0.00    +0.000 OA
ATOM     22  N   UNL     1       0.653  14.912  20.335  0.00  0.00    +0.000 N 
ATOM     23  C   UNL     1      -0.586  15.418  19.762  0.00  0.00    +0.000 C 
BRANCH  20  24
ATOM     24  C   UNL     1      -0.281  15.621  22.528  0.00  0.00    +0.000 C 
BRANCH  24  25
ATOM     25  C   UNL     1      -1.031  14.683  23.461  0.00  0.00    +0.000 C 
BRANCH  25  27
ATOM     26  C   UNL     1      -2.716  16.068  25.201  0.00  0.00    +0.000 C 
ATOM     27  S   UNL     1      -2.748  15.337  23.554  0.00  0.00    +0.000 S 
ENDBRANCH  25  27
ENDBRANCH  24  25
ENDBRANCH  20  24
ENDBRANCH  19  22
BRANCH  19  28
ATOM     28  C   UNL     1       1.265  13.251  18.521  0.00  0.00    +0.000 C 
BRANCH  28  29
ATOM     29  C   UNL     1       0.680  12.099  19.316  0.00  0.00    +0.000 A 
ATOM     30  C   UNL     1       1.303  11.627  20.483  0.00  0.00    +0.000 A 
ATOM     31  C   UNL     1       0.874  10.446  21.086  0.00  0.00    +0.000 A 
ATOM     32  C   UNL     1      -0.209   9.762  20.553  0.00  0.00    +0.000 A 
ATOM     33  F   UNL     1      -0.591   8.602  21.104  0.00  0.00    +0.000 F 
ATOM     34  C   UNL     1      -0.896  10.256  19.449  0.00  0.00    +0.000 A 
ATOM     35  C   UNL     1      -0.455  11.429  18.837  0.00  0.00    +0.000 A 
ENDBRANCH  28  29
ENDBRANCH  19  28
ENDBRANCH   1  19
TORSDOF 8
ENDMDL
MODEL 7
REMARK VINA RESULT:      -6.5      1.794      2.565
REMARK  Name = 
REMARK  11 active torsions:
REMARK  status: ('A' for Active; 'I' for Inactive)
REMARK    1  A    between atoms: C_1  and  S_2
REMARK    2  A    between atoms: S_2  and  C_3
REMARK    3  A    between atoms: C_3  and  C_4
REMARK    4  A    between atoms: C_4  and  C_5
REMARK    5  A    between atoms: N_7  and  C_8
REMARK    6  A    between atoms: N_7  and  C_9
REMARK    7  A    between atoms: C_9  and  C_10
REMARK    8  A    between atoms: C_9  and  C_18
REMARK    9  A    between atoms: C_10  and  C_11
REMARK   10  A    between atoms: C_22  and  C_24
REMARK   11  A    between atoms: N_32  and  C_33
REMARK                            x       y       z     vdW  Elec       q    Type
REMARK                         _______ _______ _______ _____ _____    ______ ____
ROOT
ATOM      1  C   UNL     1       1.820  11.702  19.274  0.00  0.00    +0.000 C 
ATOM      2  C   UNL     1       1.507  12.371  20.628  0.00  0.00    +0.000 C 
ATOM      3  C   UNL     1       0.236  13.193  20.565  0.00  0.00    +0.000 C 
ATOM      4  N   UNL     1       0.261  14.250  19.561  0.00  0.00    +0.000 N 
ATOM      5  C   UNL     1      -0.579  15.390  19.612  0.00  0.00    +0.000 C 
ATOM      6  O   UNL     1      -0.488  16.282  18.777  0.00  0.00    +0.000 OA
ATOM      7  C   UNL     1       0.833  13.923  18.266  0.00  0.00    +0.000 C 
ATOM      8  C   UNL     1       1.959  12.893  18.291  0.00  0.00    +0.000 C 
ENDROOT
BRANCH   5   9
ATOM      9  C   UNL     1      -1.550  15.457  20.697  0.00  0.00    +0.000 A 
ATOM     10  C   UNL     1      -2.849  14.971  20.726  0.00  0.00    +0.000 A 
ATOM     11  C   UNL     1      -3.314  15.008  22.059  0.00  0.00    +0.000 A 
ATOM     12  C   UNL     1      -4.435  14.453  22.693  0.00  0.00    +0.000 A 
ATOM     13  C   UNL     1      -4.631  14.685  24.054  0.00  0.00    +0.000 A 
ATOM     14  C   UNL     1      -3.730  15.471  24.766  0.00  0.00    +0.000 A 
ATOM     15  C   UNL     1      -2.595  16.016  24.153  0.00  0.00    +0.000 A 
ATOM     16  C   UNL     1      -2.387  15.750  22.790  0.00  0.00    +0.000 A 
ATOM     17  N   UNL     1      -1.368  16.089  21.917  0.00  0.00    +0.000 N 
ATOM     18  C   UNL     1      -0.231  16.926  22.241  0.00  0.00    +0.000 C 
ENDBRANCH   5   9
BRANCH   1  19
ATOM     19  C   UNL     1       0.872  10.453  18.940  0.00  0.00    +0.000 C 
BRANCH  19  22
ATOM     20  C   UNL     1       2.173   8.330  18.424  0.00  0.00    +0.000 C 
ATOM     21  O   UNL     1       2.401   8.679  17.268  0.00  0.00    +0.000 OA
ATOM     22  N   UNL     1       1.382   9.084  19.328  0.00  0.00    +0.000 N 
ATOM     23  C   UNL     1       1.223   8.621  20.700  0.00  0.00    +0.000 C 
BRANCH  20  24
ATOM     24  C   UNL     1       2.746   7.032  18.984  0.00  0.00    +0.000 C 
BRANCH  24  25
ATOM     25  C   UNL     1       2.321   5.744  18.296  0.00  0.00    +0.000 C 
BRANCH  25  27
ATOM     26  C   UNL     1       1.117   4.235  20.311  0.00  0.00    +0.000 C 
ATOM     27  S   UNL     1       2.709   4.392  19.481  0.00  0.00    +0.000 S 
ENDBRANCH  25  27
ENDBRANCH  24  25
ENDBRANCH  20  24
ENDBRANCH  19  22
BRANCH  19  28
ATOM     28  C   UNL     1      -0.568  10.684  19.567  0.00  0.00    +0.000 C 
BRANCH  28  29
ATOM     29  C   UNL     1      -1.694  10.635  18.551  0.00  0.00    +0.000 A 
ATOM     30  C   UNL     1      -1.604   9.837  17.399  0.00  0.00    +0.000 A 
ATOM     31  C   UNL     1      -2.546   9.957  16.379  0.00  0.00    +0.000 A 
ATOM     32  C   UNL     1      -3.606  10.839  16.529  0.00  0.00    +0.000 A 
ATOM     33  F   UNL     1      -4.484  10.990  15.528  0.00  0.00    +0.000 F 
ATOM     34  C   UNL     1      -3.764  11.577  17.697  0.00  0.00    +0.000 A 
ATOM     35  C   UNL     1      -2.811  11.468  18.710  0.00  0.00    +0.000 A 
ENDBRANCH  28  29
ENDBRANCH  19  28
ENDBRANCH   1  19
TORSDOF 8
ENDMDL
MODEL 8
REMARK VINA RESULT:      -6.5      4.815      8.857
REMARK  Name = 
REMARK  11 active torsions:
REMARK  status: ('A' for Active; 'I' for Inactive)
REMARK    1  A    between atoms: C_1  and  S_2
REMARK    2  A    between atoms: S_2  and  C_3
REMARK    3  A    between atoms: C_3  and  C_4
REMARK    4  A    between atoms: C_4  and  C_5
REMARK    5  A    between atoms: N_7  and  C_8
REMARK    6  A    between atoms: N_7  and  C_9
REMARK    7  A    between atoms: C_9  and  C_10
REMARK    8  A    between atoms: C_9  and  C_18
REMARK    9  A    between atoms: C_10  and  C_11
REMARK   10  A    between atoms: C_22  and  C_24
REMARK   11  A    between atoms: N_32  and  C_33
REMARK                            x       y       z     vdW  Elec       q    Type
REMARK                         _______ _______ _______ _____ _____    ______ ____
ROOT
ATOM      1  C   UNL     1       0.935  13.208  18.451  0.00  0.00    +0.000 C 
ATOM      2  C   UNL     1       2.466  13.296  18.289  0.00  0.00    +0.000 C 
ATOM      3  C   UNL     1       3.145  13.672  19.591  0.00  0.00    +0.000 C 
ATOM      4  N   UNL     1       2.700  14.943  20.148  0.00  0.00    +0.000 N 
ATOM      5  C   UNL     1       3.468  15.700  21.066  0.00  0.00    +0.000 C 
ATOM      6  O   UNL     1       3.081  16.790  21.469  0.00  0.00    +0.000 OA
ATOM      7  C   UNL     1       1.275  15.222  20.109  0.00  0.00    +0.000 C 
ATOM      8  C   UNL     1       0.525  14.627  18.920  0.00  0.00    +0.000 C 
ENDROOT
BRANCH   5   9
ATOM      9  C   UNL     1       4.735  15.130  21.508  0.00  0.00    +0.000 A 
ATOM     10  C   UNL     1       4.992  14.362  22.634  0.00  0.00    +0.000 A 
ATOM     11  C   UNL     1       6.282  13.801  22.511  0.00  0.00    +0.000 A 
ATOM     12  C   UNL     1       6.957  12.796  23.221  0.00  0.00    +0.000 A 
ATOM     13  C   UNL     1       8.262  12.468  22.859  0.00  0.00    +0.000 A 
ATOM     14  C   UNL     1       8.890  13.141  21.816  0.00  0.00    +0.000 A 
ATOM     15  C   UNL     1       8.224  14.132  21.084  0.00  0.00    +0.000 A 
ATOM     16  C   UNL     1       6.898  14.435  21.432  0.00  0.00    +0.000 A 
ATOM     17  N   UNL     1       5.966  15.305  20.896  0.00  0.00    +0.000 N 
ATOM     18  C   UNL     1       6.210  16.223  19.801  0.00  0.00    +0.000 C 
ENDBRANCH   5   9
BRANCH   1  19
ATOM     19  C   UNL     1       0.446  11.898  19.238  0.00  0.00    +0.000 C 
BRANCH  19  22
ATOM     20  C   UNL     1      -0.905  12.328  21.347  0.00  0.00    +0.000 C 
ATOM     21  O   UNL     1       0.102  12.458  22.038  0.00  0.00    +0.000 OA
ATOM     22  N   UNL     1      -0.872  11.991  19.970  0.00  0.00    +0.000 N 
ATOM     23  C   UNL     1      -2.118  11.925  19.218  0.00  0.00    +0.000 C 
BRANCH  20  24
ATOM     24  C   UNL     1      -2.298  12.532  21.936  0.00  0.00    +0.000 C 
BRANCH  24  25
ATOM     25  C   UNL     1      -2.750  13.970  22.143  0.00  0.00    +0.000 C 
BRANCH  25  27
ATOM     26  C   UNL     1      -1.446  16.053  23.465  0.00  0.00    +0.000 C 
ATOM     27  S   UNL     1      -2.164  14.440  23.822  0.00  0.00    +0.000 S 
ENDBRANCH  25  27
ENDBRANCH  24  25
ENDBRANCH  20  24
ENDBRANCH  19  22
BRANCH  19  28
ATOM     28  C   UNL     1       0.423  10.653  18.252  0.00  0.00    +0.000 C 
BRANCH  28  29
ATOM     29  C   UNL     1       1.227   9.465  18.746  0.00  0.00    +0.000 A 
ATOM     30  C   UNL     1       2.003   8.693  17.867  0.00  0.00    +0.000 A 
ATOM     31  C   UNL     1       2.569   7.492  18.291  0.00  0.00    +0.000 A 
ATOM     32  C   UNL     1       2.401   7.085  19.606  0.00  0.00    +0.000 A 
ATOM     33  F   UNL     1       2.903   5.907  20.000  0.00  0.00    +0.000 F 
ATOM     34  C   UNL     1       1.709   7.874  20.518  0.00  0.00    +0.000 A 
ATOM     35  C   UNL     1       1.129   9.068  20.088  0.00  0.00    +0.000 A 
ENDBRANCH  28  29
ENDBRANCH  19  28
ENDBRANCH   1  19
TORSDOF 8
ENDMDL
MODEL 9
REMARK VINA RESULT:      -6.5      5.056      9.247
REMARK  Name = 
REMARK  11 active torsions:
REMARK  status: ('A' for Active; 'I' for Inactive)
REMARK    1  A    between atoms: C_1  and  S_2
REMARK    2  A    between atoms: S_2  and  C_3
REMARK    3  A    between atoms: C_3  and  C_4
REMARK    4  A    between atoms: C_4  and  C_5
REMARK    5  A    between atoms: N_7  and  C_8
REMARK    6  A    between atoms: N_7  and  C_9
REMARK    7  A    between atoms: C_9  and  C_10
REMARK    8  A    between atoms: C_9  and  C_18
REMARK    9  A    between atoms: C_10  and  C_11
REMARK   10  A    between atoms: C_22  and  C_24
REMARK   11  A    between atoms: N_32  and  C_33
REMARK                            x       y       z     vdW  Elec       q    Type
REMARK                         _______ _______ _______ _____ _____    ______ ____
ROOT
ATOM      1  C   UNL     1       0.292  13.179  18.633  0.00  0.00    +0.000 C 
ATOM      2  C   UNL     1       1.661  13.006  17.943  0.00  0.00    +0.000 C 
ATOM      3  C   UNL     1       2.764  13.715  18.704  0.00  0.00    +0.000 C 
ATOM      4  N   UNL     1       2.545  15.146  18.870  0.00  0.00    +0.000 N 
ATOM      5  C   UNL     1       3.591  16.066  19.129  0.00  0.00    +0.000 C 
ATOM      6  O   UNL     1       3.372  17.269  19.208  0.00  0.00    +0.000 OA
ATOM      7  C   UNL     1       1.202  15.578  19.214  0.00  0.00    +0.000 C 
ATOM      8  C   UNL     1       0.075  14.713  18.655  0.00  0.00    +0.000 C 
ENDROOT
BRANCH   5   9
ATOM      9  C   UNL     1       4.934  15.523  19.293  0.00  0.00    +0.000 A 
ATOM     10  C   UNL     1       5.866  15.211  18.315  0.00  0.00    +0.000 A 
ATOM     11  C   UNL     1       7.113  14.984  18.937  0.00  0.00    +0.000 A 
ATOM     12  C   UNL     1       8.418  14.855  18.439  0.00  0.00    +0.000 A 
ATOM     13  C   UNL     1       9.465  14.615  19.328  0.00  0.00    +0.000 A 
ATOM     14  C   UNL     1       9.211  14.491  20.691  0.00  0.00    +0.000 A 
ATOM     15  C   UNL     1       7.917  14.636  21.207  0.00  0.00    +0.000 A 
ATOM     16  C   UNL     1       6.873  14.912  20.309  0.00  0.00    +0.000 A 
ATOM     17  N   UNL     1       5.523  15.152  20.491  0.00  0.00    +0.000 N 
ATOM     18  C   UNL     1       4.827  15.098  21.761  0.00  0.00    +0.000 C 
ENDBRANCH   5   9
BRANCH   1  19
ATOM     19  C   UNL     1       0.125  12.295  19.961  0.00  0.00    +0.000 C 
BRANCH  19  22
ATOM     20  C   UNL     1      -0.063  13.678  22.085  0.00  0.00    +0.000 C 
ATOM     21  O   UNL     1       1.153  13.831  22.165  0.00  0.00    +0.000 OA
ATOM     22  N   UNL     1      -0.690  12.894  21.084  0.00  0.00    +0.000 N 
ATOM     23  C   UNL     1      -2.144  12.826  21.031  0.00  0.00    +0.000 C 
BRANCH  20  24
ATOM     24  C   UNL     1      -1.009  14.344  23.079  0.00  0.00    +0.000 C 
BRANCH  24  25
ATOM     25  C   UNL     1      -1.183  15.851  22.955  0.00  0.00    +0.000 C 
BRANCH  25  27
ATOM     26  C   UNL     1      -2.926  15.805  25.133  0.00  0.00    +0.000 C 
ATOM     27  S   UNL     1      -2.943  16.186  23.372  0.00  0.00    +0.000 S 
ENDBRANCH  25  27
ENDBRANCH  24  25
ENDBRANCH  20  24
ENDBRANCH  19  22
BRANCH  19  28
ATOM     28  C   UNL     1      -0.451  10.863  19.588  0.00  0.00    +0.000 C 
BRANCH  28  29
ATOM     29  C   UNL     1       0.619   9.806  19.385  0.00  0.00    +0.000 A 
ATOM     30  C   UNL     1       1.198   9.586  18.125  0.00  0.00    +0.000 A 
ATOM     31  C   UNL     1       2.023   8.483  17.907  0.00  0.00    +0.000 A 
ATOM     32  C   UNL     1       2.309   7.627  18.960  0.00  0.00    +0.000 A 
ATOM     33  F   UNL     1       3.062   6.541  18.740  0.00  0.00    +0.000 F 
ATOM     34  C   UNL     1       1.818   7.872  20.238  0.00  0.00    +0.000 A 
ATOM     35  C   UNL     1       0.978   8.967  20.450  0.00  0.00    +0.000 A 
ENDBRANCH  28  29
ENDBRANCH  19  28
ENDBRANCH   1  19
TORSDOF 8
ENDMDL
