MODEL 1
REMARK VINA RESULT:      -7.0      0.000      0.000
REMARK  Name = 
REMARK  4 active torsions:
REMARK  status: ('A' for Active; 'I' for Inactive)
REMARK    1  A    between atoms: C_2  and  C_3
REMARK    2  A    between atoms: N_7  and  C_8
REMARK    3  A    between atoms: N_11  and  C_12
REMARK    4  A    between atoms: C_12  and  C_13
REMARK                            x       y       z     vdW  Elec       q    Type
REMARK                         _______ _______ _______ _____ _____    ______ ____
ROOT
ATOM      1  C   UNL     1       3.269   5.972  18.478  0.00  0.00    +0.000 C 
ATOM      2  C   UNL     1       2.669   4.785  17.732  0.00  0.00    +0.000 C 
ATOM      3  C   UNL     1       3.833   3.992  17.122  0.00  0.00    +0.000 C 
ATOM      4  N   UNL     1       4.706   4.796  16.242  0.00  0.00    +0.000 NA
ATOM      5  C   UNL     1       5.108   6.092  16.828  0.00  0.00    +0.000 C 
ATOM      6  C   UNL     1       3.954   6.875  17.455  0.00  0.00    +0.000 C 
ENDROOT
BRANCH   1  11
ATOM      7  C   UNL     1       1.880   6.183  20.548  0.00  0.00    +0.000 A 
ATOM      8  C   UNL     1       1.260   7.209  21.228  0.00  0.00    +0.000 A 
ATOM      9  C   UNL     1       1.370   8.375  20.433  0.00  0.00    +0.000 A 
ATOM     10  C   UNL     1       2.049   8.030  19.282  0.00  0.00    +0.000 A 
ATOM     11  N   UNL     1       2.392   6.704  19.376  0.00  0.00    +0.000 N 
BRANCH   7  13
ATOM     12  C   UNL     1       2.084   3.682  21.326  0.00  0.00    +0.000 C 
ATOM     13  C   UNL     1       2.018   4.835  20.986  0.00  0.00    +0.000 C 
ENDBRANCH   7  13
ENDBRANCH   1  11
BRANCH   4  14
ATOM     14  C   UNL     1       5.937   4.037  15.905  0.00  0.00    +0.000 C 
BRANCH  14  15
ATOM     15  C   UNL     1       6.398   4.172  14.469  0.00  0.00    +0.000 A 
ATOM     16  C   UNL     1       7.398   5.090  14.122  0.00  0.00    +0.000 A 
ATOM     17  C   UNL     1       7.834   5.197  12.801  0.00  0.00    +0.000 A 
ATOM     18  C   UNL     1       7.284   4.382  11.813  0.00  0.00    +0.000 A 
ATOM     19  C   UNL     1       6.289   3.465  12.143  0.00  0.00    +0.000 A 
ATOM     20  C   UNL     1       5.845   3.362  13.463  0.00  0.00    +0.000 A 
ENDBRANCH  14  15
ENDBRANCH   4  14
TORSDOF 4
ENDMDL
MODEL 2
REMARK VINA RESULT:      -7.0      0.195      1.094
REMARK  Name = 
REMARK  4 active torsions:
REMARK  status: ('A' for Active; 'I' for Inactive)
REMARK    1  A    between atoms: C_2  and  C_3
REMARK    2  A    between atoms: N_7  and  C_8
REMARK    3  A    between atoms: N_11  and  C_12
REMARK    4  A    between atoms: C_12  and  C_13
REMARK                            x       y       z     vdW  Elec       q    Type
REMARK                         _______ _______ _______ _____ _____    ______ ____
ROOT
ATOM      1  C   UNL     1       3.311   6.156  18.499  0.00  0.00    +0.000 C 
ATOM      2  C   UNL     1       2.786   4.927  17.765  0.00  0.00    +0.000 C 
ATOM      3  C   UNL     1       3.999   4.191  17.180  0.00  0.00    +0.000 C 
ATOM      4  N   UNL     1       4.837   5.029  16.297  0.00  0.00    +0.000 NA
ATOM      5  C   UNL     1       5.159   6.353  16.867  0.00  0.00    +0.000 C 
ATOM      6  C   UNL     1       3.958   7.080  17.469  0.00  0.00    +0.000 C 
ENDROOT
BRANCH   1  11
ATOM      7  C   UNL     1       1.849   6.302  20.524  0.00  0.00    +0.000 A 
ATOM      8  C   UNL     1       1.179   7.302  21.195  0.00  0.00    +0.000 A 
ATOM      9  C   UNL     1       1.281   8.479  20.418  0.00  0.00    +0.000 A 
ATOM     10  C   UNL     1       2.006   8.169  19.286  0.00  0.00    +0.000 A 
ATOM     11  N   UNL     1       2.385   6.852  19.376  0.00  0.00    +0.000 N 
BRANCH   7  13
ATOM     12  C   UNL     1       2.208   3.825  21.323  0.00  0.00    +0.000 C 
ATOM     13  C   UNL     1       2.012   4.953  20.951  0.00  0.00    +0.000 C 
ENDBRANCH   7  13
ENDBRANCH   1  11
BRANCH   4  14
ATOM     14  C   UNL     1       6.112   4.334  15.985  0.00  0.00    +0.000 C 
BRANCH  14  15
ATOM     15  C   UNL     1       6.498   4.335  14.522  0.00  0.00    +0.000 A 
ATOM     16  C   UNL     1       5.830   3.513  13.605  0.00  0.00    +0.000 A 
ATOM     17  C   UNL     1       6.175   3.531  12.253  0.00  0.00    +0.000 A 
ATOM     18  C   UNL     1       7.186   4.378  11.799  0.00  0.00    +0.000 A 
ATOM     19  C   UNL     1       7.859   5.200  12.699  0.00  0.00    +0.000 A 
ATOM     20  C   UNL     1       7.521   5.178  14.054  0.00  0.00    +0.000 A 
ENDBRANCH  14  15
ENDBRANCH   4  14
TORSDOF 4
ENDMDL
MODEL 3
REMARK VINA RESULT:      -6.8      1.415      2.862
REMARK  Name = 
REMARK  4 active torsions:
REMARK  status: ('A' for Active; 'I' for Inactive)
REMARK    1  A    between atoms: C_2  and  C_3
REMARK    2  A    between atoms: N_7  and  C_8
REMARK    3  A    between atoms: N_11  and  C_12
REMARK    4  A    between atoms: C_12  and  C_13
REMARK                            x       y       z     vdW  Elec       q    Type
REMARK                         _______ _______ _______ _____ _____    ______ ____
ROOT
ATOM      1  C   UNL     1       3.984   4.271  18.764  0.00  0.00    +0.000 C 
ATOM      2  C   UNL     1       5.424   3.973  19.171  0.00  0.00    +0.000 C 
ATOM      3  C   UNL     1       6.340   4.696  18.174  0.00  0.00    +0.000 C 
ATOM      4  N   UNL     1       6.092   4.331  16.764  0.00  0.00    +0.000 NA
ATOM      5  C   UNL     1       4.664   4.352  16.387  0.00  0.00    +0.000 C 
ATOM      6  C   UNL     1       3.746   3.651  17.388  0.00  0.00    +0.000 C 
ENDROOT
BRANCH   1  11
ATOM      7  C   UNL     1       2.038   4.850  20.225  0.00  0.00    +0.000 A 
ATOM      8  C   UNL     1       1.089   4.151  20.939  0.00  0.00    +0.000 A 
ATOM      9  C   UNL     1       1.446   2.782  20.895  0.00  0.00    +0.000 A 
ATOM     10  C   UNL     1       2.608   2.679  20.159  0.00  0.00    +0.000 A 
ATOM     11  N   UNL     1       2.942   3.937  19.719  0.00  0.00    +0.000 N 
BRANCH   7  13
ATOM     12  C   UNL     1       2.150   7.444  19.822  0.00  0.00    +0.000 C 
ATOM     13  C   UNL     1       2.067   6.256  19.999  0.00  0.00    +0.000 C 
ENDBRANCH   7  13
ENDBRANCH   1  11
BRANCH   4  14
ATOM     14  C   UNL     1       6.826   5.250  15.857  0.00  0.00    +0.000 C 
BRANCH  14  15
ATOM     15  C   UNL     1       6.884   4.809  14.410  0.00  0.00    +0.000 A 
ATOM     16  C   UNL     1       6.062   3.775  13.945  0.00  0.00    +0.000 A 
ATOM     17  C   UNL     1       6.103   3.385  12.605  0.00  0.00    +0.000 A 
ATOM     18  C   UNL     1       6.960   4.030  11.714  0.00  0.00    +0.000 A 
ATOM     19  C   UNL     1       7.783   5.060  12.163  0.00  0.00    +0.000 A 
ATOM     20  C   UNL     1       7.749   5.446  13.504  0.00  0.00    +0.000 A 
ENDBRANCH  14  15
ENDBRANCH   4  14
TORSDOF 4
ENDMDL
MODEL 4
REMARK VINA RESULT:      -6.7      1.418      2.736
REMARK  Name = 
REMARK  4 active torsions:
REMARK  status: ('A' for Active; 'I' for Inactive)
REMARK    1  A    between atoms: C_2  and  C_3
REMARK    2  A    between atoms: N_7  and  C_8
REMARK    3  A    between atoms: N_11  and  C_12
REMARK    4  A    between atoms: C_12  and  C_13
REMARK                            x       y       z     vdW  Elec       q    Type
REMARK                         _______ _______ _______ _____ _____    ______ ____
ROOT
ATOM      1  C   UNL     1       4.102   4.236  18.909  0.00  0.00    +0.000 C 
ATOM      2  C   UNL     1       5.590   4.028  19.170  0.00  0.00    +0.000 C 
ATOM      3  C   UNL     1       6.356   4.803  18.090  0.00  0.00    +0.000 C 
ATOM      4  N   UNL     1       5.992   4.421  16.709  0.00  0.00    +0.000 NA
ATOM      5  C   UNL     1       4.535   4.353  16.476  0.00  0.00    +0.000 C 
ATOM      6  C   UNL     1       3.766   3.600  17.561  0.00  0.00    +0.000 C 
ENDROOT
BRANCH   1  11
ATOM      7  C   UNL     1       2.243   4.684  20.522  0.00  0.00    +0.000 A 
ATOM      8  C   UNL     1       1.429   3.926  21.336  0.00  0.00    +0.000 A 
ATOM      9  C   UNL     1       1.908   2.595  21.296  0.00  0.00    +0.000 A 
ATOM     10  C   UNL     1       3.006   2.574  20.462  0.00  0.00    +0.000 A 
ATOM     11  N   UNL     1       3.181   3.841  19.962  0.00  0.00    +0.000 N 
BRANCH   7  13
ATOM     12  C   UNL     1       2.010   7.243  19.975  0.00  0.00    +0.000 C 
ATOM     13  C   UNL     1       2.119   6.078  20.258  0.00  0.00    +0.000 C 
ENDBRANCH   7  13
ENDBRANCH   1  11
BRANCH   4  14
ATOM     14  C   UNL     1       6.575   5.381  15.738  0.00  0.00    +0.000 C 
BRANCH  14  15
ATOM     15  C   UNL     1       6.699   4.861  14.321  0.00  0.00    +0.000 A 
ATOM     16  C   UNL     1       7.675   5.371  13.456  0.00  0.00    +0.000 A 
ATOM     17  C   UNL     1       7.800   4.875  12.157  0.00  0.00    +0.000 A 
ATOM     18  C   UNL     1       6.957   3.857  11.712  0.00  0.00    +0.000 A 
ATOM     19  C   UNL     1       5.982   3.341  12.562  0.00  0.00    +0.000 A 
ATOM     20  C   UNL     1       5.850   3.842  13.859  0.00  0.00    +0.000 A 
ENDBRANCH  14  15
ENDBRANCH   4  14
TORSDOF 4
ENDMDL
MODEL 5
REMARK VINA RESULT:      -6.6      2.542      4.658
REMARK  Name = 
REMARK  4 active torsions:
REMARK  status: ('A' for Active; 'I' for Inactive)
REMARK    1  A    between atoms: C_2  and  C_3
REMARK    2  A    between atoms: N_7  and  C_8
REMARK    3  A    between atoms: N_11  and  C_12
REMARK    4  A    between atoms: C_12  and  C_13
REMARK                            x       y       z     vdW  Elec       q    Type
REMARK                         _______ _______ _______ _____ _____    ______ ____
ROOT
ATOM      1  C   UNL     1       1.080   9.097  19.290  0.00  0.00    +0.000 C 
ATOM      2  C   UNL     1       2.088   9.392  18.185  0.00  0.00    +0.000 C 
ATOM      3  C   UNL     1       2.483   8.049  17.556  0.00  0.00    +0.000 C 
ATOM      4  N   UNL     1       3.018   7.071  18.526  0.00  0.00    +0.000 NA
ATOM      5  C   UNL     1       2.201   6.941  19.750  0.00  0.00    +0.000 C 
ATOM      6  C   UNL     1       1.787   8.276  20.367  0.00  0.00    +0.000 C 
ENDROOT
BRANCH   1  11
ATOM      7  C   UNL     1      -0.842  10.699  19.310  0.00  0.00    +0.000 A 
ATOM      8  C   UNL     1      -1.345  11.636  20.187  0.00  0.00    +0.000 A 
ATOM      9  C   UNL     1      -0.425  11.758  21.255  0.00  0.00    +0.000 A 
ATOM     10  C   UNL     1       0.623  10.897  21.001  0.00  0.00    +0.000 A 
ATOM     11  N   UNL     1       0.344  10.225  19.836  0.00  0.00    +0.000 N 
BRANCH   7  13
ATOM     12  C   UNL     1      -1.936   9.925  17.051  0.00  0.00    +0.000 C 
ATOM     13  C   UNL     1      -1.449  10.254  18.101  0.00  0.00    +0.000 C 
ENDBRANCH   7  13
ENDBRANCH   1  11
BRANCH   4  14
ATOM     14  C   UNL     1       3.131   5.730  17.897  0.00  0.00    +0.000 C 
BRANCH  14  15
ATOM     15  C   UNL     1       4.473   5.434  17.261  0.00  0.00    +0.000 A 
ATOM     16  C   UNL     1       5.568   6.280  17.476  0.00  0.00    +0.000 A 
ATOM     17  C   UNL     1       6.809   5.992  16.905  0.00  0.00    +0.000 A 
ATOM     18  C   UNL     1       6.971   4.851  16.119  0.00  0.00    +0.000 A 
ATOM     19  C   UNL     1       5.890   4.002  15.897  0.00  0.00    +0.000 A 
ATOM     20  C   UNL     1       4.646   4.292  16.461  0.00  0.00    +0.000 A 
ENDBRANCH  14  15
ENDBRANCH   4  14
TORSDOF 4
ENDMDL
MODEL 6
REMARK VINA RESULT:      -6.5      1.230      2.429
REMARK  Name = 
REMARK  4 active torsions:
REMARK  status: ('A' for Active; 'I' for Inactive)
REMARK    1  A    between atoms: C_2  and  C_3
REMARK    2  A    between atoms: N_7  and  C_8
REMARK    3  A    between atoms: N_11  and  C_12
REMARK    4  A    between atoms: C_12  and  C_13
REMARK                            x       y       z     vdW  Elec       q    Type
REMARK                         _______ _______ _______ _____ _____    ______ ____
ROOT
ATOM      1  C   UNL     1       4.371   5.215  18.620  0.00  0.00    +0.000 C 
ATOM      2  C   UNL     1       5.607   4.389  18.960  0.00  0.00    +0.000 C 
ATOM      3  C   UNL     1       6.686   4.733  17.925  0.00  0.00    +0.000 C 
ATOM      4  N   UNL     1       6.262   4.515  16.526  0.00  0.00    +0.000 NA
ATOM      5  C   UNL     1       4.932   5.081  16.215  0.00  0.00    +0.000 C 
ATOM      6  C   UNL     1       3.860   4.758  17.255  0.00  0.00    +0.000 C 
ENDROOT
BRANCH   1  11
ATOM      7  C   UNL     1       2.372   6.282  19.679  0.00  0.00    +0.000 A 
ATOM      8  C   UNL     1       1.433   5.918  20.620  0.00  0.00    +0.000 A 
ATOM      9  C   UNL     1       1.841   4.680  21.172  0.00  0.00    +0.000 A 
ATOM     10  C   UNL     1       3.022   4.321  20.558  0.00  0.00    +0.000 A 
ATOM     11  N   UNL     1       3.320   5.280  19.621  0.00  0.00    +0.000 N 
BRANCH   7  13
ATOM     12  C   UNL     1       2.392   8.426  18.161  0.00  0.00    +0.000 C 
ATOM     13  C   UNL     1       2.353   7.453  18.869  0.00  0.00    +0.000 C 
ENDBRANCH   7  13
ENDBRANCH   1  11
BRANCH   4  14
ATOM     14  C   UNL     1       7.250   5.108  15.589  0.00  0.00    +0.000 C 
BRANCH  14  15
ATOM     15  C   UNL     1       7.075   4.709  14.139  0.00  0.00    +0.000 A 
ATOM     16  C   UNL     1       7.812   5.342  13.130  0.00  0.00    +0.000 A 
ATOM     17  C   UNL     1       7.663   4.958  11.796  0.00  0.00    +0.000 A 
ATOM     18  C   UNL     1       6.783   3.930  11.458  0.00  0.00    +0.000 A 
ATOM     19  C   UNL     1       6.044   3.292  12.451  0.00  0.00    +0.000 A 
ATOM     20  C   UNL     1       6.186   3.681  13.784  0.00  0.00    +0.000 A 
ENDBRANCH  14  15
ENDBRANCH   4  14
TORSDOF 4
ENDMDL
MODEL 7
REMARK VINA RESULT:      -6.5      1.665      7.679
REMARK  Name = 
REMARK  4 active torsions:
REMARK  status: ('A' for Active; 'I' for Inactive)
REMARK    1  A    between atoms: C_2  and  C_3
REMARK    2  A    between atoms: N_7  and  C_8
REMARK    3  A    between atoms: N_11  and  C_12
REMARK    4  A    between atoms: C_12  and  C_13
REMARK                            x       y       z     vdW  Elec       q    Type
REMARK                         _______ _______ _______ _____ _____    ______ ____
ROOT
ATOM      1  C   UNL     1       5.528   4.948  15.103  0.00  0.00    +0.000 C 
ATOM      2  C   UNL     1       5.347   3.732  16.005  0.00  0.00    +0.000 C 
ATOM      3  C   UNL     1       4.022   3.912  16.757  0.00  0.00    +0.000 C 
ATOM      4  N   UNL     1       3.939   5.171  17.527  0.00  0.00    +0.000 NA
ATOM      5  C   UNL     1       4.360   6.363  16.762  0.00  0.00    +0.000 C 
ATOM      6  C   UNL     1       5.669   6.179  15.996  0.00  0.00    +0.000 C 
ENDROOT
BRANCH   1  11
ATOM      7  C   UNL     1       6.361   4.343  12.823  0.00  0.00    +0.000 A 
ATOM      8  C   UNL     1       7.486   4.611  12.073  0.00  0.00    +0.000 A 
ATOM      9  C   UNL     1       8.404   5.288  12.910  0.00  0.00    +0.000 A 
ATOM     10  C   UNL     1       7.821   5.411  14.154  0.00  0.00    +0.000 A 
ATOM     11  N   UNL     1       6.560   4.871  14.084  0.00  0.00    +0.000 N 
BRANCH   7  13
ATOM     12  C   UNL     1       4.189   3.155  11.945  0.00  0.00    +0.000 C 
ATOM     13  C   UNL     1       5.178   3.687  12.377  0.00  0.00    +0.000 C 
ENDBRANCH   7  13
ENDBRANCH   1  11
BRANCH   4  14
ATOM     14  C   UNL     1       2.550   5.392  18.005  0.00  0.00    +0.000 C 
BRANCH  14  15
ATOM     15  C   UNL     1       2.117   4.494  19.144  0.00  0.00    +0.000 A 
ATOM     16  C   UNL     1       1.251   3.417  18.915  0.00  0.00    +0.000 A 
ATOM     17  C   UNL     1       0.869   2.579  19.964  0.00  0.00    +0.000 A 
ATOM     18  C   UNL     1       1.356   2.802  21.252  0.00  0.00    +0.000 A 
ATOM     19  C   UNL     1       2.218   3.868  21.494  0.00  0.00    +0.000 A 
ATOM     20  C   UNL     1       2.594   4.713  20.448  0.00  0.00    +0.000 A 
ENDBRANCH  14  15
ENDBRANCH   4  14
TORSDOF 4
ENDMDL
MODEL 8
REMARK VINA RESULT:      -6.5      1.675      7.612
REMARK  Name = 
REMARK  4 active torsions:
REMARK  status: ('A' for Active; 'I' for Inactive)
REMARK    1  A    between atoms: C_2  and  C_3
REMARK    2  A    between atoms: N_7  and  C_8
REMARK    3  A    between atoms: N_11  and  C_12
REMARK    4  A    between atoms: C_12  and  C_13
REMARK                            x       y       z     vdW  Elec       q    Type
REMARK                         _______ _______ _______ _____ _____    ______ ____
ROOT
ATOM      1  C   UNL     1       5.559   4.962  15.088  0.00  0.00    +0.000 C 
ATOM      2  C   UNL     1       5.379   3.739  15.981  0.00  0.00    +0.000 C 
ATOM      3  C   UNL     1       4.056   3.914  16.737  0.00  0.00    +0.000 C 
ATOM      4  N   UNL     1       3.975   5.166  17.517  0.00  0.00    +0.000 NA
ATOM      5  C   UNL     1       4.396   6.364  16.761  0.00  0.00    +0.000 C 
ATOM      6  C   UNL     1       5.703   6.186  15.990  0.00  0.00    +0.000 C 
ENDROOT
BRANCH   1  11
ATOM      7  C   UNL     1       6.394   4.352  12.810  0.00  0.00    +0.000 A 
ATOM      8  C   UNL     1       7.512   4.630  12.054  0.00  0.00    +0.000 A 
ATOM      9  C   UNL     1       8.423   5.328  12.882  0.00  0.00    +0.000 A 
ATOM     10  C   UNL     1       7.841   5.453  14.127  0.00  0.00    +0.000 A 
ATOM     11  N   UNL     1       6.589   4.892  14.066  0.00  0.00    +0.000 N 
BRANCH   7  13
ATOM     12  C   UNL     1       4.226   3.137  11.958  0.00  0.00    +0.000 C 
ATOM     13  C   UNL     1       5.220   3.673  12.374  0.00  0.00    +0.000 C 
ENDBRANCH   7  13
ENDBRANCH   1  11
BRANCH   4  14
ATOM     14  C   UNL     1       2.588   5.385  18.001  0.00  0.00    +0.000 C 
BRANCH  14  15
ATOM     15  C   UNL     1       2.153   4.471  19.127  0.00  0.00    +0.000 A 
ATOM     16  C   UNL     1       2.605   4.684  20.435  0.00  0.00    +0.000 A 
ATOM     17  C   UNL     1       2.186   3.852  21.475  0.00  0.00    +0.000 A 
ATOM     18  C   UNL     1       1.302   2.804  21.219  0.00  0.00    +0.000 A 
ATOM     19  C   UNL     1       0.845   2.580  19.923  0.00  0.00    +0.000 A 
ATOM     20  C   UNL     1       1.270   3.406  18.881  0.00  0.00    +0.000 A 
ENDBRANCH  14  15
ENDBRANCH   4  14
TORSDOF 4
ENDMDL
MODEL 9
REMARK VINA RESULT:      -6.5      4.182      6.681
REMARK  Name = 
REMARK  4 active torsions:
REMARK  status: ('A' for Active; 'I' for Inactive)
REMARK    1  A    between atoms: C_2  and  C_3
REMARK    2  A    between atoms: N_7  and  C_8
REMARK    3  A    between atoms: N_11  and  C_12
REMARK    4  A    between atoms: C_12  and  C_13
REMARK                            x       y       z     vdW  Elec       q    Type
REMARK                         _______ _______ _______ _____ _____    ______ ____
ROOT
ATOM      1  C   UNL     1       0.674   9.447  19.263  0.00  0.00    +0.000 C 
ATOM      2  C   UNL     1       1.773   9.666  18.230  0.00  0.00    +0.000 C 
ATOM      3  C   UNL     1       2.250   8.283  17.767  0.00  0.00    +0.000 C 
ATOM      4  N   UNL     1       2.712   7.412  18.868  0.00  0.00    +0.000 NA
ATOM      5  C   UNL     1       1.789   7.373  20.021  0.00  0.00    +0.000 C 
ATOM      6  C   UNL     1       1.296   8.747  20.471  0.00  0.00    +0.000 C 
ENDROOT
BRANCH   1  11
ATOM      7  C   UNL     1      -1.296  10.963  18.992  0.00  0.00    +0.000 A 
ATOM      8  C   UNL     1      -1.882  11.973  19.725  0.00  0.00    +0.000 A 
ATOM      9  C   UNL     1      -1.030  12.252  20.820  0.00  0.00    +0.000 A 
ATOM     10  C   UNL     1       0.058  11.410  20.726  0.00  0.00    +0.000 A 
ATOM     11  N   UNL     1      -0.129  10.600  19.633  0.00  0.00    +0.000 N 
BRANCH   7  13
ATOM     12  C   UNL     1      -2.198   9.848  16.791  0.00  0.00    +0.000 C 
ATOM     13  C   UNL     1      -1.816  10.360  17.811  0.00  0.00    +0.000 C 
ENDBRANCH   7  13
ENDBRANCH   1  11
BRANCH   4  14
ATOM     14  C   UNL     1       2.907   6.023  18.380  0.00  0.00    +0.000 C 
BRANCH  14  15
ATOM     15  C   UNL     1       2.309   4.947  19.260  0.00  0.00    +0.000 A 
ATOM     16  C   UNL     1       1.339   4.070  18.757  0.00  0.00    +0.000 A 
ATOM     17  C   UNL     1       0.804   3.066  19.566  0.00  0.00    +0.000 A 
ATOM     18  C   UNL     1       1.238   2.921  20.883  0.00  0.00    +0.000 A 
ATOM     19  C   UNL     1       2.202   3.785  21.396  0.00  0.00    +0.000 A 
ATOM     20  C   UNL     1       2.733   4.795  20.591  0.00  0.00    +0.000 A 
ENDBRANCH  14  15
ENDBRANCH   4  14
TORSDOF 4
ENDMDL
