MODEL 1
REMARK VINA RESULT:      -6.2      0.000      0.000
REMARK  Name = 
REMARK  5 active torsions:
REMARK  status: ('A' for Active; 'I' for Inactive)
REMARK    1  A    between atoms: C_1  and  N_2
REMARK    2  A    between atoms: N_2  and  C_3
REMARK    3  A    between atoms: C_3  and  C_4
REMARK    4  A    between atoms: C_10  and  C_11
REMARK    5  A    between atoms: C_10  and  C_12
REMARK                            x       y       z     vdW  Elec       q    Type
REMARK                         _______ _______ _______ _____ _____    ______ ____
ROOT
ATOM      1  C   UNL     1       3.544   3.860  19.363  0.00  0.00    +0.000 C 
ATOM      2  C   UNL     1       4.498   2.776  19.899  0.00  0.00    +0.000 C 
ATOM      3  C   UNL     1       2.996   3.535  17.923  0.00  0.00    +0.000 C 
ATOM      4  C   UNL     1       2.382   2.124  17.826  0.00  0.00    +0.000 C 
ATOM      5  C   UNL     1       1.070   2.260  18.602  0.00  0.00    +0.000 C 
ATOM      6  C   UNL     1       1.094   3.728  19.066  0.00  0.00    +0.000 C 
ATOM      7  C   UNL     1       1.730   4.392  17.840  0.00  0.00    +0.000 C 
ATOM      8  C   UNL     1       2.163   3.975  20.190  0.00  0.00    +0.000 C 
ATOM      9  C   UNL     1       1.889   5.375  20.808  0.00  0.00    +0.000 C 
ATOM     10  C   UNL     1       2.021   2.993  21.371  0.00  0.00    +0.000 C 
ENDROOT
BRANCH   1  12
ATOM     11  C   UNL     1       5.709   5.107  19.133  0.00  0.00    +0.000 C 
ATOM     12  N   UNL     1       4.275   5.154  19.381  0.00  0.00    +0.000 NA
ATOM     13  H   UNL     1       3.873   5.793  18.698  0.00  0.00    +0.000 HD
ENDBRANCH   1  12
TORSDOF 1
ENDMDL
MODEL 2
REMARK VINA RESULT:      -5.9      1.079      2.112
REMARK  Name = 
REMARK  5 active torsions:
REMARK  status: ('A' for Active; 'I' for Inactive)
REMARK    1  A    between atoms: C_1  and  N_2
REMARK    2  A    between atoms: N_2  and  C_3
REMARK    3  A    between atoms: C_3  and  C_4
REMARK    4  A    between atoms: C_10  and  C_11
REMARK    5  A    between atoms: C_10  and  C_12
REMARK                            x       y       z     vdW  Elec       q    Type
REMARK                         _______ _______ _______ _____ _____    ______ ____
ROOT
ATOM      1  C   UNL     1       3.109   4.526  19.550  0.00  0.00    +0.000 C 
ATOM      2  C   UNL     1       4.555   4.951  19.229  0.00  0.00    +0.000 C 
ATOM      3  C   UNL     1       2.210   4.397  18.264  0.00  0.00    +0.000 C 
ATOM      4  C   UNL     1       2.848   3.506  17.179  0.00  0.00    +0.000 C 
ATOM      5  C   UNL     1       2.712   2.097  17.760  0.00  0.00    +0.000 C 
ATOM      6  C   UNL     1       2.026   2.347  19.116  0.00  0.00    +0.000 C 
ATOM      7  C   UNL     1       1.073   3.485  18.734  0.00  0.00    +0.000 C 
ATOM      8  C   UNL     1       2.991   3.031  20.148  0.00  0.00    +0.000 C 
ATOM      9  C   UNL     1       2.327   2.944  21.552  0.00  0.00    +0.000 C 
ATOM     10  C   UNL     1       4.328   2.278  20.303  0.00  0.00    +0.000 C 
ENDROOT
BRANCH   1  12
ATOM     11  C   UNL     1       2.232   6.838  19.973  0.00  0.00    +0.000 C 
ATOM     12  N   UNL     1       2.548   5.518  20.503  0.00  0.00    +0.000 NA
ATOM     13  H   UNL     1       1.697   5.154  20.926  0.00  0.00    +0.000 HD
ENDBRANCH   1  12
TORSDOF 1
ENDMDL
MODEL 3
REMARK VINA RESULT:      -5.7      1.158      2.884
REMARK  Name = 
REMARK  5 active torsions:
REMARK  status: ('A' for Active; 'I' for Inactive)
REMARK    1  A    between atoms: C_1  and  N_2
REMARK    2  A    between atoms: N_2  and  C_3
REMARK    3  A    between atoms: C_3  and  C_4
REMARK    4  A    between atoms: C_10  and  C_11
REMARK    5  A    between atoms: C_10  and  C_12
REMARK                            x       y       z     vdW  Elec       q    Type
REMARK                         _______ _______ _______ _____ _____    ______ ____
ROOT
ATOM      1  C   UNL     1       3.569   4.118  19.316  0.00  0.00    +0.000 C 
ATOM      2  C   UNL     1       3.421   5.359  18.416  0.00  0.00    +0.000 C 
ATOM      3  C   UNL     1       2.855   4.283  20.709  0.00  0.00    +0.000 C 
ATOM      4  C   UNL     1       1.384   4.727  20.573  0.00  0.00    +0.000 C 
ATOM      5  C   UNL     1       0.687   3.471  20.046  0.00  0.00    +0.000 C 
ATOM      6  C   UNL     1       1.842   2.460  19.927  0.00  0.00    +0.000 C 
ATOM      7  C   UNL     1       2.662   2.834  21.166  0.00  0.00    +0.000 C 
ATOM      8  C   UNL     1       2.814   2.810  18.745  0.00  0.00    +0.000 C 
ATOM      9  C   UNL     1       3.735   1.580  18.506  0.00  0.00    +0.000 C 
ATOM     10  C   UNL     1       2.076   3.010  17.406  0.00  0.00    +0.000 C 
ENDROOT
BRANCH   1  12
ATOM     11  C   UNL     1       5.936   4.930  19.129  0.00  0.00    +0.000 C 
ATOM     12  N   UNL     1       5.022   3.853  19.484  0.00  0.00    +0.000 NA
ATOM     13  H   UNL     1       5.221   3.596  20.449  0.00  0.00    +0.000 HD
ENDBRANCH   1  12
TORSDOF 1
ENDMDL
MODEL 4
REMARK VINA RESULT:      -5.7      1.116      2.675
REMARK  Name = 
REMARK  5 active torsions:
REMARK  status: ('A' for Active; 'I' for Inactive)
REMARK    1  A    between atoms: C_1  and  N_2
REMARK    2  A    between atoms: N_2  and  C_3
REMARK    3  A    between atoms: C_3  and  C_4
REMARK    4  A    between atoms: C_10  and  C_11
REMARK    5  A    between atoms: C_10  and  C_12
REMARK                            x       y       z     vdW  Elec       q    Type
REMARK                         _______ _______ _______ _____ _____    ______ ____
ROOT
ATOM      1  C   UNL     1       3.861   3.784  19.226  0.00  0.00    +0.000 C 
ATOM      2  C   UNL     1       3.443   4.930  20.166  0.00  0.00    +0.000 C 
ATOM      3  C   UNL     1       3.430   2.366  19.760  0.00  0.00    +0.000 C 
ATOM      4  C   UNL     1       1.933   2.299  20.124  0.00  0.00    +0.000 C 
ATOM      5  C   UNL     1       1.241   2.310  18.759  0.00  0.00    +0.000 C 
ATOM      6  C   UNL     1       2.420   2.397  17.774  0.00  0.00    +0.000 C 
ATOM      7  C   UNL     1       3.442   1.508  18.492  0.00  0.00    +0.000 C 
ATOM      8  C   UNL     1       3.107   3.809  17.799  0.00  0.00    +0.000 C 
ATOM      9  C   UNL     1       4.051   3.901  16.566  0.00  0.00    +0.000 C 
ATOM     10  C   UNL     1       2.103   4.963  17.607  0.00  0.00    +0.000 C 
ENDROOT
BRANCH   1  12
ATOM     11  C   UNL     1       5.960   5.158  19.281  0.00  0.00    +0.000 C 
ATOM     12  N   UNL     1       5.334   3.864  19.043  0.00  0.00    +0.000 NA
ATOM     13  H   UNL     1       5.799   3.190  19.647  0.00  0.00    +0.000 HD
ENDBRANCH   1  12
TORSDOF 1
ENDMDL
MODEL 5
REMARK VINA RESULT:      -5.7      1.324      2.617
REMARK  Name = 
REMARK  5 active torsions:
REMARK  status: ('A' for Active; 'I' for Inactive)
REMARK    1  A    between atoms: C_1  and  N_2
REMARK    2  A    between atoms: N_2  and  C_3
REMARK    3  A    between atoms: C_3  and  C_4
REMARK    4  A    between atoms: C_10  and  C_11
REMARK    5  A    between atoms: C_10  and  C_12
REMARK                            x       y       z     vdW  Elec       q    Type
REMARK                         _______ _______ _______ _____ _____    ______ ____
ROOT
ATOM      1  C   UNL     1       4.567   4.042  18.344  0.00  0.00    +0.000 C 
ATOM      2  C   UNL     1       4.797   3.879  16.830  0.00  0.00    +0.000 C 
ATOM      3  C   UNL     1       3.649   5.271  18.695  0.00  0.00    +0.000 C 
ATOM      4  C   UNL     1       2.324   5.267  17.906  0.00  0.00    +0.000 C 
ATOM      5  C   UNL     1       1.533   4.130  18.556  0.00  0.00    +0.000 C 
ATOM      6  C   UNL     1       2.503   3.606  19.631  0.00  0.00    +0.000 C 
ATOM      7  C   UNL     1       3.134   4.923  20.095  0.00  0.00    +0.000 C 
ATOM      8  C   UNL     1       3.719   2.837  19.003  0.00  0.00    +0.000 C 
ATOM      9  C   UNL     1       4.448   2.081  20.151  0.00  0.00    +0.000 C 
ATOM     10  C   UNL     1       3.282   1.729  18.024  0.00  0.00    +0.000 C 
ENDROOT
BRANCH   1  12
ATOM     11  C   UNL     1       6.568   5.452  18.893  0.00  0.00    +0.000 C 
ATOM     12  N   UNL     1       5.899   4.162  18.992  0.00  0.00    +0.000 NA
ATOM     13  H   UNL     1       5.827   3.937  19.983  0.00  0.00    +0.000 HD
ENDBRANCH   1  12
TORSDOF 1
ENDMDL
MODEL 6
REMARK VINA RESULT:      -5.6      1.402      2.533
REMARK  Name = 
REMARK  5 active torsions:
REMARK  status: ('A' for Active; 'I' for Inactive)
REMARK    1  A    between atoms: C_1  and  N_2
REMARK    2  A    between atoms: N_2  and  C_3
REMARK    3  A    between atoms: C_3  and  C_4
REMARK    4  A    between atoms: C_10  and  C_11
REMARK    5  A    between atoms: C_10  and  C_12
REMARK                            x       y       z     vdW  Elec       q    Type
REMARK                         _______ _______ _______ _____ _____    ______ ____
ROOT
ATOM      1  C   UNL     1       3.473   3.553  18.836  0.00  0.00    +0.000 C 
ATOM      2  C   UNL     1       4.722   4.274  19.377  0.00  0.00    +0.000 C 
ATOM      3  C   UNL     1       3.067   2.301  19.699  0.00  0.00    +0.000 C 
ATOM      4  C   UNL     1       2.939   2.630  21.200  0.00  0.00    +0.000 C 
ATOM      5  C   UNL     1       1.650   3.451  21.270  0.00  0.00    +0.000 C 
ATOM      6  C   UNL     1       1.198   3.509  19.799  0.00  0.00    +0.000 C 
ATOM      7  C   UNL     1       1.592   2.102  19.336  0.00  0.00    +0.000 C 
ATOM      8  C   UNL     1       2.124   4.434  18.933  0.00  0.00    +0.000 C 
ATOM      9  C   UNL     1       1.411   4.683  17.573  0.00  0.00    +0.000 C 
ATOM     10  C   UNL     1       2.299   5.840  19.543  0.00  0.00    +0.000 C 
ENDROOT
BRANCH   1  12
ATOM     11  C   UNL     1       4.856   3.843  16.762  0.00  0.00    +0.000 C 
ATOM     12  N   UNL     1       3.748   3.169  17.427  0.00  0.00    +0.000 NA
ATOM     13  H   UNL     1       3.925   2.169  17.365  0.00  0.00    +0.000 HD
ENDBRANCH   1  12
TORSDOF 1
ENDMDL
MODEL 7
REMARK VINA RESULT:      -5.6      1.800      3.206
REMARK  Name = 
REMARK  5 active torsions:
REMARK  status: ('A' for Active; 'I' for Inactive)
REMARK    1  A    between atoms: C_1  and  N_2
REMARK    2  A    between atoms: N_2  and  C_3
REMARK    3  A    between atoms: C_3  and  C_4
REMARK    4  A    between atoms: C_10  and  C_11
REMARK    5  A    between atoms: C_10  and  C_12
REMARK                            x       y       z     vdW  Elec       q    Type
REMARK                         _______ _______ _______ _____ _____    ______ ____
ROOT
ATOM      1  C   UNL     1       4.971   4.350  17.747  0.00  0.00    +0.000 C 
ATOM      2  C   UNL     1       5.017   4.201  16.215  0.00  0.00    +0.000 C 
ATOM      3  C   UNL     1       4.579   5.804  18.209  0.00  0.00    +0.000 C 
ATOM      4  C   UNL     1       3.287   6.312  17.539  0.00  0.00    +0.000 C 
ATOM      5  C   UNL     1       2.192   5.493  18.226  0.00  0.00    +0.000 C 
ATOM      6  C   UNL     1       2.985   4.601  19.197  0.00  0.00    +0.000 C 
ATOM      7  C   UNL     1       4.077   5.582  19.639  0.00  0.00    +0.000 C 
ATOM      8  C   UNL     1       3.799   3.488  18.447  0.00  0.00    +0.000 C 
ATOM      9  C   UNL     1       4.291   2.461  19.506  0.00  0.00    +0.000 C 
ATOM     10  C   UNL     1       2.926   2.662  17.481  0.00  0.00    +0.000 C 
ENDROOT
BRANCH   1  12
ATOM     11  C   UNL     1       7.464   4.629  17.717  0.00  0.00    +0.000 C 
ATOM     12  N   UNL     1       6.301   3.957  18.280  0.00  0.00    +0.000 NA
ATOM     13  H   UNL     1       6.331   4.100  19.288  0.00  0.00    +0.000 HD
ENDBRANCH   1  12
TORSDOF 1
ENDMDL
MODEL 8
REMARK VINA RESULT:      -5.5      1.072      2.680
REMARK  Name = 
REMARK  5 active torsions:
REMARK  status: ('A' for Active; 'I' for Inactive)
REMARK    1  A    between atoms: C_1  and  N_2
REMARK    2  A    between atoms: N_2  and  C_3
REMARK    3  A    between atoms: C_3  and  C_4
REMARK    4  A    between atoms: C_10  and  C_11
REMARK    5  A    between atoms: C_10  and  C_12
REMARK                            x       y       z     vdW  Elec       q    Type
REMARK                         _______ _______ _______ _____ _____    ______ ____
ROOT
ATOM      1  C   UNL     1       2.765   4.076  19.780  0.00  0.00    +0.000 C 
ATOM      2  C   UNL     1       2.202   3.640  21.146  0.00  0.00    +0.000 C 
ATOM      3  C   UNL     1       4.226   3.549  19.524  0.00  0.00    +0.000 C 
ATOM      4  C   UNL     1       4.357   2.029  19.745  0.00  0.00    +0.000 C 
ATOM      5  C   UNL     1       3.628   1.437  18.537  0.00  0.00    +0.000 C 
ATOM      6  C   UNL     1       3.152   2.686  17.774  0.00  0.00    +0.000 C 
ATOM      7  C   UNL     1       4.349   3.616  17.999  0.00  0.00    +0.000 C 
ATOM      8  C   UNL     1       1.988   3.428  18.523  0.00  0.00    +0.000 C 
ATOM      9  C   UNL     1       1.369   4.460  17.538  0.00  0.00    +0.000 C 
ATOM     10  C   UNL     1       0.820   2.488  18.886  0.00  0.00    +0.000 C 
ENDROOT
BRANCH   1  12
ATOM     11  C   UNL     1       1.783   6.224  20.629  0.00  0.00    +0.000 C 
ATOM     12  N   UNL     1       2.710   5.560  19.722  0.00  0.00    +0.000 NA
ATOM     13  H   UNL     1       3.633   5.952  19.898  0.00  0.00    +0.000 HD
ENDBRANCH   1  12
TORSDOF 1
ENDMDL
MODEL 9
REMARK VINA RESULT:      -5.5      1.331      2.596
REMARK  Name = 
REMARK  5 active torsions:
REMARK  status: ('A' for Active; 'I' for Inactive)
REMARK    1  A    between atoms: C_1  and  N_2
REMARK    2  A    between atoms: N_2  and  C_3
REMARK    3  A    between atoms: C_3  and  C_4
REMARK    4  A    between atoms: C_10  and  C_11
REMARK    5  A    between atoms: C_10  and  C_12
REMARK                            x       y       z     vdW  Elec       q    Type
REMARK                         _______ _______ _______ _____ _____    ______ ____
ROOT
ATOM      1  C   UNL     1       3.529   2.781  19.656  0.00  0.00    +0.000 C 
ATOM      2  C   UNL     1       2.870   2.751  21.048  0.00  0.00    +0.000 C 
ATOM      3  C   UNL     1       2.633   2.124  18.541  0.00  0.00    +0.000 C 
ATOM      4  C   UNL     1       1.201   2.697  18.515  0.00  0.00    +0.000 C 
ATOM      5  C   UNL     1       1.396   4.098  17.932  0.00  0.00    +0.000 C 
ATOM      6  C   UNL     1       2.917   4.170  17.706  0.00  0.00    +0.000 C 
ATOM      7  C   UNL     1       3.194   2.732  17.252  0.00  0.00    +0.000 C 
ATOM      8  C   UNL     1       3.711   4.269  19.057  0.00  0.00    +0.000 C 
ATOM      9  C   UNL     1       5.178   4.660  18.720  0.00  0.00    +0.000 C 
ATOM     10  C   UNL     1       3.203   5.408  19.963  0.00  0.00    +0.000 C 
ENDROOT
BRANCH   1  12
ATOM     11  C   UNL     1       5.101   1.350  20.989  0.00  0.00    +0.000 C 
ATOM     12  N   UNL     1       4.843   2.095  19.764  0.00  0.00    +0.000 NA
ATOM     13  H   UNL     1       4.964   1.448  18.988  0.00  0.00    +0.000 HD
ENDBRANCH   1  12
TORSDOF 1
ENDMDL
