MODEL 1
REMARK VINA RESULT:      -8.2      0.000      0.000
REMARK  Name = 
REMARK  6 active torsions:
REMARK  status: ('A' for Active; 'I' for Inactive)
REMARK    1  A    between atoms: C_1  and  N_2
REMARK    2  A    between atoms: N_2  and  C_3
REMARK    3  A    between atoms: N_2  and  C_7
REMARK    4  A    between atoms: C_3  and  C_4
REMARK    5  A    between atoms: C_4  and  O_6
REMARK    6  A    between atoms: C_10  and  C_11
REMARK                            x       y       z     vdW  Elec       q    Type
REMARK                         _______ _______ _______ _____ _____    ______ ____
ROOT
ATOM      1  C   UNL     1       0.503   9.848  19.888  0.00  0.00    +0.000 A 
ATOM      2  C   UNL     1       1.090   8.744  20.514  0.00  0.00    +0.000 A 
ATOM      3  C   UNL     1       1.929   7.873  19.812  0.00  0.00    +0.000 A 
ATOM      4  C   UNL     1       2.195   8.077  18.458  0.00  0.00    +0.000 A 
ATOM      5  C   UNL     1       1.638   9.198  17.829  0.00  0.00    +0.000 A 
ATOM      6  C   UNL     1       0.808  10.066  18.538  0.00  0.00    +0.000 A 
ENDROOT
BRANCH   4   7
ATOM      7  C   UNL     1       3.291   7.376  17.807  0.00  0.00    +0.000 C 
ATOM      8  C   UNL     1       3.583   6.075  17.660  0.00  0.00    +0.000 C 
ATOM      9  C   UNL     1       4.962   5.772  17.293  0.00  0.00    +0.000 C 
ATOM     10  C   UNL     1       5.083   4.490  16.946  0.00  0.00    +0.000 C 
ATOM     11  C   UNL     1       3.892   3.826  17.451  0.00  0.00    +0.000 A 
ATOM     12  C   UNL     1       3.742   2.466  17.666  0.00  0.00    +0.000 A 
ATOM     13  C   UNL     1       2.508   2.016  18.119  0.00  0.00    +0.000 A 
ATOM     14  C   UNL     1       1.457   2.930  18.316  0.00  0.00    +0.000 A 
ATOM     15  C   UNL     1       1.647   4.318  18.163  0.00  0.00    +0.000 A 
ATOM     16  C   UNL     1       2.904   4.771  17.806  0.00  0.00    +0.000 A 
ENDBRANCH   4   7
BRANCH   1  18
ATOM     17  C   UNL     1      -1.012  11.768  19.724  0.00  0.00    +0.000 C 
ATOM     18  N   UNL     1      -0.426  10.683  20.521  0.00  0.00    +0.000 N 
BRANCH  18  19
ATOM     19  C   UNL     1       0.008  11.073  21.887  0.00  0.00    +0.000 C 
BRANCH  19  20
ATOM     20  C   UNL     1      -0.955  10.602  22.983  0.00  0.00    +0.000 C 
ATOM     21  O   UNL     1      -1.913  11.267  23.342  0.00  0.00    +0.000 OA
BRANCH  20  22
ATOM     22  O   UNL     1      -0.664   9.387  23.527  0.00  0.00    +0.000 OA
ATOM     23  H   UNL     1       0.289   9.241  23.622  0.00  0.00    +0.000 HD
ENDBRANCH  20  22
ENDBRANCH  19  20
ENDBRANCH  18  19
ENDBRANCH   1  18
TORSDOF 5
ENDMDL
MODEL 2
REMARK VINA RESULT:      -8.2      0.604      1.200
REMARK  Name = 
REMARK  6 active torsions:
REMARK  status: ('A' for Active; 'I' for Inactive)
REMARK    1  A    between atoms: C_1  and  N_2
REMARK    2  A    between atoms: N_2  and  C_3
REMARK    3  A    between atoms: N_2  and  C_7
REMARK    4  A    between atoms: C_3  and  C_4
REMARK    5  A    between atoms: C_4  and  O_6
REMARK    6  A    between atoms: C_10  and  C_11
REMARK                            x       y       z     vdW  Elec       q    Type
REMARK                         _______ _______ _______ _____ _____    ______ ____
ROOT
ATOM      1  C   UNL     1       0.678   9.348  19.672  0.00  0.00    +0.000 A 
ATOM      2  C   UNL     1       1.052   9.643  18.358  0.00  0.00    +0.000 A 
ATOM      3  C   UNL     1       2.057   8.919  17.709  0.00  0.00    +0.000 A 
ATOM      4  C   UNL     1       2.725   7.885  18.364  0.00  0.00    +0.000 A 
ATOM      5  C   UNL     1       2.335   7.559  19.670  0.00  0.00    +0.000 A 
ATOM      6  C   UNL     1       1.326   8.281  20.307  0.00  0.00    +0.000 A 
ENDROOT
BRANCH   4   7
ATOM      7  C   UNL     1       3.536   6.937  17.615  0.00  0.00    +0.000 C 
ATOM      8  C   UNL     1       3.566   5.597  17.569  0.00  0.00    +0.000 C 
ATOM      9  C   UNL     1       4.775   5.008  17.004  0.00  0.00    +0.000 C 
ATOM     10  C   UNL     1       4.603   3.703  16.790  0.00  0.00    +0.000 C 
ATOM     11  C   UNL     1       3.436   3.322  17.568  0.00  0.00    +0.000 A 
ATOM     12  C   UNL     1       3.098   2.037  17.961  0.00  0.00    +0.000 A 
ATOM     13  C   UNL     1       1.916   1.869  18.672  0.00  0.00    +0.000 A 
ATOM     14  C   UNL     1       1.096   2.979  18.944  0.00  0.00    +0.000 A 
ATOM     15  C   UNL     1       1.491   4.289  18.601  0.00  0.00    +0.000 A 
ATOM     16  C   UNL     1       2.713   4.463  17.981  0.00  0.00    +0.000 A 
ENDBRANCH   4   7
BRANCH   1  18
ATOM     17  C   UNL     1      -1.077  11.059  19.640  0.00  0.00    +0.000 C 
ATOM     18  N   UNL     1      -0.246  10.113  20.395  0.00  0.00    +0.000 N 
BRANCH  18  19
ATOM     19  C   UNL     1       0.332  10.653  21.652  0.00  0.00    +0.000 C 
BRANCH  19  20
ATOM     20  C   UNL     1      -0.600  10.496  22.859  0.00  0.00    +0.000 C 
ATOM     21  O   UNL     1      -1.170  11.445  23.374  0.00  0.00    +0.000 OA
BRANCH  20  22
ATOM     22  O   UNL     1      -0.746   9.220  23.318  0.00  0.00    +0.000 OA
ATOM     23  H   UNL     1      -0.340   8.566  22.729  0.00  0.00    +0.000 HD
ENDBRANCH  20  22
ENDBRANCH  19  20
ENDBRANCH  18  19
ENDBRANCH   1  18
TORSDOF 5
ENDMDL
MODEL 3
REMARK VINA RESULT:      -7.8      1.812      2.241
REMARK  Name = 
REMARK  6 active torsions:
REMARK  status: ('A' for Active; 'I' for Inactive)
REMARK    1  A    between atoms: C_1  and  N_2
REMARK    2  A    between atoms: N_2  and  C_3
REMARK    3  A    between atoms: N_2  and  C_7
REMARK    4  A    between atoms: C_3  and  C_4
REMARK    5  A    between atoms: C_4  and  O_6
REMARK    6  A    between atoms: C_10  and  C_11
REMARK                            x       y       z     vdW  Elec       q    Type
REMARK                         _______ _______ _______ _____ _____    ______ ____
ROOT
ATOM      1  C   UNL     1       0.908   9.949  19.584  0.00  0.00    +0.000 A 
ATOM      2  C   UNL     1       1.263   8.771  20.249  0.00  0.00    +0.000 A 
ATOM      3  C   UNL     1       2.019   7.780  19.618  0.00  0.00    +0.000 A 
ATOM      4  C   UNL     1       2.432   7.934  18.295  0.00  0.00    +0.000 A 
ATOM      5  C   UNL     1       2.111   9.124  17.629  0.00  0.00    +0.000 A 
ATOM      6  C   UNL     1       1.363  10.112  18.268  0.00  0.00    +0.000 A 
ENDROOT
BRANCH   4   7
ATOM      7  C   UNL     1       3.463   7.072  17.737  0.00  0.00    +0.000 C 
ATOM      8  C   UNL     1       3.620   5.740  17.705  0.00  0.00    +0.000 C 
ATOM      9  C   UNL     1       4.968   5.267  17.408  0.00  0.00    +0.000 C 
ATOM     10  C   UNL     1       4.960   3.955  17.169  0.00  0.00    +0.000 C 
ATOM     11  C   UNL     1       3.696   3.463  17.688  0.00  0.00    +0.000 A 
ATOM     12  C   UNL     1       3.398   2.148  18.008  0.00  0.00    +0.000 A 
ATOM     13  C   UNL     1       2.113   1.867  18.457  0.00  0.00    +0.000 A 
ATOM     14  C   UNL     1       1.160   2.898  18.546  0.00  0.00    +0.000 A 
ATOM     15  C   UNL     1       1.499   4.241  18.287  0.00  0.00    +0.000 A 
ATOM     16  C   UNL     1       2.804   4.530  17.935  0.00  0.00    +0.000 A 
ENDBRANCH   4   7
BRANCH   1  18
ATOM     17  C   UNL     1       0.004  11.001  21.605  0.00  0.00    +0.000 C 
ATOM     18  N   UNL     1       0.064  10.918  20.140  0.00  0.00    +0.000 N 
BRANCH  18  19
ATOM     19  C   UNL     1      -1.252  10.978  19.455  0.00  0.00    +0.000 C 
BRANCH  19  20
ATOM     20  C   UNL     1      -1.420  12.227  18.581  0.00  0.00    +0.000 C 
ATOM     21  O   UNL     1      -0.699  13.205  18.693  0.00  0.00    +0.000 OA
BRANCH  20  22
ATOM     22  O   UNL     1      -2.433  12.165  17.670  0.00  0.00    +0.000 OA
ATOM     23  H   UNL     1      -3.307  12.157  18.087  0.00  0.00    +0.000 HD
ENDBRANCH  20  22
ENDBRANCH  19  20
ENDBRANCH  18  19
ENDBRANCH   1  18
TORSDOF 5
ENDMDL
MODEL 4
REMARK VINA RESULT:      -7.7      1.736      2.470
REMARK  Name = 
REMARK  6 active torsions:
REMARK  status: ('A' for Active; 'I' for Inactive)
REMARK    1  A    between atoms: C_1  and  N_2
REMARK    2  A    between atoms: N_2  and  C_3
REMARK    3  A    between atoms: N_2  and  C_7
REMARK    4  A    between atoms: C_3  and  C_4
REMARK    5  A    between atoms: C_4  and  O_6
REMARK    6  A    between atoms: C_10  and  C_11
REMARK                            x       y       z     vdW  Elec       q    Type
REMARK                         _______ _______ _______ _____ _____    ______ ____
ROOT
ATOM      1  C   UNL     1       0.799   9.554  19.449  0.00  0.00    +0.000 A 
ATOM      2  C   UNL     1       1.252   9.755  18.142  0.00  0.00    +0.000 A 
ATOM      3  C   UNL     1       2.213   8.917  17.569  0.00  0.00    +0.000 A 
ATOM      4  C   UNL     1       2.758   7.859  18.296  0.00  0.00    +0.000 A 
ATOM      5  C   UNL     1       2.288   7.628  19.595  0.00  0.00    +0.000 A 
ATOM      6  C   UNL     1       1.323   8.464  20.157  0.00  0.00    +0.000 A 
ENDROOT
BRANCH   4   7
ATOM      7  C   UNL     1       3.511   6.811  17.623  0.00  0.00    +0.000 C 
ATOM      8  C   UNL     1       3.484   5.473  17.703  0.00  0.00    +0.000 C 
ATOM      9  C   UNL     1       4.654   4.781  17.172  0.00  0.00    +0.000 C 
ATOM     10  C   UNL     1       4.422   3.471  17.086  0.00  0.00    +0.000 C 
ATOM     11  C   UNL     1       3.260   3.215  17.921  0.00  0.00    +0.000 A 
ATOM     12  C   UNL     1       2.879   1.989  18.440  0.00  0.00    +0.000 A 
ATOM     13  C   UNL     1       1.709   1.939  19.187  0.00  0.00    +0.000 A 
ATOM     14  C   UNL     1       0.943   3.105  19.370  0.00  0.00    +0.000 A 
ATOM     15  C   UNL     1       1.382   4.358  18.897  0.00  0.00    +0.000 A 
ATOM     16  C   UNL     1       2.595   4.420  18.238  0.00  0.00    +0.000 A 
ENDBRANCH   4   7
BRANCH   1  18
ATOM     17  C   UNL     1      -0.407  10.141  21.501  0.00  0.00    +0.000 C 
ATOM     18  N   UNL     1      -0.081  10.430  20.098  0.00  0.00    +0.000 N 
BRANCH  18  19
ATOM     19  C   UNL     1      -1.242  10.794  19.247  0.00  0.00    +0.000 C 
BRANCH  19  20
ATOM     20  C   UNL     1      -1.260  12.276  18.856  0.00  0.00    +0.000 C 
ATOM     21  O   UNL     1      -1.219  13.172  19.684  0.00  0.00    +0.000 OA
BRANCH  20  22
ATOM     22  O   UNL     1      -1.326  12.522  17.517  0.00  0.00    +0.000 OA
ATOM     23  H   UNL     1      -2.141  12.183  17.117  0.00  0.00    +0.000 HD
ENDBRANCH  20  22
ENDBRANCH  19  20
ENDBRANCH  18  19
ENDBRANCH   1  18
TORSDOF 5
ENDMDL
MODEL 5
REMARK VINA RESULT:      -7.7      2.308      3.451
REMARK  Name = 
REMARK  6 active torsions:
REMARK  status: ('A' for Active; 'I' for Inactive)
REMARK    1  A    between atoms: C_1  and  N_2
REMARK    2  A    between atoms: N_2  and  C_3
REMARK    3  A    between atoms: N_2  and  C_7
REMARK    4  A    between atoms: C_3  and  C_4
REMARK    5  A    between atoms: C_4  and  O_6
REMARK    6  A    between atoms: C_10  and  C_11
REMARK                            x       y       z     vdW  Elec       q    Type
REMARK                         _______ _______ _______ _____ _____    ______ ____
ROOT
ATOM      1  C   UNL     1       0.785   9.970  19.292  0.00  0.00    +0.000 A 
ATOM      2  C   UNL     1       1.397   9.407  18.167  0.00  0.00    +0.000 A 
ATOM      3  C   UNL     1       2.068   8.183  18.241  0.00  0.00    +0.000 A 
ATOM      4  C   UNL     1       2.156   7.492  19.449  0.00  0.00    +0.000 A 
ATOM      5  C   UNL     1       1.519   8.029  20.575  0.00  0.00    +0.000 A 
ATOM      6  C   UNL     1       0.844   9.247  20.492  0.00  0.00    +0.000 A 
ENDROOT
BRANCH   4   7
ATOM      7  C   UNL     1       2.571   6.098  19.474  0.00  0.00    +0.000 C 
ATOM      8  C   UNL     1       3.280   5.341  18.624  0.00  0.00    +0.000 C 
ATOM      9  C   UNL     1       3.152   3.899  18.799  0.00  0.00    +0.000 C 
ATOM     10  C   UNL     1       4.066   3.256  18.071  0.00  0.00    +0.000 C 
ATOM     11  C   UNL     1       4.554   4.222  17.100  0.00  0.00    +0.000 A 
ATOM     12  C   UNL     1       5.214   3.932  15.917  0.00  0.00    +0.000 A 
ATOM     13  C   UNL     1       5.638   5.000  15.136  0.00  0.00    +0.000 A 
ATOM     14  C   UNL     1       5.417   6.319  15.571  0.00  0.00    +0.000 A 
ATOM     15  C   UNL     1       4.680   6.597  16.740  0.00  0.00    +0.000 A 
ATOM     16  C   UNL     1       4.175   5.534  17.464  0.00  0.00    +0.000 A 
ENDBRANCH   4   7
BRANCH   1  18
ATOM     17  C   UNL     1       0.745  12.241  20.211  0.00  0.00    +0.000 C 
ATOM     18  N   UNL     1       0.195  11.240  19.289  0.00  0.00    +0.000 N 
BRANCH  18  19
ATOM     19  C   UNL     1      -1.287  11.172  19.249  0.00  0.00    +0.000 C 
BRANCH  19  20
ATOM     20  C   UNL     1      -1.852  11.150  17.824  0.00  0.00    +0.000 C 
ATOM     21  O   UNL     1      -2.496  10.209  17.389  0.00  0.00    +0.000 OA
BRANCH  20  22
ATOM     22  O   UNL     1      -1.582  12.258  17.076  0.00  0.00    +0.000 OA
ATOM     23  H   UNL     1      -0.926  12.837  17.494  0.00  0.00    +0.000 HD
ENDBRANCH  20  22
ENDBRANCH  19  20
ENDBRANCH  18  19
ENDBRANCH   1  18
TORSDOF 5
ENDMDL
MODEL 6
REMARK VINA RESULT:      -7.7      4.327      7.952
REMARK  Name = 
REMARK  6 active torsions:
REMARK  status: ('A' for Active; 'I' for Inactive)
REMARK    1  A    between atoms: C_1  and  N_2
REMARK    2  A    between atoms: N_2  and  C_3
REMARK    3  A    between atoms: N_2  and  C_7
REMARK    4  A    between atoms: C_3  and  C_4
REMARK    5  A    between atoms: C_4  and  O_6
REMARK    6  A    between atoms: C_10  and  C_11
REMARK                            x       y       z     vdW  Elec       q    Type
REMARK                         _______ _______ _______ _____ _____    ______ ____
ROOT
ATOM      1  C   UNL     1       4.040   5.652  17.908  0.00  0.00    +0.000 A 
ATOM      2  C   UNL     1       3.006   5.729  18.846  0.00  0.00    +0.000 A 
ATOM      3  C   UNL     1       2.263   6.901  19.013  0.00  0.00    +0.000 A 
ATOM      4  C   UNL     1       2.544   8.036  18.253  0.00  0.00    +0.000 A 
ATOM      5  C   UNL     1       3.556   7.961  17.287  0.00  0.00    +0.000 A 
ATOM      6  C   UNL     1       4.288   6.785  17.121  0.00  0.00    +0.000 A 
ENDROOT
BRANCH   4   7
ATOM      7  C   UNL     1       1.598   9.140  18.195  0.00  0.00    +0.000 C 
ATOM      8  C   UNL     1       0.796   9.704  19.110  0.00  0.00    +0.000 C 
ATOM      9  C   UNL     1      -0.291  10.522  18.584  0.00  0.00    +0.000 C 
ATOM     10  C   UNL     1      -0.871  11.215  19.565  0.00  0.00    +0.000 C 
ATOM     11  C   UNL     1      -0.453  10.580  20.803  0.00  0.00    +0.000 A 
ATOM     12  C   UNL     1      -1.077  10.697  22.035  0.00  0.00    +0.000 A 
ATOM     13  C   UNL     1      -0.501  10.041  23.115  0.00  0.00    +0.000 A 
ATOM     14  C   UNL     1       0.690   9.312  22.941  0.00  0.00    +0.000 A 
ATOM     15  C   UNL     1       1.271   9.142  21.668  0.00  0.00    +0.000 A 
ATOM     16  C   UNL     1       0.642   9.716  20.580  0.00  0.00    +0.000 A 
ENDBRANCH   4   7
BRANCH   1  18
ATOM     17  C   UNL     1       4.291   3.218  18.050  0.00  0.00    +0.000 C 
ATOM     18  N   UNL     1       4.878   4.537  17.781  0.00  0.00    +0.000 N 
BRANCH  18  19
ATOM     19  C   UNL     1       6.213   4.764  18.389  0.00  0.00    +0.000 C 
BRANCH  19  20
ATOM     20  C   UNL     1       7.360   4.671  17.375  0.00  0.00    +0.000 C 
ATOM     21  O   UNL     1       7.305   5.196  16.275  0.00  0.00    +0.000 OA
BRANCH  20  22
ATOM     22  O   UNL     1       8.446   3.961  17.792  0.00  0.00    +0.000 OA
ATOM     23  H   UNL     1       9.256   4.210  17.322  0.00  0.00    +0.000 HD
ENDBRANCH  20  22
ENDBRANCH  19  20
ENDBRANCH  18  19
ENDBRANCH   1  18
TORSDOF 5
ENDMDL
MODEL 7
REMARK VINA RESULT:      -7.7      3.975      7.657
REMARK  Name = 
REMARK  6 active torsions:
REMARK  status: ('A' for Active; 'I' for Inactive)
REMARK    1  A    between atoms: C_1  and  N_2
REMARK    2  A    between atoms: N_2  and  C_3
REMARK    3  A    between atoms: N_2  and  C_7
REMARK    4  A    between atoms: C_3  and  C_4
REMARK    5  A    between atoms: C_4  and  O_6
REMARK    6  A    between atoms: C_10  and  C_11
REMARK                            x       y       z     vdW  Elec       q    Type
REMARK                         _______ _______ _______ _____ _____    ______ ____
ROOT
ATOM      1  C   UNL     1       2.310   4.476  19.249  0.00  0.00    +0.000 A 
ATOM      2  C   UNL     1       1.988   5.285  20.343  0.00  0.00    +0.000 A 
ATOM      3  C   UNL     1       1.943   6.677  20.229  0.00  0.00    +0.000 A 
ATOM      4  C   UNL     1       2.233   7.301  19.015  0.00  0.00    +0.000 A 
ATOM      5  C   UNL     1       2.525   6.499  17.904  0.00  0.00    +0.000 A 
ATOM      6  C   UNL     1       2.559   5.110  18.025  0.00  0.00    +0.000 A 
ENDROOT
BRANCH   4   7
ATOM      7  C   UNL     1       1.892   8.700  18.804  0.00  0.00    +0.000 C 
ATOM      8  C   UNL     1       1.188   9.587  19.523  0.00  0.00    +0.000 C 
ATOM      9  C   UNL     1       0.731  10.769  18.801  0.00  0.00    +0.000 C 
ATOM     10  C   UNL     1       0.257  11.681  19.651  0.00  0.00    +0.000 C 
ATOM     11  C   UNL     1       0.020  10.977  20.900  0.00  0.00    +0.000 A 
ATOM     12  C   UNL     1      -0.802  11.397  21.934  0.00  0.00    +0.000 A 
ATOM     13  C   UNL     1      -0.869  10.599  23.070  0.00  0.00    +0.000 A 
ATOM     14  C   UNL     1      -0.096   9.427  23.151  0.00  0.00    +0.000 A 
ATOM     15  C   UNL     1       0.677   8.976  22.063  0.00  0.00    +0.000 A 
ATOM     16  C   UNL     1       0.666   9.720  20.898  0.00  0.00    +0.000 A 
ENDBRANCH   4   7
BRANCH   1  18
ATOM     17  C   UNL     1       1.323   2.249  18.977  0.00  0.00    +0.000 C 
ATOM     18  N   UNL     1       2.471   3.088  19.344  0.00  0.00    +0.000 N 
BRANCH  18  19
ATOM     19  C   UNL     1       3.166   2.686  20.593  0.00  0.00    +0.000 C 
BRANCH  19  20
ATOM     20  C   UNL     1       4.619   2.254  20.361  0.00  0.00    +0.000 C 
ATOM     21  O   UNL     1       5.233   1.567  21.162  0.00  0.00    +0.000 OA
BRANCH  20  22
ATOM     22  O   UNL     1       5.175   2.691  19.196  0.00  0.00    +0.000 OA
ATOM     23  H   UNL     1       6.127   2.854  19.277  0.00  0.00    +0.000 HD
ENDBRANCH  20  22
ENDBRANCH  19  20
ENDBRANCH  18  19
ENDBRANCH   1  18
TORSDOF 5
ENDMDL
MODEL 8
REMARK VINA RESULT:      -7.6      2.277      2.645
REMARK  Name = 
REMARK  6 active torsions:
REMARK  status: ('A' for Active; 'I' for Inactive)
REMARK    1  A    between atoms: C_1  and  N_2
REMARK    2  A    between atoms: N_2  and  C_3
REMARK    3  A    between atoms: N_2  and  C_7
REMARK    4  A    between atoms: C_3  and  C_4
REMARK    5  A    between atoms: C_4  and  O_6
REMARK    6  A    between atoms: C_10  and  C_11
REMARK                            x       y       z     vdW  Elec       q    Type
REMARK                         _______ _______ _______ _____ _____    ______ ____
ROOT
ATOM      1  C   UNL     1       0.417   9.906  19.231  0.00  0.00    +0.000 A 
ATOM      2  C   UNL     1       0.846   9.108  20.296  0.00  0.00    +0.000 A 
ATOM      3  C   UNL     1       1.771   8.077  20.104  0.00  0.00    +0.000 A 
ATOM      4  C   UNL     1       2.285   7.809  18.836  0.00  0.00    +0.000 A 
ATOM      5  C   UNL     1       1.887   8.623  17.767  0.00  0.00    +0.000 A 
ATOM      6  C   UNL     1       0.970   9.654  17.968  0.00  0.00    +0.000 A 
ENDROOT
BRANCH   4   7
ATOM      7  C   UNL     1       3.459   6.964  18.677  0.00  0.00    +0.000 C 
ATOM      8  C   UNL     1       3.636   5.634  18.698  0.00  0.00    +0.000 C 
ATOM      9  C   UNL     1       5.008   5.180  18.898  0.00  0.00    +0.000 C 
ATOM     10  C   UNL     1       5.105   3.871  18.667  0.00  0.00    +0.000 C 
ATOM     11  C   UNL     1       3.745   3.358  18.701  0.00  0.00    +0.000 A 
ATOM     12  C   UNL     1       3.372   2.037  18.888  0.00  0.00    +0.000 A 
ATOM     13  C   UNL     1       2.016   1.737  18.849  0.00  0.00    +0.000 A 
ATOM     14  C   UNL     1       1.078   2.755  18.597  0.00  0.00    +0.000 A 
ATOM     15  C   UNL     1       1.468   4.105  18.481  0.00  0.00    +0.000 A 
ATOM     16  C   UNL     1       2.809   4.413  18.618  0.00  0.00    +0.000 A 
ENDBRANCH   4   7
BRANCH   1  18
ATOM     17  C   UNL     1      -0.810  11.446  20.691  0.00  0.00    +0.000 C 
ATOM     18  N   UNL     1      -0.585  10.876  19.356  0.00  0.00    +0.000 N 
BRANCH  18  19
ATOM     19  C   UNL     1      -1.819  10.509  18.616  0.00  0.00    +0.000 C 
BRANCH  19  20
ATOM     20  C   UNL     1      -2.274  11.591  17.629  0.00  0.00    +0.000 C 
ATOM     21  O   UNL     1      -3.400  11.617  17.160  0.00  0.00    +0.000 OA
BRANCH  20  22
ATOM     22  O   UNL     1      -1.328  12.521  17.313  0.00  0.00    +0.000 OA
ATOM     23  H   UNL     1      -1.198  12.607  16.357  0.00  0.00    +0.000 HD
ENDBRANCH  20  22
ENDBRANCH  19  20
ENDBRANCH  18  19
ENDBRANCH   1  18
TORSDOF 5
ENDMDL
MODEL 9
REMARK VINA RESULT:      -7.5      3.659      7.738
REMARK  Name = 
REMARK  6 active torsions:
REMARK  status: ('A' for Active; 'I' for Inactive)
REMARK    1  A    between atoms: C_1  and  N_2
REMARK    2  A    between atoms: N_2  and  C_3
REMARK    3  A    between atoms: N_2  and  C_7
REMARK    4  A    between atoms: C_3  and  C_4
REMARK    5  A    between atoms: C_4  and  O_6
REMARK    6  A    between atoms: C_10  and  C_11
REMARK                            x       y       z     vdW  Elec       q    Type
REMARK                         _______ _______ _______ _____ _____    ______ ____
ROOT
ATOM      1  C   UNL     1       3.793   5.456  18.601  0.00  0.00    +0.000 A 
ATOM      2  C   UNL     1       2.885   5.793  19.609  0.00  0.00    +0.000 A 
ATOM      3  C   UNL     1       2.226   7.026  19.611  0.00  0.00    +0.000 A 
ATOM      4  C   UNL     1       2.468   7.963  18.607  0.00  0.00    +0.000 A 
ATOM      5  C   UNL     1       3.351   7.624  17.574  0.00  0.00    +0.000 A 
ATOM      6  C   UNL     1       3.999   6.388  17.575  0.00  0.00    +0.000 A 
ENDROOT
BRANCH   4   7
ATOM      7  C   UNL     1       1.576   9.099  18.426  0.00  0.00    +0.000 C 
ATOM      8  C   UNL     1       0.739   9.743  19.253  0.00  0.00    +0.000 C 
ATOM      9  C   UNL     1      -0.273  10.574  18.610  0.00  0.00    +0.000 C 
ATOM     10  C   UNL     1      -0.887  11.342  19.511  0.00  0.00    +0.000 C 
ATOM     11  C   UNL     1      -0.582  10.759  20.807  0.00  0.00    +0.000 A 
ATOM     12  C   UNL     1      -1.282  10.968  21.984  0.00  0.00    +0.000 A 
ATOM     13  C   UNL     1      -0.811  10.349  23.134  0.00  0.00    +0.000 A 
ATOM     14  C   UNL     1       0.357   9.566  23.082  0.00  0.00    +0.000 A 
ATOM     15  C   UNL     1       1.015   9.303  21.864  0.00  0.00    +0.000 A 
ATOM     16  C   UNL     1       0.487   9.842  20.705  0.00  0.00    +0.000 A 
ENDBRANCH   4   7
BRANCH   1  18
ATOM     17  C   UNL     1       6.004   4.412  18.428  0.00  0.00    +0.000 C 
ATOM     18  N   UNL     1       4.554   4.280  18.616  0.00  0.00    +0.000 N 
BRANCH  18  19
ATOM     19  C   UNL     1       3.917   3.189  17.836  0.00  0.00    +0.000 C 
BRANCH  19  20
ATOM     20  C   UNL     1       3.491   1.998  18.703  0.00  0.00    +0.000 C 
ATOM     21  O   UNL     1       2.779   2.126  19.686  0.00  0.00    +0.000 OA
BRANCH  20  22
ATOM     22  O   UNL     1       3.966   0.786  18.297  0.00  0.00    +0.000 OA
ATOM     23  H   UNL     1       4.534   0.853  17.515  0.00  0.00    +0.000 HD
ENDBRANCH  20  22
ENDBRANCH  19  20
ENDBRANCH  18  19
ENDBRANCH   1  18
TORSDOF 5
ENDMDL
