MODEL 1
REMARK VINA RESULT:      -6.2      0.000      0.000
REMARK  Name = 
REMARK  2 active torsions:
REMARK  status: ('A' for Active; 'I' for Inactive)
REMARK    1  A    between atoms: C_2  and  N_3
REMARK    2  A    between atoms: C_6  and  C_7
REMARK                            x       y       z     vdW  Elec       q    Type
REMARK                         _______ _______ _______ _____ _____    ______ ____
ROOT
ATOM      1  N   UNL     1       2.251   3.182  19.582  0.00  0.00    +0.000 N 
ATOM      2  C   UNL     1       3.552   2.987  19.897  0.00  0.00    +0.000 A 
ATOM      3  C   UNL     1       4.576   3.405  19.048  0.00  0.00    +0.000 A 
ATOM      4  C   UNL     1       4.295   4.023  17.827  0.00  0.00    +0.000 A 
ATOM      5  C   UNL     1       2.942   4.145  17.493  0.00  0.00    +0.000 A 
ATOM      6  C   UNL     1       1.944   3.728  18.376  0.00  0.00    +0.000 A 
ENDROOT
BRANCH   4   7
ATOM      7  C   UNL     1       5.374   4.547  16.954  0.00  0.00    +0.000 A 
ATOM      8  C   UNL     1       5.666   3.969  15.708  0.00  0.00    +0.000 A 
ATOM      9  C   UNL     1       6.714   4.468  14.949  0.00  0.00    +0.000 A 
ATOM     10  N   UNL     1       7.484   5.503  15.327  0.00  0.00    +0.000 NA
ATOM     11  C   UNL     1       7.201   6.063  16.516  0.00  0.00    +0.000 A 
ATOM     12  C   UNL     1       6.181   5.625  17.349  0.00  0.00    +0.000 A 
ENDBRANCH   4   7
BRANCH   1  14
ATOM     13  C   UNL     1       1.314   2.648  21.769  0.00  0.00    +0.000 C 
ATOM     14  C   UNL     1       1.191   2.880  20.458  0.00  0.00    +0.000 C 
ENDBRANCH   1  14
TORSDOF 2
ENDMDL
MODEL 2
REMARK VINA RESULT:      -6.1      0.161      1.260
REMARK  Name = 
REMARK  2 active torsions:
REMARK  status: ('A' for Active; 'I' for Inactive)
REMARK    1  A    between atoms: C_2  and  N_3
REMARK    2  A    between atoms: C_6  and  C_7
REMARK                            x       y       z     vdW  Elec       q    Type
REMARK                         _______ _______ _______ _____ _____    ______ ____
ROOT
ATOM      1  N   UNL     1       2.236   3.177  19.574  0.00  0.00    +0.000 N 
ATOM      2  C   UNL     1       3.514   2.789  19.793  0.00  0.00    +0.000 A 
ATOM      3  C   UNL     1       4.555   3.221  18.973  0.00  0.00    +0.000 A 
ATOM      4  C   UNL     1       4.314   4.055  17.878  0.00  0.00    +0.000 A 
ATOM      5  C   UNL     1       2.976   4.380  17.631  0.00  0.00    +0.000 A 
ATOM      6  C   UNL     1       1.962   3.941  18.484  0.00  0.00    +0.000 A 
ENDROOT
BRANCH   4   7
ATOM      7  C   UNL     1       5.422   4.588  17.048  0.00  0.00    +0.000 A 
ATOM      8  C   UNL     1       6.176   5.703  17.446  0.00  0.00    +0.000 A 
ATOM      9  C   UNL     1       7.173   6.191  16.614  0.00  0.00    +0.000 A 
ATOM     10  N   UNL     1       7.485   5.647  15.425  0.00  0.00    +0.000 NA
ATOM     11  C   UNL     1       6.770   4.574  15.045  0.00  0.00    +0.000 A 
ATOM     12  C   UNL     1       5.747   4.024  15.804  0.00  0.00    +0.000 A 
ENDBRANCH   4   7
BRANCH   1  14
ATOM     13  C   UNL     1       1.272   2.718  21.767  0.00  0.00    +0.000 C 
ATOM     14  C   UNL     1       1.173   2.858  20.440  0.00  0.00    +0.000 C 
ENDBRANCH   1  14
TORSDOF 2
ENDMDL
MODEL 3
REMARK VINA RESULT:      -6.1      0.640      1.713
REMARK  Name = 
REMARK  2 active torsions:
REMARK  status: ('A' for Active; 'I' for Inactive)
REMARK    1  A    between atoms: C_2  and  N_3
REMARK    2  A    between atoms: C_6  and  C_7
REMARK                            x       y       z     vdW  Elec       q    Type
REMARK                         _______ _______ _______ _____ _____    ______ ____
ROOT
ATOM      1  N   UNL     1       2.030   3.507  19.480  0.00  0.00    +0.000 N 
ATOM      2  C   UNL     1       2.031   3.163  18.171  0.00  0.00    +0.000 A 
ATOM      3  C   UNL     1       3.056   3.564  17.316  0.00  0.00    +0.000 A 
ATOM      4  C   UNL     1       4.112   4.358  17.774  0.00  0.00    +0.000 A 
ATOM      5  C   UNL     1       4.046   4.759  19.113  0.00  0.00    +0.000 A 
ATOM      6  C   UNL     1       3.012   4.324  19.943  0.00  0.00    +0.000 A 
ENDROOT
BRANCH   4   7
ATOM      7  C   UNL     1       5.250   4.721  16.895  0.00  0.00    +0.000 A 
ATOM      8  C   UNL     1       6.253   5.610  17.311  0.00  0.00    +0.000 A 
ATOM      9  C   UNL     1       7.273   5.953  16.435  0.00  0.00    +0.000 A 
ATOM     10  N   UNL     1       7.378   5.470  15.185  0.00  0.00    +0.000 NA
ATOM     11  C   UNL     1       6.422   4.612  14.787  0.00  0.00    +0.000 A 
ATOM     12  C   UNL     1       5.358   4.221  15.588  0.00  0.00    +0.000 A 
ENDBRANCH   4   7
BRANCH   1  14
ATOM     13  C   UNL     1       1.337   2.678  21.666  0.00  0.00    +0.000 C 
ATOM     14  C   UNL     1       1.079   3.031  20.402  0.00  0.00    +0.000 C 
ENDBRANCH   1  14
TORSDOF 2
ENDMDL
MODEL 4
REMARK VINA RESULT:      -6.1      0.581      1.233
REMARK  Name = 
REMARK  2 active torsions:
REMARK  status: ('A' for Active; 'I' for Inactive)
REMARK    1  A    between atoms: C_2  and  N_3
REMARK    2  A    between atoms: C_6  and  C_7
REMARK                            x       y       z     vdW  Elec       q    Type
REMARK                         _______ _______ _______ _____ _____    ______ ____
ROOT
ATOM      1  N   UNL     1       1.997   3.613  19.557  0.00  0.00    +0.000 N 
ATOM      2  C   UNL     1       1.909   3.429  18.220  0.00  0.00    +0.000 A 
ATOM      3  C   UNL     1       2.940   3.817  17.364  0.00  0.00    +0.000 A 
ATOM      4  C   UNL     1       4.095   4.432  17.855  0.00  0.00    +0.000 A 
ATOM      5  C   UNL     1       4.126   4.677  19.232  0.00  0.00    +0.000 A 
ATOM      6  C   UNL     1       3.082   4.260  20.059  0.00  0.00    +0.000 A 
ENDROOT
BRANCH   4   7
ATOM      7  C   UNL     1       5.232   4.773  16.966  0.00  0.00    +0.000 A 
ATOM      8  C   UNL     1       5.493   4.056  15.788  0.00  0.00    +0.000 A 
ATOM      9  C   UNL     1       6.596   4.386  15.013  0.00  0.00    +0.000 A 
ATOM     10  N   UNL     1       7.448   5.381  15.313  0.00  0.00    +0.000 NA
ATOM     11  C   UNL     1       7.194   6.075  16.437  0.00  0.00    +0.000 A 
ATOM     12  C   UNL     1       6.125   5.810  17.280  0.00  0.00    +0.000 A 
ENDBRANCH   4   7
BRANCH   1  14
ATOM     13  C   UNL     1       1.294   2.673  21.695  0.00  0.00    +0.000 C 
ATOM     14  C   UNL     1       1.034   3.136  20.467  0.00  0.00    +0.000 C 
ENDBRANCH   1  14
TORSDOF 2
ENDMDL
MODEL 5
REMARK VINA RESULT:      -6.0      2.009      6.042
REMARK  Name = 
REMARK  2 active torsions:
REMARK  status: ('A' for Active; 'I' for Inactive)
REMARK    1  A    between atoms: C_2  and  N_3
REMARK    2  A    between atoms: C_6  and  C_7
REMARK                            x       y       z     vdW  Elec       q    Type
REMARK                         _______ _______ _______ _____ _____    ______ ____
ROOT
ATOM      1  N   UNL     1       6.497   6.505  17.792  0.00  0.00    +0.000 N 
ATOM      2  C   UNL     1       5.322   6.783  17.180  0.00  0.00    +0.000 A 
ATOM      3  C   UNL     1       4.156   6.088  17.499  0.00  0.00    +0.000 A 
ATOM      4  C   UNL     1       4.161   5.062  18.448  0.00  0.00    +0.000 A 
ATOM      5  C   UNL     1       5.404   4.748  19.010  0.00  0.00    +0.000 A 
ATOM      6  C   UNL     1       6.547   5.476  18.678  0.00  0.00    +0.000 A 
ENDROOT
BRANCH   4   7
ATOM      7  C   UNL     1       2.913   4.373  18.856  0.00  0.00    +0.000 A 
ATOM      8  C   UNL     1       2.198   4.751  20.003  0.00  0.00    +0.000 A 
ATOM      9  C   UNL     1       1.060   4.046  20.366  0.00  0.00    +0.000 A 
ATOM     10  N   UNL     1       0.572   3.005  19.669  0.00  0.00    +0.000 NA
ATOM     11  C   UNL     1       1.251   2.647  18.565  0.00  0.00    +0.000 A 
ATOM     12  C   UNL     1       2.405   3.283  18.131  0.00  0.00    +0.000 A 
ENDBRANCH   4   7
BRANCH   1  14
ATOM     13  C   UNL     1       7.772   8.583  17.707  0.00  0.00    +0.000 C 
ATOM     14  C   UNL     1       7.671   7.255  17.585  0.00  0.00    +0.000 C 
ENDBRANCH   1  14
TORSDOF 2
ENDMDL
MODEL 6
REMARK VINA RESULT:      -6.0      1.984      5.932
REMARK  Name = 
REMARK  2 active torsions:
REMARK  status: ('A' for Active; 'I' for Inactive)
REMARK    1  A    between atoms: C_2  and  N_3
REMARK    2  A    between atoms: C_6  and  C_7
REMARK                            x       y       z     vdW  Elec       q    Type
REMARK                         _______ _______ _______ _____ _____    ______ ____
ROOT
ATOM      1  N   UNL     1       6.512   6.458  17.854  0.00  0.00    +0.000 N 
ATOM      2  C   UNL     1       5.331   6.714  17.246  0.00  0.00    +0.000 A 
ATOM      3  C   UNL     1       4.172   6.018  17.587  0.00  0.00    +0.000 A 
ATOM      4  C   UNL     1       4.193   5.010  18.556  0.00  0.00    +0.000 A 
ATOM      5  C   UNL     1       5.442   4.716  19.114  0.00  0.00    +0.000 A 
ATOM      6  C   UNL     1       6.577   5.446  18.758  0.00  0.00    +0.000 A 
ENDROOT
BRANCH   4   7
ATOM      7  C   UNL     1       2.953   4.319  18.986  0.00  0.00    +0.000 A 
ATOM      8  C   UNL     1       2.302   3.386  18.165  0.00  0.00    +0.000 A 
ATOM      9  C   UNL     1       1.120   2.800  18.595  0.00  0.00    +0.000 A 
ATOM     10  N   UNL     1       0.546   3.061  19.783  0.00  0.00    +0.000 NA
ATOM     11  C   UNL     1       1.173   3.949  20.574  0.00  0.00    +0.000 A 
ATOM     12  C   UNL     1       2.350   4.595  20.224  0.00  0.00    +0.000 A 
ENDBRANCH   4   7
BRANCH   1  14
ATOM     13  C   UNL     1       7.760   8.546  17.680  0.00  0.00    +0.000 C 
ATOM     14  C   UNL     1       7.678   7.212  17.623  0.00  0.00    +0.000 C 
ENDBRANCH   1  14
TORSDOF 2
ENDMDL
MODEL 7
REMARK VINA RESULT:      -6.0      2.021      5.948
REMARK  Name = 
REMARK  2 active torsions:
REMARK  status: ('A' for Active; 'I' for Inactive)
REMARK    1  A    between atoms: C_2  and  N_3
REMARK    2  A    between atoms: C_6  and  C_7
REMARK                            x       y       z     vdW  Elec       q    Type
REMARK                         _______ _______ _______ _____ _____    ______ ____
ROOT
ATOM      1  N   UNL     1       6.340   6.526  17.831  0.00  0.00    +0.000 N 
ATOM      2  C   UNL     1       6.381   5.655  18.866  0.00  0.00    +0.000 A 
ATOM      3  C   UNL     1       5.242   4.967  19.281  0.00  0.00    +0.000 A 
ATOM      4  C   UNL     1       4.008   5.168  18.658  0.00  0.00    +0.000 A 
ATOM      5  C   UNL     1       3.980   6.128  17.640  0.00  0.00    +0.000 A 
ATOM      6  C   UNL     1       5.144   6.786  17.241  0.00  0.00    +0.000 A 
ENDROOT
BRANCH   4   7
ATOM      7  C   UNL     1       2.809   4.381  19.035  0.00  0.00    +0.000 A 
ATOM      8  C   UNL     1       2.261   4.438  20.327  0.00  0.00    +0.000 A 
ATOM      9  C   UNL     1       1.165   3.650  20.643  0.00  0.00    +0.000 A 
ATOM     10  N   UNL     1       0.565   2.821  19.771  0.00  0.00    +0.000 NA
ATOM     11  C   UNL     1       1.082   2.771  18.531  0.00  0.00    +0.000 A 
ATOM     12  C   UNL     1       2.183   3.512  18.127  0.00  0.00    +0.000 A 
ENDBRANCH   4   7
BRANCH   1  14
ATOM     13  C   UNL     1       7.963   8.342  17.697  0.00  0.00    +0.000 C 
ATOM     14  C   UNL     1       7.485   7.155  17.306  0.00  0.00    +0.000 C 
ENDBRANCH   1  14
TORSDOF 2
ENDMDL
MODEL 8
REMARK VINA RESULT:      -5.9      2.005      5.829
REMARK  Name = 
REMARK  2 active torsions:
REMARK  status: ('A' for Active; 'I' for Inactive)
REMARK    1  A    between atoms: C_2  and  N_3
REMARK    2  A    between atoms: C_6  and  C_7
REMARK                            x       y       z     vdW  Elec       q    Type
REMARK                         _______ _______ _______ _____ _____    ______ ____
ROOT
ATOM      1  N   UNL     1       6.304   6.595  17.780  0.00  0.00    +0.000 N 
ATOM      2  C   UNL     1       6.358   5.798  18.872  0.00  0.00    +0.000 A 
ATOM      3  C   UNL     1       5.244   5.079  19.302  0.00  0.00    +0.000 A 
ATOM      4  C   UNL     1       4.020   5.173  18.633  0.00  0.00    +0.000 A 
ATOM      5  C   UNL     1       3.973   6.061  17.553  0.00  0.00    +0.000 A 
ATOM      6  C   UNL     1       5.114   6.752  17.142  0.00  0.00    +0.000 A 
ENDROOT
BRANCH   4   7
ATOM      7  C   UNL     1       2.852   4.351  19.031  0.00  0.00    +0.000 A 
ATOM      8  C   UNL     1       2.221   3.476  18.133  0.00  0.00    +0.000 A 
ATOM      9  C   UNL     1       1.103   2.761  18.541  0.00  0.00    +0.000 A 
ATOM     10  N   UNL     1       0.576   2.841  19.775  0.00  0.00    +0.000 NA
ATOM     11  C   UNL     1       1.184   3.672  20.639  0.00  0.00    +0.000 A 
ATOM     12  C   UNL     1       2.297   4.436  20.319  0.00  0.00    +0.000 A 
ENDBRANCH   4   7
BRANCH   1  14
ATOM     13  C   UNL     1       7.962   8.382  17.714  0.00  0.00    +0.000 C 
ATOM     14  C   UNL     1       7.430   7.249  17.244  0.00  0.00    +0.000 C 
ENDBRANCH   1  14
TORSDOF 2
ENDMDL
MODEL 9
REMARK VINA RESULT:      -5.9      2.154      5.762
REMARK  Name = 
REMARK  2 active torsions:
REMARK  status: ('A' for Active; 'I' for Inactive)
REMARK    1  A    between atoms: C_2  and  N_3
REMARK    2  A    between atoms: C_6  and  C_7
REMARK                            x       y       z     vdW  Elec       q    Type
REMARK                         _______ _______ _______ _____ _____    ______ ____
ROOT
ATOM      1  N   UNL     1       7.078   6.872  17.927  0.00  0.00    +0.000 N 
ATOM      2  C   UNL     1       6.033   7.060  17.088  0.00  0.00    +0.000 A 
ATOM      3  C   UNL     1       4.935   6.202  17.092  0.00  0.00    +0.000 A 
ATOM      4  C   UNL     1       4.881   5.099  17.949  0.00  0.00    +0.000 A 
ATOM      5  C   UNL     1       6.007   4.887  18.752  0.00  0.00    +0.000 A 
ATOM      6  C   UNL     1       7.082   5.777  18.732  0.00  0.00    +0.000 A 
ENDROOT
BRANCH   4   7
ATOM      7  C   UNL     1       3.683   4.228  18.021  0.00  0.00    +0.000 A 
ATOM      8  C   UNL     1       3.787   2.836  18.173  0.00  0.00    +0.000 A 
ATOM      9  C   UNL     1       2.638   2.059  18.190  0.00  0.00    +0.000 A 
ATOM     10  N   UNL     1       1.396   2.562  18.082  0.00  0.00    +0.000 NA
ATOM     11  C   UNL     1       1.293   3.896  17.945  0.00  0.00    +0.000 A 
ATOM     12  C   UNL     1       2.386   4.751  17.904  0.00  0.00    +0.000 A 
ENDBRANCH   4   7
BRANCH   1  14
ATOM     13  C   UNL     1       8.066   9.101  17.888  0.00  0.00    +0.000 C 
ATOM     14  C   UNL     1       8.153   7.775  18.037  0.00  0.00    +0.000 C 
ENDBRANCH   1  14
TORSDOF 2
ENDMDL
