MODEL 1
REMARK VINA RESULT:      -7.9      0.000      0.000
REMARK  Name = 
REMARK  10 active torsions:
REMARK  status: ('A' for Active; 'I' for Inactive)
REMARK    1  A    between atoms: C_1  and  O_2
REMARK    2  A    between atoms: O_2  and  C_3
REMARK    3  A    between atoms: C_7  and  C_8
REMARK    4  A    between atoms: N_10  and  C_11
REMARK    5  A    between atoms: C_18  and  C_19
REMARK    6  A    between atoms: C_19  and  N_20
REMARK    7  A    between atoms: N_20  and  C_21
REMARK    8  A    between atoms: N_20  and  C_22
REMARK    9  A    between atoms: C_22  and  C_23
REMARK   10  A    between atoms: C_22  and  C_24
REMARK                            x       y       z     vdW  Elec       q    Type
REMARK                         _______ _______ _______ _____ _____    ______ ____
ROOT
ATOM      1  C   UNL     1       2.279   6.972  18.862  0.00  0.00    +0.000 A 
ATOM      2  N   UNL     1       1.273   7.828  19.101  0.00  0.00    +0.000 NA
ATOM      3  N   UNL     1       1.530   8.916  18.335  0.00  0.00    +0.000 N 
ATOM      4  C   UNL     1       2.685   8.755  17.613  0.00  0.00    +0.000 A 
ATOM      5  C   UNL     1       3.272   7.578  18.029  0.00  0.00    +0.000 A 
ENDROOT
BRANCH   1  10
ATOM      6  C   UNL     1       2.294   3.196  19.104  0.00  0.00    +0.000 A 
ATOM      7  C   UNL     1       2.290   3.017  20.489  0.00  0.00    +0.000 A 
ATOM      8  C   UNL     1       2.279   4.117  21.343  0.00  0.00    +0.000 A 
ATOM      9  C   UNL     1       2.275   5.405  20.810  0.00  0.00    +0.000 A 
ATOM     10  C   UNL     1       2.257   5.612  19.421  0.00  0.00    +0.000 A 
ATOM     11  C   UNL     1       2.272   4.493  18.575  0.00  0.00    +0.000 A 
BRANCH   6  13
ATOM     12  C   UNL     1       3.601   1.450  18.168  0.00  0.00    +0.000 C 
ATOM     13  O   UNL     1       2.323   2.033  18.386  0.00  0.00    +0.000 OA
ENDBRANCH   6  13
ENDBRANCH   1  10
BRANCH   3  14
ATOM     14  C   UNL     1       0.675  10.054  18.353  0.00  0.00    +0.000 A 
ATOM     15  C   UNL     1      -0.658   9.930  17.931  0.00  0.00    +0.000 A 
ATOM     16  C   UNL     1      -1.511  11.035  17.963  0.00  0.00    +0.000 A 
ATOM     17  C   UNL     1      -1.040  12.270  18.407  0.00  0.00    +0.000 A 
ATOM     18  C   UNL     1       0.281  12.404  18.825  0.00  0.00    +0.000 A 
ATOM     19  C   UNL     1       1.137  11.301  18.803  0.00  0.00    +0.000 A 
ENDBRANCH   3  14
BRANCH   5  20
ATOM     20  C   UNL     1       4.610   7.010  17.661  0.00  0.00    +0.000 C 
BRANCH  20  21
ATOM     21  N   UNL     1       4.560   5.975  16.607  0.00  0.00    +0.000 NA
ATOM     22  C   UNL     1       5.099   6.459  15.330  0.00  0.00    +0.000 C 
BRANCH  21  23
ATOM     23  C   UNL     1       5.282   4.734  17.031  0.00  0.00    +0.000 C 
ATOM     24  C   UNL     1       5.903   3.896  15.896  0.00  0.00    +0.000 C 
BRANCH  23  25
ATOM     25  C   UNL     1       6.296   5.037  18.116  0.00  0.00    +0.000 A 
ATOM     26  C   UNL     1       7.551   5.679  17.980  0.00  0.00    +0.000 A 
ATOM     27  C   UNL     1       8.051   5.722  19.253  0.00  0.00    +0.000 A 
ATOM     28  O   UNL     1       7.170   5.149  20.107  0.00  0.00    +0.000 OA
ATOM     29  N   UNL     1       6.060   4.724  19.402  0.00  0.00    +0.000 NA
ENDBRANCH  23  25
ENDBRANCH  21  23
ENDBRANCH  20  21
ENDBRANCH   5  20
TORSDOF 7
ENDMDL
MODEL 2
REMARK VINA RESULT:      -7.8      2.272      3.225
REMARK  Name = 
REMARK  10 active torsions:
REMARK  status: ('A' for Active; 'I' for Inactive)
REMARK    1  A    between atoms: C_1  and  O_2
REMARK    2  A    between atoms: O_2  and  C_3
REMARK    3  A    between atoms: C_7  and  C_8
REMARK    4  A    between atoms: N_10  and  C_11
REMARK    5  A    between atoms: C_18  and  C_19
REMARK    6  A    between atoms: C_19  and  N_20
REMARK    7  A    between atoms: N_20  and  C_21
REMARK    8  A    between atoms: N_20  and  C_22
REMARK    9  A    between atoms: C_22  and  C_23
REMARK   10  A    between atoms: C_22  and  C_24
REMARK                            x       y       z     vdW  Elec       q    Type
REMARK                         _______ _______ _______ _____ _____    ______ ____
ROOT
ATOM      1  C   UNL     1       3.219   5.828  18.100  0.00  0.00    +0.000 A 
ATOM      2  N   UNL     1       2.368   6.516  18.879  0.00  0.00    +0.000 NA
ATOM      3  N   UNL     1       2.394   7.788  18.414  0.00  0.00    +0.000 N 
ATOM      4  C   UNL     1       3.249   7.911  17.349  0.00  0.00    +0.000 A 
ATOM      5  C   UNL     1       3.906   6.706  17.205  0.00  0.00    +0.000 A 
ENDROOT
BRANCH   1  10
ATOM      6  C   UNL     1       4.313   2.418  19.318  0.00  0.00    +0.000 A 
ATOM      7  C   UNL     1       3.523   1.583  18.524  0.00  0.00    +0.000 A 
ATOM      8  C   UNL     1       2.641   2.125  17.593  0.00  0.00    +0.000 A 
ATOM      9  C   UNL     1       2.544   3.509  17.456  0.00  0.00    +0.000 A 
ATOM     10  C   UNL     1       3.342   4.369  18.228  0.00  0.00    +0.000 A 
ATOM     11  C   UNL     1       4.223   3.807  19.164  0.00  0.00    +0.000 A 
BRANCH   6  13
ATOM     12  C   UNL     1       4.545   1.411  21.455  0.00  0.00    +0.000 C 
ATOM     13  O   UNL     1       5.119   1.755  20.202  0.00  0.00    +0.000 OA
ENDBRANCH   6  13
ENDBRANCH   1  10
BRANCH   3  14
ATOM     14  C   UNL     1       1.622   8.817  19.024  0.00  0.00    +0.000 A 
ATOM     15  C   UNL     1       1.167   9.897  18.252  0.00  0.00    +0.000 A 
ATOM     16  C   UNL     1       0.391  10.901  18.836  0.00  0.00    +0.000 A 
ATOM     17  C   UNL     1       0.073  10.840  20.192  0.00  0.00    +0.000 A 
ATOM     18  C   UNL     1       0.523   9.774  20.967  0.00  0.00    +0.000 A 
ATOM     19  C   UNL     1       1.291   8.762  20.387  0.00  0.00    +0.000 A 
ENDBRANCH   3  14
BRANCH   5  20
ATOM     20  C   UNL     1       5.037   6.353  16.286  0.00  0.00    +0.000 C 
BRANCH  20  21
ATOM     21  N   UNL     1       6.379   6.624  16.845  0.00  0.00    +0.000 NA
ATOM     22  C   UNL     1       6.348   6.785  18.304  0.00  0.00    +0.000 C 
BRANCH  21  23
ATOM     23  C   UNL     1       7.350   5.549  16.468  0.00  0.00    +0.000 C 
ATOM     24  C   UNL     1       7.603   4.466  17.535  0.00  0.00    +0.000 C 
BRANCH  23  25
ATOM     25  C   UNL     1       6.993   4.937  15.128  0.00  0.00    +0.000 A 
ATOM     26  C   UNL     1       6.065   3.900  14.865  0.00  0.00    +0.000 A 
ATOM     27  C   UNL     1       6.105   3.744  13.506  0.00  0.00    +0.000 A 
ATOM     28  O   UNL     1       6.991   4.619  12.974  0.00  0.00    +0.000 OA
ATOM     29  N   UNL     1       7.547   5.379  13.986  0.00  0.00    +0.000 NA
ENDBRANCH  23  25
ENDBRANCH  21  23
ENDBRANCH  20  21
ENDBRANCH   5  20
TORSDOF 7
ENDMDL
MODEL 3
REMARK VINA RESULT:      -7.8      1.633      2.331
REMARK  Name = 
REMARK  10 active torsions:
REMARK  status: ('A' for Active; 'I' for Inactive)
REMARK    1  A    between atoms: C_1  and  O_2
REMARK    2  A    between atoms: O_2  and  C_3
REMARK    3  A    between atoms: C_7  and  C_8
REMARK    4  A    between atoms: N_10  and  C_11
REMARK    5  A    between atoms: C_18  and  C_19
REMARK    6  A    between atoms: C_19  and  N_20
REMARK    7  A    between atoms: N_20  and  C_21
REMARK    8  A    between atoms: N_20  and  C_22
REMARK    9  A    between atoms: C_22  and  C_23
REMARK   10  A    between atoms: C_22  and  C_24
REMARK                            x       y       z     vdW  Elec       q    Type
REMARK                         _______ _______ _______ _____ _____    ______ ____
ROOT
ATOM      1  C   UNL     1       2.138   6.712  19.369  0.00  0.00    +0.000 A 
ATOM      2  N   UNL     1       1.380   7.645  19.967  0.00  0.00    +0.000 NA
ATOM      3  N   UNL     1       1.501   8.759  19.204  0.00  0.00    +0.000 N 
ATOM      4  C   UNL     1       2.325   8.538  18.130  0.00  0.00    +0.000 A 
ATOM      5  C   UNL     1       2.867   7.278  18.277  0.00  0.00    +0.000 A 
ENDROOT
BRANCH   1  10
ATOM      6  C   UNL     1       2.199   2.930  19.390  0.00  0.00    +0.000 A 
ATOM      7  C   UNL     1       2.205   2.669  20.762  0.00  0.00    +0.000 A 
ATOM      8  C   UNL     1       2.187   3.717  21.679  0.00  0.00    +0.000 A 
ATOM      9  C   UNL     1       2.164   5.034  21.222  0.00  0.00    +0.000 A 
ATOM     10  C   UNL     1       2.135   5.322  19.848  0.00  0.00    +0.000 A 
ATOM     11  C   UNL     1       2.159   4.255  18.937  0.00  0.00    +0.000 A 
BRANCH   6  13
ATOM     12  C   UNL     1       3.526   1.315  18.265  0.00  0.00    +0.000 C 
ATOM     13  O   UNL     1       2.238   1.811  18.604  0.00  0.00    +0.000 OA
ENDBRANCH   6  13
ENDBRANCH   1  10
BRANCH   3  14
ATOM     14  C   UNL     1       0.845   9.973  19.555  0.00  0.00    +0.000 A 
ATOM     15  C   UNL     1      -0.108   9.977  20.585  0.00  0.00    +0.000 A 
ATOM     16  C   UNL     1      -0.743  11.166  20.950  0.00  0.00    +0.000 A 
ATOM     17  C   UNL     1      -0.438  12.354  20.287  0.00  0.00    +0.000 A 
ATOM     18  C   UNL     1       0.504  12.360  19.262  0.00  0.00    +0.000 A 
ATOM     19  C   UNL     1       1.149  11.176  18.898  0.00  0.00    +0.000 A 
ENDBRANCH   3  14
BRANCH   5  20
ATOM     20  C   UNL     1       3.929   6.608  17.458  0.00  0.00    +0.000 C 
BRANCH  20  21
ATOM     21  N   UNL     1       5.270   6.615  18.080  0.00  0.00    +0.000 NA
ATOM     22  C   UNL     1       5.581   5.341  18.739  0.00  0.00    +0.000 C 
BRANCH  21  23
ATOM     23  C   UNL     1       6.331   6.947  17.077  0.00  0.00    +0.000 C 
ATOM     24  C   UNL     1       7.706   7.333  17.656  0.00  0.00    +0.000 C 
BRANCH  23  25
ATOM     25  C   UNL     1       6.455   5.855  16.033  0.00  0.00    +0.000 A 
ATOM     26  C   UNL     1       5.513   5.487  15.042  0.00  0.00    +0.000 A 
ATOM     27  C   UNL     1       6.121   4.472  14.354  0.00  0.00    +0.000 A 
ATOM     28  O   UNL     1       7.344   4.234  14.883  0.00  0.00    +0.000 OA
ATOM     29  N   UNL     1       7.566   5.105  15.933  0.00  0.00    +0.000 NA
ENDBRANCH  23  25
ENDBRANCH  21  23
ENDBRANCH  20  21
ENDBRANCH   5  20
TORSDOF 7
ENDMDL
MODEL 4
REMARK VINA RESULT:      -7.8      2.297      3.028
REMARK  Name = 
REMARK  10 active torsions:
REMARK  status: ('A' for Active; 'I' for Inactive)
REMARK    1  A    between atoms: C_1  and  O_2
REMARK    2  A    between atoms: O_2  and  C_3
REMARK    3  A    between atoms: C_7  and  C_8
REMARK    4  A    between atoms: N_10  and  C_11
REMARK    5  A    between atoms: C_18  and  C_19
REMARK    6  A    between atoms: C_19  and  N_20
REMARK    7  A    between atoms: N_20  and  C_21
REMARK    8  A    between atoms: N_20  and  C_22
REMARK    9  A    between atoms: C_22  and  C_23
REMARK   10  A    between atoms: C_22  and  C_24
REMARK                            x       y       z     vdW  Elec       q    Type
REMARK                         _______ _______ _______ _____ _____    ______ ____
ROOT
ATOM      1  C   UNL     1       2.093   6.213  19.597  0.00  0.00    +0.000 A 
ATOM      2  N   UNL     1       1.365   6.917  20.479  0.00  0.00    +0.000 NA
ATOM      3  N   UNL     1       1.433   8.205  20.063  0.00  0.00    +0.000 N 
ATOM      4  C   UNL     1       2.192   8.321  18.926  0.00  0.00    +0.000 A 
ATOM      5  C   UNL     1       2.751   7.085  18.674  0.00  0.00    +0.000 A 
ENDROOT
BRANCH   1  10
ATOM      6  C   UNL     1       3.003   2.690  20.632  0.00  0.00    +0.000 A 
ATOM      7  C   UNL     1       2.147   1.942  19.821  0.00  0.00    +0.000 A 
ATOM      8  C   UNL     1       1.278   2.579  18.938  0.00  0.00    +0.000 A 
ATOM      9  C   UNL     1       1.263   3.971  18.866  0.00  0.00    +0.000 A 
ATOM     10  C   UNL     1       2.129   4.744  19.655  0.00  0.00    +0.000 A 
ATOM     11  C   UNL     1       2.996   4.088  20.543  0.00  0.00    +0.000 A 
BRANCH   6  13
ATOM     12  C   UNL     1       4.995   1.431  20.914  0.00  0.00    +0.000 C 
ATOM     13  O   UNL     1       3.788   1.940  21.464  0.00  0.00    +0.000 OA
ENDBRANCH   6  13
ENDBRANCH   1  10
BRANCH   3  14
ATOM     14  C   UNL     1       0.791   9.252  20.783  0.00  0.00    +0.000 A 
ATOM     15  C   UNL     1       0.416   9.048  22.120  0.00  0.00    +0.000 A 
ATOM     16  C   UNL     1      -0.196  10.075  22.843  0.00  0.00    +0.000 A 
ATOM     17  C   UNL     1      -0.446  11.305  22.235  0.00  0.00    +0.000 A 
ATOM     18  C   UNL     1      -0.081  11.515  20.908  0.00  0.00    +0.000 A 
ATOM     19  C   UNL     1       0.540  10.496  20.183  0.00  0.00    +0.000 A 
ENDBRANCH   3  14
BRANCH   5  20
ATOM     20  C   UNL     1       3.766   6.703  17.639  0.00  0.00    +0.000 C 
BRANCH  20  21
ATOM     21  N   UNL     1       5.155   6.651  18.143  0.00  0.00    +0.000 NA
ATOM     22  C   UNL     1       5.515   5.314  18.633  0.00  0.00    +0.000 C 
BRANCH  21  23
ATOM     23  C   UNL     1       6.129   7.093  17.096  0.00  0.00    +0.000 C 
ATOM     24  C   UNL     1       7.466   7.656  17.616  0.00  0.00    +0.000 C 
BRANCH  23  25
ATOM     25  C   UNL     1       6.349   6.007  16.062  0.00  0.00    +0.000 A 
ATOM     26  C   UNL     1       5.396   5.434  15.185  0.00  0.00    +0.000 A 
ATOM     27  C   UNL     1       6.110   4.526  14.451  0.00  0.00    +0.000 A 
ATOM     28  O   UNL     1       7.405   4.540  14.848  0.00  0.00    +0.000 OA
ATOM     29  N   UNL     1       7.566   5.475  15.853  0.00  0.00    +0.000 NA
ENDBRANCH  23  25
ENDBRANCH  21  23
ENDBRANCH  20  21
ENDBRANCH   5  20
TORSDOF 7
ENDMDL
MODEL 5
REMARK VINA RESULT:      -7.7      0.929      1.729
REMARK  Name = 
REMARK  10 active torsions:
REMARK  status: ('A' for Active; 'I' for Inactive)
REMARK    1  A    between atoms: C_1  and  O_2
REMARK    2  A    between atoms: O_2  and  C_3
REMARK    3  A    between atoms: C_7  and  C_8
REMARK    4  A    between atoms: N_10  and  C_11
REMARK    5  A    between atoms: C_18  and  C_19
REMARK    6  A    between atoms: C_19  and  N_20
REMARK    7  A    between atoms: N_20  and  C_21
REMARK    8  A    between atoms: N_20  and  C_22
REMARK    9  A    between atoms: C_22  and  C_23
REMARK   10  A    between atoms: C_22  and  C_24
REMARK                            x       y       z     vdW  Elec       q    Type
REMARK                         _______ _______ _______ _____ _____    ______ ____
ROOT
ATOM      1  C   UNL     1       2.346   6.972  18.517  0.00  0.00    +0.000 A 
ATOM      2  N   UNL     1       1.373   7.845  18.825  0.00  0.00    +0.000 NA
ATOM      3  N   UNL     1       1.734   9.015  18.244  0.00  0.00    +0.000 N 
ATOM      4  C   UNL     1       2.921   8.889  17.570  0.00  0.00    +0.000 A 
ATOM      5  C   UNL     1       3.419   7.631  17.838  0.00  0.00    +0.000 A 
ENDROOT
BRANCH   1  10
ATOM      6  C   UNL     1       2.248   3.774  20.536  0.00  0.00    +0.000 A 
ATOM      7  C   UNL     1       1.903   2.846  19.552  0.00  0.00    +0.000 A 
ATOM      8  C   UNL     1       1.705   3.255  18.235  0.00  0.00    +0.000 A 
ATOM      9  C   UNL     1       1.851   4.600  17.900  0.00  0.00    +0.000 A 
ATOM     10  C   UNL     1       2.218   5.550  18.867  0.00  0.00    +0.000 A 
ATOM     11  C   UNL     1       2.410   5.122  20.190  0.00  0.00    +0.000 A 
BRANCH   6  13
ATOM     12  C   UNL     1       1.389   2.329  22.211  0.00  0.00    +0.000 C 
ATOM     13  O   UNL     1       2.393   3.241  21.787  0.00  0.00    +0.000 OA
ENDBRANCH   6  13
ENDBRANCH   1  10
BRANCH   3  14
ATOM     14  C   UNL     1       0.940  10.188  18.384  0.00  0.00    +0.000 A 
ATOM     15  C   UNL     1       1.559  11.419  18.649  0.00  0.00    +0.000 A 
ATOM     16  C   UNL     1       0.791  12.580  18.768  0.00  0.00    +0.000 A 
ATOM     17  C   UNL     1      -0.596  12.519  18.634  0.00  0.00    +0.000 A 
ATOM     18  C   UNL     1      -1.219  11.301  18.374  0.00  0.00    +0.000 A 
ATOM     19  C   UNL     1      -0.456  10.138  18.245  0.00  0.00    +0.000 A 
ENDBRANCH   3  14
BRANCH   5  20
ATOM     20  C   UNL     1       4.745   7.041  17.462  0.00  0.00    +0.000 C 
BRANCH  20  21
ATOM     21  N   UNL     1       4.665   5.952  16.466  0.00  0.00    +0.000 NA
ATOM     22  C   UNL     1       5.238   6.343  15.172  0.00  0.00    +0.000 C 
BRANCH  21  23
ATOM     23  C   UNL     1       5.331   4.708  16.968  0.00  0.00    +0.000 C 
ATOM     24  C   UNL     1       5.972   3.809  15.893  0.00  0.00    +0.000 C 
BRANCH  23  25
ATOM     25  C   UNL     1       6.308   5.025  18.082  0.00  0.00    +0.000 A 
ATOM     26  C   UNL     1       7.567   5.665  17.980  0.00  0.00    +0.000 A 
ATOM     27  C   UNL     1       8.024   5.723  19.269  0.00  0.00    +0.000 A 
ATOM     28  O   UNL     1       7.115   5.162  20.100  0.00  0.00    +0.000 OA
ATOM     29  N   UNL     1       6.028   4.728  19.363  0.00  0.00    +0.000 NA
ENDBRANCH  23  25
ENDBRANCH  21  23
ENDBRANCH  20  21
ENDBRANCH   5  20
TORSDOF 7
ENDMDL
MODEL 6
REMARK VINA RESULT:      -7.7      1.999      2.717
REMARK  Name = 
REMARK  10 active torsions:
REMARK  status: ('A' for Active; 'I' for Inactive)
REMARK    1  A    between atoms: C_1  and  O_2
REMARK    2  A    between atoms: O_2  and  C_3
REMARK    3  A    between atoms: C_7  and  C_8
REMARK    4  A    between atoms: N_10  and  C_11
REMARK    5  A    between atoms: C_18  and  C_19
REMARK    6  A    between atoms: C_19  and  N_20
REMARK    7  A    between atoms: N_20  and  C_21
REMARK    8  A    between atoms: N_20  and  C_22
REMARK    9  A    between atoms: C_22  and  C_23
REMARK   10  A    between atoms: C_22  and  C_24
REMARK                            x       y       z     vdW  Elec       q    Type
REMARK                         _______ _______ _______ _____ _____    ______ ____
ROOT
ATOM      1  C   UNL     1       2.181   6.258  19.866  0.00  0.00    +0.000 A 
ATOM      2  N   UNL     1       1.494   7.100  20.654  0.00  0.00    +0.000 NA
ATOM      3  N   UNL     1       1.509   8.294  20.013  0.00  0.00    +0.000 N 
ATOM      4  C   UNL     1       2.194   8.213  18.828  0.00  0.00    +0.000 A 
ATOM      5  C   UNL     1       2.763   6.958  18.764  0.00  0.00    +0.000 A 
ENDROOT
BRANCH   1  10
ATOM      6  C   UNL     1       2.655   2.524  19.482  0.00  0.00    +0.000 A 
ATOM      7  C   UNL     1       2.461   2.092  20.797  0.00  0.00    +0.000 A 
ATOM      8  C   UNL     1       2.174   3.010  21.805  0.00  0.00    +0.000 A 
ATOM      9  C   UNL     1       2.082   4.366  21.499  0.00  0.00    +0.000 A 
ATOM     10  C   UNL     1       2.252   4.823  20.182  0.00  0.00    +0.000 A 
ATOM     11  C   UNL     1       2.545   3.886  19.178  0.00  0.00    +0.000 A 
BRANCH   6  13
ATOM     12  C   UNL     1       3.565   1.908  17.379  0.00  0.00    +0.000 C 
ATOM     13  O   UNL     1       2.947   1.522  18.599  0.00  0.00    +0.000 OA
ENDBRANCH   6  13
ENDBRANCH   1  10
BRANCH   3  14
ATOM     14  C   UNL     1       0.891   9.446  20.577  0.00  0.00    +0.000 A 
ATOM     15  C   UNL     1       0.866  10.647  19.851  0.00  0.00    +0.000 A 
ATOM     16  C   UNL     1       0.243  11.778  20.386  0.00  0.00    +0.000 A 
ATOM     17  C   UNL     1      -0.348  11.720  21.648  0.00  0.00    +0.000 A 
ATOM     18  C   UNL     1      -0.325  10.534  22.376  0.00  0.00    +0.000 A 
ATOM     19  C   UNL     1       0.287   9.397  21.843  0.00  0.00    +0.000 A 
ENDBRANCH   3  14
BRANCH   5  20
ATOM     20  C   UNL     1       3.721   6.408  17.750  0.00  0.00    +0.000 C 
BRANCH  20  21
ATOM     21  N   UNL     1       5.137   6.443  18.172  0.00  0.00    +0.000 NA
ATOM     22  C   UNL     1       5.618   5.124  18.604  0.00  0.00    +0.000 C 
BRANCH  21  23
ATOM     23  C   UNL     1       6.015   6.978  17.084  0.00  0.00    +0.000 C 
ATOM     24  C   UNL     1       7.302   7.688  17.546  0.00  0.00    +0.000 C 
BRANCH  23  25
ATOM     25  C   UNL     1       6.310   5.913  16.048  0.00  0.00    +0.000 A 
ATOM     26  C   UNL     1       5.388   5.210  15.234  0.00  0.00    +0.000 A 
ATOM     27  C   UNL     1       6.168   4.389  14.466  0.00  0.00    +0.000 A 
ATOM     28  O   UNL     1       7.472   4.572  14.785  0.00  0.00    +0.000 OA
ATOM     29  N   UNL     1       7.570   5.535  15.771  0.00  0.00    +0.000 NA
ENDBRANCH  23  25
ENDBRANCH  21  23
ENDBRANCH  20  21
ENDBRANCH   5  20
TORSDOF 7
ENDMDL
MODEL 7
REMARK VINA RESULT:      -7.6      2.377      3.215
REMARK  Name = 
REMARK  10 active torsions:
REMARK  status: ('A' for Active; 'I' for Inactive)
REMARK    1  A    between atoms: C_1  and  O_2
REMARK    2  A    between atoms: O_2  and  C_3
REMARK    3  A    between atoms: C_7  and  C_8
REMARK    4  A    between atoms: N_10  and  C_11
REMARK    5  A    between atoms: C_18  and  C_19
REMARK    6  A    between atoms: C_19  and  N_20
REMARK    7  A    between atoms: N_20  and  C_21
REMARK    8  A    between atoms: N_20  and  C_22
REMARK    9  A    between atoms: C_22  and  C_23
REMARK   10  A    between atoms: C_22  and  C_24
REMARK                            x       y       z     vdW  Elec       q    Type
REMARK                         _______ _______ _______ _____ _____    ______ ____
ROOT
ATOM      1  C   UNL     1       3.124   6.046  18.482  0.00  0.00    +0.000 A 
ATOM      2  N   UNL     1       2.039   6.654  18.988  0.00  0.00    +0.000 NA
ATOM      3  N   UNL     1       2.155   7.958  18.639  0.00  0.00    +0.000 N 
ATOM      4  C   UNL     1       3.299   8.179  17.915  0.00  0.00    +0.000 A 
ATOM      5  C   UNL     1       4.021   7.003  17.913  0.00  0.00    +0.000 A 
ENDROOT
BRANCH   1  10
ATOM      6  C   UNL     1       4.206   2.597  19.600  0.00  0.00    +0.000 A 
ATOM      7  C   UNL     1       3.477   1.790  18.724  0.00  0.00    +0.000 A 
ATOM      8  C   UNL     1       2.639   2.363  17.770  0.00  0.00    +0.000 A 
ATOM      9  C   UNL     1       2.526   3.750  17.693  0.00  0.00    +0.000 A 
ATOM     10  C   UNL     1       3.264   4.584  18.548  0.00  0.00    +0.000 A 
ATOM     11  C   UNL     1       4.102   3.991  19.506  0.00  0.00    +0.000 A 
BRANCH   6  13
ATOM     12  C   UNL     1       5.150   0.518  20.247  0.00  0.00    +0.000 C 
ATOM     13  O   UNL     1       4.974   1.905  20.496  0.00  0.00    +0.000 OA
ENDBRANCH   6  13
ENDBRANCH   1  10
BRANCH   3  14
ATOM     14  C   UNL     1       1.184   8.921  19.034  0.00  0.00    +0.000 A 
ATOM     15  C   UNL     1       0.942   9.147  20.397  0.00  0.00    +0.000 A 
ATOM     16  C   UNL     1       0.005  10.104  20.796  0.00  0.00    +0.000 A 
ATOM     17  C   UNL     1      -0.701  10.833  19.839  0.00  0.00    +0.000 A 
ATOM     18  C   UNL     1      -0.470  10.613  18.484  0.00  0.00    +0.000 A 
ATOM     19  C   UNL     1       0.472   9.664  18.079  0.00  0.00    +0.000 A 
ENDBRANCH   3  14
BRANCH   5  20
ATOM     20  C   UNL     1       5.400   6.745  17.386  0.00  0.00    +0.000 C 
BRANCH  20  21
ATOM     21  N   UNL     1       5.433   5.977  16.124  0.00  0.00    +0.000 NA
ATOM     22  C   UNL     1       4.989   6.778  14.977  0.00  0.00    +0.000 C 
BRANCH  21  23
ATOM     23  C   UNL     1       6.799   5.421  15.863  0.00  0.00    +0.000 C 
ATOM     24  C   UNL     1       7.315   4.395  16.891  0.00  0.00    +0.000 C 
BRANCH  23  25
ATOM     25  C   UNL     1       6.910   4.892  14.447  0.00  0.00    +0.000 A 
ATOM     26  C   UNL     1       6.164   3.850  13.845  0.00  0.00    +0.000 A 
ATOM     27  C   UNL     1       6.636   3.789  12.562  0.00  0.00    +0.000 A 
ATOM     28  O   UNL     1       7.601   4.723  12.389  0.00  0.00    +0.000 OA
ATOM     29  N   UNL     1       7.773   5.427  13.566  0.00  0.00    +0.000 NA
ENDBRANCH  23  25
ENDBRANCH  21  23
ENDBRANCH  20  21
ENDBRANCH   5  20
TORSDOF 7
ENDMDL
MODEL 8
REMARK VINA RESULT:      -7.5      1.189      1.637
REMARK  Name = 
REMARK  10 active torsions:
REMARK  status: ('A' for Active; 'I' for Inactive)
REMARK    1  A    between atoms: C_1  and  O_2
REMARK    2  A    between atoms: O_2  and  C_3
REMARK    3  A    between atoms: C_7  and  C_8
REMARK    4  A    between atoms: N_10  and  C_11
REMARK    5  A    between atoms: C_18  and  C_19
REMARK    6  A    between atoms: C_19  and  N_20
REMARK    7  A    between atoms: N_20  and  C_21
REMARK    8  A    between atoms: N_20  and  C_22
REMARK    9  A    between atoms: C_22  and  C_23
REMARK   10  A    between atoms: C_22  and  C_24
REMARK                            x       y       z     vdW  Elec       q    Type
REMARK                         _______ _______ _______ _____ _____    ______ ____
ROOT
ATOM      1  C   UNL     1       2.457   6.537  18.708  0.00  0.00    +0.000 A 
ATOM      2  N   UNL     1       1.447   7.263  19.215  0.00  0.00    +0.000 NA
ATOM      3  N   UNL     1       1.653   8.530  18.779  0.00  0.00    +0.000 N 
ATOM      4  C   UNL     1       2.779   8.610  18.001  0.00  0.00    +0.000 A 
ATOM      5  C   UNL     1       3.403   7.381  18.046  0.00  0.00    +0.000 A 
ENDROOT
BRANCH   1  10
ATOM      6  C   UNL     1       3.112   3.095  20.135  0.00  0.00    +0.000 A 
ATOM      7  C   UNL     1       2.467   2.288  19.195  0.00  0.00    +0.000 A 
ATOM      8  C   UNL     1       1.823   2.858  18.099  0.00  0.00    +0.000 A 
ATOM      9  C   UNL     1       1.822   4.243  17.943  0.00  0.00    +0.000 A 
ATOM     10  C   UNL     1       2.482   5.075  18.862  0.00  0.00    +0.000 A 
ATOM     11  C   UNL     1       3.122   4.485  19.962  0.00  0.00    +0.000 A 
BRANCH   6  13
ATOM     12  C   UNL     1       4.825   1.618  20.854  0.00  0.00    +0.000 C 
ATOM     13  O   UNL     1       3.686   2.407  21.168  0.00  0.00    +0.000 OA
ENDBRANCH   6  13
ENDBRANCH   1  10
BRANCH   3  14
ATOM     14  C   UNL     1       0.780   9.592  19.147  0.00  0.00    +0.000 A 
ATOM     15  C   UNL     1       0.781  10.067  20.468  0.00  0.00    +0.000 A 
ATOM     16  C   UNL     1      -0.057  11.123  20.835  0.00  0.00    +0.000 A 
ATOM     17  C   UNL     1      -0.906  11.703  19.893  0.00  0.00    +0.000 A 
ATOM     18  C   UNL     1      -0.916  11.236  18.581  0.00  0.00    +0.000 A 
ATOM     19  C   UNL     1      -0.074  10.187  18.206  0.00  0.00    +0.000 A 
ENDBRANCH   3  14
BRANCH   5  20
ATOM     20  C   UNL     1       4.734   6.977  17.486  0.00  0.00    +0.000 C 
BRANCH  20  21
ATOM     21  N   UNL     1       4.670   5.872  16.507  0.00  0.00    +0.000 NA
ATOM     22  C   UNL     1       5.150   6.280  15.180  0.00  0.00    +0.000 C 
BRANCH  21  23
ATOM     23  C   UNL     1       5.436   4.678  16.985  0.00  0.00    +0.000 C 
ATOM     24  C   UNL     1       6.094   3.818  15.888  0.00  0.00    +0.000 C 
BRANCH  23  25
ATOM     25  C   UNL     1       6.432   5.064  18.060  0.00  0.00    +0.000 A 
ATOM     26  C   UNL     1       7.558   5.914  17.939  0.00  0.00    +0.000 A 
ATOM     27  C   UNL     1       8.098   5.945  19.197  0.00  0.00    +0.000 A 
ATOM     28  O   UNL     1       7.359   5.172  20.027  0.00  0.00    +0.000 OA
ATOM     29  N   UNL     1       6.304   4.622  19.323  0.00  0.00    +0.000 NA
ENDBRANCH  23  25
ENDBRANCH  21  23
ENDBRANCH  20  21
ENDBRANCH   5  20
TORSDOF 7
ENDMDL
MODEL 9
REMARK VINA RESULT:      -7.5      2.070      2.829
REMARK  Name = 
REMARK  10 active torsions:
REMARK  status: ('A' for Active; 'I' for Inactive)
REMARK    1  A    between atoms: C_1  and  O_2
REMARK    2  A    between atoms: O_2  and  C_3
REMARK    3  A    between atoms: C_7  and  C_8
REMARK    4  A    between atoms: N_10  and  C_11
REMARK    5  A    between atoms: C_18  and  C_19
REMARK    6  A    between atoms: C_19  and  N_20
REMARK    7  A    between atoms: N_20  and  C_21
REMARK    8  A    between atoms: N_20  and  C_22
REMARK    9  A    between atoms: C_22  and  C_23
REMARK   10  A    between atoms: C_22  and  C_24
REMARK                            x       y       z     vdW  Elec       q    Type
REMARK                         _______ _______ _______ _____ _____    ______ ____
ROOT
ATOM      1  C   UNL     1       2.366   6.224  18.840  0.00  0.00    +0.000 A 
ATOM      2  N   UNL     1       1.727   7.071  19.662  0.00  0.00    +0.000 NA
ATOM      3  N   UNL     1       1.874   8.299  19.109  0.00  0.00    +0.000 N 
ATOM      4  C   UNL     1       2.596   8.236  17.945  0.00  0.00    +0.000 A 
ATOM      5  C   UNL     1       3.052   6.941  17.810  0.00  0.00    +0.000 A 
ENDROOT
BRANCH   1  10
ATOM      6  C   UNL     1       2.933   2.789  20.320  0.00  0.00    +0.000 A 
ATOM      7  C   UNL     1       2.105   2.008  19.511  0.00  0.00    +0.000 A 
ATOM      8  C   UNL     1       1.367   2.594  18.485  0.00  0.00    +0.000 A 
ATOM      9  C   UNL     1       1.454   3.968  18.268  0.00  0.00    +0.000 A 
ATOM     10  C   UNL     1       2.296   4.771  19.054  0.00  0.00    +0.000 A 
ATOM     11  C   UNL     1       3.030   4.166  20.086  0.00  0.00    +0.000 A 
BRANCH   6  13
ATOM     12  C   UNL     1       4.888   1.617  20.984  0.00  0.00    +0.000 C 
ATOM     13  O   UNL     1       3.585   2.090  21.298  0.00  0.00    +0.000 OA
ENDBRANCH   6  13
ENDBRANCH   1  10
BRANCH   3  14
ATOM     14  C   UNL     1       1.339   9.462  19.733  0.00  0.00    +0.000 A 
ATOM     15  C   UNL     1       1.245  10.659  19.007  0.00  0.00    +0.000 A 
ATOM     16  C   UNL     1       0.703  11.801  19.602  0.00  0.00    +0.000 A 
ATOM     17  C   UNL     1       0.262  11.758  20.924  0.00  0.00    +0.000 A 
ATOM     18  C   UNL     1       0.354  10.575  21.653  0.00  0.00    +0.000 A 
ATOM     19  C   UNL     1       0.886   9.428  21.060  0.00  0.00    +0.000 A 
ENDBRANCH   3  14
BRANCH   5  20
ATOM     20  C   UNL     1       3.997   6.376  16.792  0.00  0.00    +0.000 C 
BRANCH  20  21
ATOM     21  N   UNL     1       5.364   6.138  17.300  0.00  0.00    +0.000 NA
ATOM     22  C   UNL     1       5.439   6.253  18.763  0.00  0.00    +0.000 C 
BRANCH  21  23
ATOM     23  C   UNL     1       5.880   4.802  16.864  0.00  0.00    +0.000 C 
ATOM     24  C   UNL     1       4.865   3.643  16.905  0.00  0.00    +0.000 C 
BRANCH  23  25
ATOM     25  C   UNL     1       6.562   4.895  15.514  0.00  0.00    +0.000 A 
ATOM     26  C   UNL     1       6.208   4.235  14.312  0.00  0.00    +0.000 A 
ATOM     27  C   UNL     1       7.123   4.680  13.397  0.00  0.00    +0.000 A 
ATOM     28  O   UNL     1       7.975   5.548  13.991  0.00  0.00    +0.000 OA
ATOM     29  N   UNL     1       7.624   5.696  15.320  0.00  0.00    +0.000 NA
ENDBRANCH  23  25
ENDBRANCH  21  23
ENDBRANCH  20  21
ENDBRANCH   5  20
TORSDOF 7
ENDMDL
