MODEL 1
REMARK VINA RESULT:      -7.3      0.000      0.000
REMARK  Name = 
REMARK  9 active torsions:
REMARK  status: ('A' for Active; 'I' for Inactive)
REMARK    1  A    between atoms: C_2  and  C_4
REMARK    2  A    between atoms: N_7  and  C_8
REMARK    3  A    between atoms: C_8  and  C_9
REMARK    4  A    between atoms: C_9  and  C_10
REMARK    5  A    between atoms: C_10  and  C_11
REMARK    6  A    between atoms: C_11  and  N_12
REMARK    7  A    between atoms: C_16  and  N_17
REMARK    8  A    between atoms: C_18  and  C_20
REMARK    9  A    between atoms: N_21  and  O_22
REMARK                            x       y       z     vdW  Elec       q    Type
REMARK                         _______ _______ _______ _____ _____    ______ ____
ROOT
ATOM      1  C   UNL     1       2.066   5.039  20.871  0.00  0.00    +0.000 C 
ENDROOT
BRANCH   1   2
ATOM      2  N   UNL     1       1.955   6.338  20.152  0.00  0.00    +0.000 N 
ATOM      3  C   UNL     1       2.398   6.458  18.876  0.00  0.00    +0.000 A 
ATOM      4  C   UNL     1       2.341   7.683  18.217  0.00  0.00    +0.000 A 
ATOM      5  C   UNL     1       1.833   8.802  18.870  0.00  0.00    +0.000 A 
ATOM      6  C   UNL     1       1.444   8.683  20.196  0.00  0.00    +0.000 A 
ATOM      7  C   UNL     1       1.498   7.428  20.816  0.00  0.00    +0.000 A 
BRANCH   6   8
ATOM      8  N   UNL     1       1.066   9.838  20.911  0.00  0.00    +0.000 N 
ATOM      9  C   UNL     1      -0.196  10.389  20.721  0.00  0.00    +0.000 C 
ATOM     10  O   UNL     1      -1.043   9.919  19.970  0.00  0.00    +0.000 OA
ATOM     11  H   UNL     1       1.544  10.065  21.780  0.00  0.00    +0.000 HD
BRANCH   9  12
ATOM     12  C   UNL     1      -0.504  11.578  21.602  0.00  0.00    +0.000 C 
ATOM     13  N   UNL     1      -0.489  11.555  22.898  0.00  0.00    +0.000 NA
BRANCH  13  14
ATOM     14  O   UNL     1      -0.145  10.296  23.391  0.00  0.00    +0.000 OA
ATOM     15  H   UNL     1       0.713  10.467  23.828  0.00  0.00    +0.000 HD
ENDBRANCH  13  14
ENDBRANCH   9  12
ENDBRANCH   6   8
ENDBRANCH   1   2
BRANCH   1  16
ATOM     16  C   UNL     1       1.074   4.015  20.297  0.00  0.00    +0.000 C 
BRANCH  16  17
ATOM     17  C   UNL     1       1.785   2.851  19.579  0.00  0.00    +0.000 C 
BRANCH  17  18
ATOM     18  C   UNL     1       3.284   2.775  19.911  0.00  0.00    +0.000 C 
BRANCH  18  22
ATOM     19  C   UNL     1       5.570   4.683  16.873  0.00  0.00    +0.000 A 
ATOM     20  C   UNL     1       5.930   4.823  18.209  0.00  0.00    +0.000 A 
ATOM     21  C   UNL     1       5.159   4.198  19.183  0.00  0.00    +0.000 A 
ATOM     22  N   UNL     1       4.077   3.452  18.850  0.00  0.00    +0.000 N 
ATOM     23  C   UNL     1       3.689   3.354  17.552  0.00  0.00    +0.000 A 
ATOM     24  C   UNL     1       4.422   3.964  16.544  0.00  0.00    +0.000 A 
BRANCH  19  26
ATOM     25  N   UNL     1       7.568   4.781  15.481  0.00  0.00    +0.000 N 
ATOM     26  C   UNL     1       6.344   5.304  15.773  0.00  0.00    +0.000 C 
ATOM     27  O   UNL     1       5.858   6.226  15.131  0.00  0.00    +0.000 OA
ATOM     28  H   UNL     1       8.035   5.165  14.665  0.00  0.00    +0.000 HD
ATOM     29  H   UNL     1       7.922   3.899  15.821  0.00  0.00    +0.000 HD
ENDBRANCH  19  26
ENDBRANCH  18  22
ENDBRANCH  17  18
ENDBRANCH  16  17
ENDBRANCH   1  16
TORSDOF 9
ENDMDL
MODEL 2
REMARK VINA RESULT:      -7.1      1.667      1.918
REMARK  Name = 
REMARK  9 active torsions:
REMARK  status: ('A' for Active; 'I' for Inactive)
REMARK    1  A    between atoms: C_2  and  C_4
REMARK    2  A    between atoms: N_7  and  C_8
REMARK    3  A    between atoms: C_8  and  C_9
REMARK    4  A    between atoms: C_9  and  C_10
REMARK    5  A    between atoms: C_10  and  C_11
REMARK    6  A    between atoms: C_11  and  N_12
REMARK    7  A    between atoms: C_16  and  N_17
REMARK    8  A    between atoms: C_18  and  C_20
REMARK    9  A    between atoms: N_21  and  O_22
REMARK                            x       y       z     vdW  Elec       q    Type
REMARK                         _______ _______ _______ _____ _____    ______ ____
ROOT
ATOM      1  C   UNL     1       2.284   5.948  20.669  0.00  0.00    +0.000 C 
ENDROOT
BRANCH   1   2
ATOM      2  N   UNL     1       2.174   7.053  19.678  0.00  0.00    +0.000 N 
ATOM      3  C   UNL     1       2.820   6.976  18.488  0.00  0.00    +0.000 A 
ATOM      4  C   UNL     1       2.760   8.028  17.578  0.00  0.00    +0.000 A 
ATOM      5  C   UNL     1       2.039   9.177  17.889  0.00  0.00    +0.000 A 
ATOM      6  C   UNL     1       1.437   9.272  19.135  0.00  0.00    +0.000 A 
ATOM      7  C   UNL     1       1.504   8.182  20.013  0.00  0.00    +0.000 A 
BRANCH   6   8
ATOM      8  N   UNL     1       0.828  10.484  19.517  0.00  0.00    +0.000 N 
ATOM      9  C   UNL     1      -0.489  10.743  19.156  0.00  0.00    +0.000 C 
ATOM     10  O   UNL     1      -1.194   9.961  18.529  0.00  0.00    +0.000 OA
ATOM     11  H   UNL     1       1.200  11.000  20.311  0.00  0.00    +0.000 HD
BRANCH   9  12
ATOM     12  C   UNL     1      -1.047  12.042  19.692  0.00  0.00    +0.000 C 
ATOM     13  N   UNL     1      -1.310  13.083  18.965  0.00  0.00    +0.000 NA
BRANCH  13  14
ATOM     14  O   UNL     1      -1.024  12.860  17.618  0.00  0.00    +0.000 OA
ATOM     15  H   UNL     1      -1.494  12.022  17.437  0.00  0.00    +0.000 HD
ENDBRANCH  13  14
ENDBRANCH   9  12
ENDBRANCH   6   8
ENDBRANCH   1   2
BRANCH   1  16
ATOM     16  C   UNL     1       1.106   4.972  20.526  0.00  0.00    +0.000 C 
BRANCH  16  17
ATOM     17  C   UNL     1       1.355   3.908  19.438  0.00  0.00    +0.000 C 
BRANCH  17  18
ATOM     18  C   UNL     1       2.649   3.111  19.672  0.00  0.00    +0.000 C 
BRANCH  18  22
ATOM     19  C   UNL     1       5.694   4.400  16.996  0.00  0.00    +0.000 A 
ATOM     20  C   UNL     1       5.905   4.449  18.369  0.00  0.00    +0.000 A 
ATOM     21  C   UNL     1       4.889   4.033  19.223  0.00  0.00    +0.000 A 
ATOM     22  N   UNL     1       3.709   3.573  18.737  0.00  0.00    +0.000 N 
ATOM     23  C   UNL     1       3.476   3.571  17.399  0.00  0.00    +0.000 A 
ATOM     24  C   UNL     1       4.457   3.982  16.507  0.00  0.00    +0.000 A 
BRANCH  19  26
ATOM     25  N   UNL     1       6.330   5.552  14.945  0.00  0.00    +0.000 N 
ATOM     26  C   UNL     1       6.728   4.811  16.018  0.00  0.00    +0.000 C 
ATOM     27  O   UNL     1       7.901   4.523  16.213  0.00  0.00    +0.000 OA
ATOM     28  H   UNL     1       7.071   5.897  14.341  0.00  0.00    +0.000 HD
ATOM     29  H   UNL     1       5.432   5.999  14.846  0.00  0.00    +0.000 HD
ENDBRANCH  19  26
ENDBRANCH  18  22
ENDBRANCH  17  18
ENDBRANCH  16  17
ENDBRANCH   1  16
TORSDOF 9
ENDMDL
MODEL 3
REMARK VINA RESULT:      -7.0      1.473      1.754
REMARK  Name = 
REMARK  9 active torsions:
REMARK  status: ('A' for Active; 'I' for Inactive)
REMARK    1  A    between atoms: C_2  and  C_4
REMARK    2  A    between atoms: N_7  and  C_8
REMARK    3  A    between atoms: C_8  and  C_9
REMARK    4  A    between atoms: C_9  and  C_10
REMARK    5  A    between atoms: C_10  and  C_11
REMARK    6  A    between atoms: C_11  and  N_12
REMARK    7  A    between atoms: C_16  and  N_17
REMARK    8  A    between atoms: C_18  and  C_20
REMARK    9  A    between atoms: N_21  and  O_22
REMARK                            x       y       z     vdW  Elec       q    Type
REMARK                         _______ _______ _______ _____ _____    ______ ____
ROOT
ATOM      1  C   UNL     1       0.802   3.237  19.764  0.00  0.00    +0.000 C 
ENDROOT
BRANCH   1   2
ATOM      2  N   UNL     1       1.290   4.607  19.445  0.00  0.00    +0.000 N 
ATOM      3  C   UNL     1       1.792   4.889  18.217  0.00  0.00    +0.000 A 
ATOM      4  C   UNL     1       2.294   6.156  17.929  0.00  0.00    +0.000 A 
ATOM      5  C   UNL     1       2.292   7.145  18.909  0.00  0.00    +0.000 A 
ATOM      6  C   UNL     1       1.838   6.826  20.180  0.00  0.00    +0.000 A 
ATOM      7  C   UNL     1       1.321   5.546  20.422  0.00  0.00    +0.000 A 
BRANCH   6   8
ATOM      8  N   UNL     1       1.965   7.772  21.217  0.00  0.00    +0.000 N 
ATOM      9  C   UNL     1       0.956   8.702  21.435  0.00  0.00    +0.000 C 
ATOM     10  O   UNL     1      -0.084   8.750  20.787  0.00  0.00    +0.000 OA
ATOM     11  H   UNL     1       2.591   7.578  21.995  0.00  0.00    +0.000 HD
BRANCH   9  12
ATOM     12  C   UNL     1       1.180   9.610  22.623  0.00  0.00    +0.000 C 
ATOM     13  N   UNL     1       0.311   9.819  23.561  0.00  0.00    +0.000 NA
BRANCH  13  14
ATOM     14  O   UNL     1      -0.865   9.097  23.350  0.00  0.00    +0.000 OA
ATOM     15  H   UNL     1      -1.449   9.761  22.933  0.00  0.00    +0.000 HD
ENDBRANCH  13  14
ENDBRANCH   9  12
ENDBRANCH   6   8
ENDBRANCH   1   2
BRANCH   1  16
ATOM     16  C   UNL     1       1.929   2.207  19.591  0.00  0.00    +0.000 C 
BRANCH  16  17
ATOM     17  C   UNL     1       3.133   2.496  20.511  0.00  0.00    +0.000 C 
BRANCH  17  18
ATOM     18  C   UNL     1       4.481   2.199  19.836  0.00  0.00    +0.000 C 
BRANCH  18  22
ATOM     19  C   UNL     1       5.672   5.460  17.378  0.00  0.00    +0.000 A 
ATOM     20  C   UNL     1       5.720   5.576  18.763  0.00  0.00    +0.000 A 
ATOM     21  C   UNL     1       5.314   4.499  19.544  0.00  0.00    +0.000 A 
ATOM     22  N   UNL     1       4.886   3.343  18.978  0.00  0.00    +0.000 N 
ATOM     23  C   UNL     1       4.787   3.241  17.627  0.00  0.00    +0.000 A 
ATOM     24  C   UNL     1       5.175   4.291  16.806  0.00  0.00    +0.000 A 
BRANCH  19  26
ATOM     25  N   UNL     1       7.232   7.238  16.794  0.00  0.00    +0.000 N 
ATOM     26  C   UNL     1       6.098   6.554  16.475  0.00  0.00    +0.000 C 
ATOM     27  O   UNL     1       5.462   6.785  15.456  0.00  0.00    +0.000 OA
ATOM     28  H   UNL     1       7.551   7.920  16.111  0.00  0.00    +0.000 HD
ATOM     29  H   UNL     1       7.908   6.957  17.488  0.00  0.00    +0.000 HD
ENDBRANCH  19  26
ENDBRANCH  18  22
ENDBRANCH  17  18
ENDBRANCH  16  17
ENDBRANCH   1  16
TORSDOF 9
ENDMDL
MODEL 4
REMARK VINA RESULT:      -7.0      0.892      1.305
REMARK  Name = 
REMARK  9 active torsions:
REMARK  status: ('A' for Active; 'I' for Inactive)
REMARK    1  A    between atoms: C_2  and  C_4
REMARK    2  A    between atoms: N_7  and  C_8
REMARK    3  A    between atoms: C_8  and  C_9
REMARK    4  A    between atoms: C_9  and  C_10
REMARK    5  A    between atoms: C_10  and  C_11
REMARK    6  A    between atoms: C_11  and  N_12
REMARK    7  A    between atoms: C_16  and  N_17
REMARK    8  A    between atoms: C_18  and  C_20
REMARK    9  A    between atoms: N_21  and  O_22
REMARK                            x       y       z     vdW  Elec       q    Type
REMARK                         _______ _______ _______ _____ _____    ______ ____
ROOT
ATOM      1  C   UNL     1       2.035   5.640  20.916  0.00  0.00    +0.000 C 
ENDROOT
BRANCH   1   2
ATOM      2  N   UNL     1       1.980   6.794  19.977  0.00  0.00    +0.000 N 
ATOM      3  C   UNL     1       2.549   6.709  18.750  0.00  0.00    +0.000 A 
ATOM      4  C   UNL     1       2.543   7.801  17.886  0.00  0.00    +0.000 A 
ATOM      5  C   UNL     1       1.956   8.999  18.284  0.00  0.00    +0.000 A 
ATOM      6  C   UNL     1       1.436   9.096  19.566  0.00  0.00    +0.000 A 
ATOM      7  C   UNL     1       1.443   7.967  20.395  0.00  0.00    +0.000 A 
BRANCH   6   8
ATOM      8  N   UNL     1       0.971  10.343  20.031  0.00  0.00    +0.000 N 
ATOM      9  C   UNL     1      -0.339  10.732  19.779  0.00  0.00    +0.000 C 
ATOM     10  O   UNL     1      -1.157  10.041  19.182  0.00  0.00    +0.000 OA
ATOM     11  H   UNL     1       1.446  10.793  20.810  0.00  0.00    +0.000 HD
BRANCH   9  12
ATOM     12  C   UNL     1      -0.734  12.055  20.395  0.00  0.00    +0.000 C 
ATOM     13  N   UNL     1      -1.116  12.207  21.624  0.00  0.00    +0.000 NA
BRANCH  13  14
ATOM     14  O   UNL     1      -1.113  10.999  22.322  0.00  0.00    +0.000 OA
ATOM     15  H   UNL     1      -0.307  11.073  22.871  0.00  0.00    +0.000 HD
ENDBRANCH  13  14
ENDBRANCH   9  12
ENDBRANCH   6   8
ENDBRANCH   1   2
BRANCH   1  16
ATOM     16  C   UNL     1       1.222   4.457  20.369  0.00  0.00    +0.000 C 
BRANCH  16  17
ATOM     17  C   UNL     1       1.870   3.098  20.702  0.00  0.00    +0.000 C 
BRANCH  17  18
ATOM     18  C   UNL     1       2.289   2.315  19.448  0.00  0.00    +0.000 C 
BRANCH  18  22
ATOM     19  C   UNL     1       5.289   4.479  17.345  0.00  0.00    +0.000 A 
ATOM     20  C   UNL     1       4.152   4.036  16.679  0.00  0.00    +0.000 A 
ATOM     21  C   UNL     1       3.192   3.320  17.387  0.00  0.00    +0.000 A 
ATOM     22  N   UNL     1       3.343   3.061  18.709  0.00  0.00    +0.000 N 
ATOM     23  C   UNL     1       4.475   3.445  19.355  0.00  0.00    +0.000 A 
ATOM     24  C   UNL     1       5.465   4.156  18.690  0.00  0.00    +0.000 A 
BRANCH  19  26
ATOM     25  N   UNL     1       7.609   4.729  16.643  0.00  0.00    +0.000 N 
ATOM     26  C   UNL     1       6.353   5.257  16.670  0.00  0.00    +0.000 C 
ATOM     27  O   UNL     1       6.078   6.316  16.121  0.00  0.00    +0.000 OA
ATOM     28  H   UNL     1       8.296   5.239  16.096  0.00  0.00    +0.000 HD
ATOM     29  H   UNL     1       7.847   3.779  16.881  0.00  0.00    +0.000 HD
ENDBRANCH  19  26
ENDBRANCH  18  22
ENDBRANCH  17  18
ENDBRANCH  16  17
ENDBRANCH   1  16
TORSDOF 9
ENDMDL
MODEL 5
REMARK VINA RESULT:      -7.0      7.202      8.775
REMARK  Name = 
REMARK  9 active torsions:
REMARK  status: ('A' for Active; 'I' for Inactive)
REMARK    1  A    between atoms: C_2  and  C_4
REMARK    2  A    between atoms: N_7  and  C_8
REMARK    3  A    between atoms: C_8  and  C_9
REMARK    4  A    between atoms: C_9  and  C_10
REMARK    5  A    between atoms: C_10  and  C_11
REMARK    6  A    between atoms: C_11  and  N_12
REMARK    7  A    between atoms: C_16  and  N_17
REMARK    8  A    between atoms: C_18  and  C_20
REMARK    9  A    between atoms: N_21  and  O_22
REMARK                            x       y       z     vdW  Elec       q    Type
REMARK                         _______ _______ _______ _____ _____    ______ ____
ROOT
ATOM      1  C   UNL     1       8.128   9.881  17.748  0.00  0.00    +0.000 C 
ENDROOT
BRANCH   1   2
ATOM      2  N   UNL     1       9.008  10.862  18.441  0.00  0.00    +0.000 N 
ATOM      3  C   UNL     1       9.558  10.563  19.643  0.00  0.00    +0.000 A 
ATOM      4  C   UNL     1      10.343  11.495  20.317  0.00  0.00    +0.000 A 
ATOM      5  C   UNL     1      10.563  12.751  19.761  0.00  0.00    +0.000 A 
ATOM      6  C   UNL     1       9.942  13.070  18.562  0.00  0.00    +0.000 A 
ATOM      7  C   UNL     1       9.178  12.096  17.907  0.00  0.00    +0.000 A 
BRANCH   6   8
ATOM      8  N   UNL     1      10.038  14.385  18.062  0.00  0.00    +0.000 N 
ATOM      9  C   UNL     1      11.109  14.742  17.252  0.00  0.00    +0.000 C 
ATOM     10  O   UNL     1      11.995  13.968  16.907  0.00  0.00    +0.000 OA
ATOM     11  H   UNL     1       9.199  14.956  18.000  0.00  0.00    +0.000 HD
BRANCH   9  12
ATOM     12  C   UNL     1      11.055  16.156  16.721  0.00  0.00    +0.000 C 
ATOM     13  N   UNL     1      11.637  17.172  17.277  0.00  0.00    +0.000 NA
BRANCH  13  14
ATOM     14  O   UNL     1      12.333  16.803  18.430  0.00  0.00    +0.000 OA
ATOM     15  H   UNL     1      13.167  16.444  18.067  0.00  0.00    +0.000 HD
ENDBRANCH  13  14
ENDBRANCH   9  12
ENDBRANCH   6   8
ENDBRANCH   1   2
BRANCH   1  16
ATOM     16  C   UNL     1       8.388   8.458  18.267  0.00  0.00    +0.000 C 
BRANCH  16  17
ATOM     17  C   UNL     1       7.429   7.424  17.643  0.00  0.00    +0.000 C 
BRANCH  17  18
ATOM     18  C   UNL     1       7.549   6.035  18.291  0.00  0.00    +0.000 C 
BRANCH  18  22
ATOM     19  C   UNL     1       3.891   3.917  17.812  0.00  0.00    +0.000 A 
ATOM     20  C   UNL     1       4.196   4.517  19.029  0.00  0.00    +0.000 A 
ATOM     21  C   UNL     1       5.404   5.193  19.163  0.00  0.00    +0.000 A 
ATOM     22  N   UNL     1       6.276   5.285  18.128  0.00  0.00    +0.000 N 
ATOM     23  C   UNL     1       6.008   4.657  16.953  0.00  0.00    +0.000 A 
ATOM     24  C   UNL     1       4.819   3.965  16.773  0.00  0.00    +0.000 A 
BRANCH  19  26
ATOM     25  N   UNL     1       2.594   1.855  17.855  0.00  0.00    +0.000 N 
ATOM     26  C   UNL     1       2.622   3.189  17.581  0.00  0.00    +0.000 C 
ATOM     27  O   UNL     1       1.631   3.798  17.201  0.00  0.00    +0.000 OA
ATOM     28  H   UNL     1       1.689   1.400  17.775  0.00  0.00    +0.000 HD
ATOM     29  H   UNL     1       3.301   1.350  18.369  0.00  0.00    +0.000 HD
ENDBRANCH  19  26
ENDBRANCH  18  22
ENDBRANCH  17  18
ENDBRANCH  16  17
ENDBRANCH   1  16
TORSDOF 9
ENDMDL
MODEL 6
REMARK VINA RESULT:      -7.0      1.796      8.860
REMARK  Name = 
REMARK  9 active torsions:
REMARK  status: ('A' for Active; 'I' for Inactive)
REMARK    1  A    between atoms: C_2  and  C_4
REMARK    2  A    between atoms: N_7  and  C_8
REMARK    3  A    between atoms: C_8  and  C_9
REMARK    4  A    between atoms: C_9  and  C_10
REMARK    5  A    between atoms: C_10  and  C_11
REMARK    6  A    between atoms: C_11  and  N_12
REMARK    7  A    between atoms: C_16  and  N_17
REMARK    8  A    between atoms: C_18  and  C_20
REMARK    9  A    between atoms: N_21  and  O_22
REMARK                            x       y       z     vdW  Elec       q    Type
REMARK                         _______ _______ _______ _____ _____    ______ ____
ROOT
ATOM      1  C   UNL     1       2.078   4.974  20.956  0.00  0.00    +0.000 C 
ENDROOT
BRANCH   1   2
ATOM      2  N   UNL     1       2.332   4.085  19.790  0.00  0.00    +0.000 N 
ATOM      3  C   UNL     1       1.439   3.122  19.451  0.00  0.00    +0.000 A 
ATOM      4  C   UNL     1       1.696   2.257  18.391  0.00  0.00    +0.000 A 
ATOM      5  C   UNL     1       2.881   2.369  17.672  0.00  0.00    +0.000 A 
ATOM      6  C   UNL     1       3.817   3.314  18.068  0.00  0.00    +0.000 A 
ATOM      7  C   UNL     1       3.510   4.179  19.126  0.00  0.00    +0.000 A 
BRANCH   6   8
ATOM      8  N   UNL     1       5.079   3.341  17.442  0.00  0.00    +0.000 N 
ATOM      9  C   UNL     1       5.437   4.425  16.648  0.00  0.00    +0.000 C 
ATOM     10  O   UNL     1       4.722   5.403  16.462  0.00  0.00    +0.000 OA
ATOM     11  H   UNL     1       5.835   2.775  17.820  0.00  0.00    +0.000 HD
BRANCH   9  12
ATOM     12  C   UNL     1       6.843   4.366  16.097  0.00  0.00    +0.000 C 
ATOM     13  N   UNL     1       7.915   4.309  16.824  0.00  0.00    +0.000 NA
BRANCH  13  14
ATOM     14  O   UNL     1       7.617   4.299  18.187  0.00  0.00    +0.000 OA
ATOM     15  H   UNL     1       7.992   3.445  18.480  0.00  0.00    +0.000 HD
ENDBRANCH  13  14
ENDBRANCH   9  12
ENDBRANCH   6   8
ENDBRANCH   1   2
BRANCH   1  16
ATOM     16  C   UNL     1       1.191   6.161  20.550  0.00  0.00    +0.000 C 
BRANCH  16  17
ATOM     17  C   UNL     1       1.720   7.501  21.099  0.00  0.00    +0.000 C 
BRANCH  17  18
ATOM     18  C   UNL     1       1.285   8.705  20.249  0.00  0.00    +0.000 C 
BRANCH  18  22
ATOM     19  C   UNL     1      -1.251  11.259  22.519  0.00  0.00    +0.000 A 
ATOM     20  C   UNL     1      -0.741  10.096  23.087  0.00  0.00    +0.000 A 
ATOM     21  C   UNL     1       0.075   9.272  22.319  0.00  0.00    +0.000 A 
ATOM     22  N   UNL     1       0.389   9.591  21.039  0.00  0.00    +0.000 N 
ATOM     23  C   UNL     1      -0.146  10.698  20.461  0.00  0.00    +0.000 A 
ATOM     24  C   UNL     1      -0.972  11.548  21.184  0.00  0.00    +0.000 A 
BRANCH  19  26
ATOM     25  N   UNL     1      -1.701  13.489  23.391  0.00  0.00    +0.000 N 
ATOM     26  C   UNL     1      -2.116  12.196  23.270  0.00  0.00    +0.000 C 
ATOM     27  O   UNL     1      -3.188  11.811  23.718  0.00  0.00    +0.000 OA
ATOM     28  H   UNL     1      -2.355  14.130  23.831  0.00  0.00    +0.000 HD
ATOM     29  H   UNL     1      -0.949  13.911  22.867  0.00  0.00    +0.000 HD
ENDBRANCH  19  26
ENDBRANCH  18  22
ENDBRANCH  17  18
ENDBRANCH  16  17
ENDBRANCH   1  16
TORSDOF 9
ENDMDL
MODEL 7
REMARK VINA RESULT:      -6.9      2.064      8.033
REMARK  Name = 
REMARK  9 active torsions:
REMARK  status: ('A' for Active; 'I' for Inactive)
REMARK    1  A    between atoms: C_2  and  C_4
REMARK    2  A    between atoms: N_7  and  C_8
REMARK    3  A    between atoms: C_8  and  C_9
REMARK    4  A    between atoms: C_9  and  C_10
REMARK    5  A    between atoms: C_10  and  C_11
REMARK    6  A    between atoms: C_11  and  N_12
REMARK    7  A    between atoms: C_16  and  N_17
REMARK    8  A    between atoms: C_18  and  C_20
REMARK    9  A    between atoms: N_21  and  O_22
REMARK                            x       y       z     vdW  Elec       q    Type
REMARK                         _______ _______ _______ _____ _____    ______ ____
ROOT
ATOM      1  C   UNL     1       1.180   4.738  19.721  0.00  0.00    +0.000 C 
ENDROOT
BRANCH   1   2
ATOM      2  N   UNL     1       2.094   3.760  19.070  0.00  0.00    +0.000 N 
ATOM      3  C   UNL     1       1.991   2.436  19.341  0.00  0.00    +0.000 A 
ATOM      4  C   UNL     1       2.875   1.523  18.772  0.00  0.00    +0.000 A 
ATOM      5  C   UNL     1       3.883   1.968  17.921  0.00  0.00    +0.000 A 
ATOM      6  C   UNL     1       4.021   3.331  17.703  0.00  0.00    +0.000 A 
ATOM      7  C   UNL     1       3.097   4.213  18.278  0.00  0.00    +0.000 A 
BRANCH   6   8
ATOM      8  N   UNL     1       5.123   3.804  16.963  0.00  0.00    +0.000 N 
ATOM      9  C   UNL     1       6.232   4.319  17.623  0.00  0.00    +0.000 C 
ATOM     10  O   UNL     1       6.339   4.374  18.843  0.00  0.00    +0.000 OA
ATOM     11  H   UNL     1       5.263   3.474  16.011  0.00  0.00    +0.000 HD
BRANCH   9  12
ATOM     12  C   UNL     1       7.374   4.722  16.718  0.00  0.00    +0.000 C 
ATOM     13  N   UNL     1       7.348   5.735  15.910  0.00  0.00    +0.000 NA
BRANCH  13  14
ATOM     14  O   UNL     1       6.135   6.422  15.978  0.00  0.00    +0.000 OA
ATOM     15  H   UNL     1       5.787   6.326  15.069  0.00  0.00    +0.000 HD
ENDBRANCH  13  14
ENDBRANCH   9  12
ENDBRANCH   6   8
ENDBRANCH   1   2
BRANCH   1  16
ATOM     16  C   UNL     1       1.950   5.622  20.715  0.00  0.00    +0.000 C 
BRANCH  16  17
ATOM     17  C   UNL     1       2.012   7.095  20.261  0.00  0.00    +0.000 C 
BRANCH  17  18
ATOM     18  C   UNL     1       1.244   8.039  21.200  0.00  0.00    +0.000 C 
BRANCH  18  22
ATOM     19  C   UNL     1      -0.310  11.341  19.014  0.00  0.00    +0.000 A 
ATOM     20  C   UNL     1      -0.847  11.010  20.254  0.00  0.00    +0.000 A 
ATOM     21  C   UNL     1      -0.329   9.918  20.942  0.00  0.00    +0.000 A 
ATOM     22  N   UNL     1       0.692   9.186  20.431  0.00  0.00    +0.000 N 
ATOM     23  C   UNL     1       1.186   9.472  19.198  0.00  0.00    +0.000 A 
ATOM     24  C   UNL     1       0.698  10.547  18.470  0.00  0.00    +0.000 A 
BRANCH  19  26
ATOM     25  N   UNL     1      -1.646  12.244  17.187  0.00  0.00    +0.000 N 
ATOM     26  C   UNL     1      -0.795  12.495  18.222  0.00  0.00    +0.000 C 
ATOM     27  O   UNL     1      -0.464  13.631  18.535  0.00  0.00    +0.000 OA
ATOM     28  H   UNL     1      -2.033  13.059  16.720  0.00  0.00    +0.000 HD
ATOM     29  H   UNL     1      -2.119  11.369  17.020  0.00  0.00    +0.000 HD
ENDBRANCH  19  26
ENDBRANCH  18  22
ENDBRANCH  17  18
ENDBRANCH  16  17
ENDBRANCH   1  16
TORSDOF 9
ENDMDL
MODEL 8
REMARK VINA RESULT:      -6.8      1.593      2.087
REMARK  Name = 
REMARK  9 active torsions:
REMARK  status: ('A' for Active; 'I' for Inactive)
REMARK    1  A    between atoms: C_2  and  C_4
REMARK    2  A    between atoms: N_7  and  C_8
REMARK    3  A    between atoms: C_8  and  C_9
REMARK    4  A    between atoms: C_9  and  C_10
REMARK    5  A    between atoms: C_10  and  C_11
REMARK    6  A    between atoms: C_11  and  N_12
REMARK    7  A    between atoms: C_16  and  N_17
REMARK    8  A    between atoms: C_18  and  C_20
REMARK    9  A    between atoms: N_21  and  O_22
REMARK                            x       y       z     vdW  Elec       q    Type
REMARK                         _______ _______ _______ _____ _____    ______ ____
ROOT
ATOM      1  C   UNL     1       3.223   6.212  19.178  0.00  0.00    +0.000 C 
ENDROOT
BRANCH   1   2
ATOM      2  N   UNL     1       2.437   7.464  19.008  0.00  0.00    +0.000 N 
ATOM      3  C   UNL     1       2.702   8.308  17.980  0.00  0.00    +0.000 A 
ATOM      4  C   UNL     1       2.002   9.504  17.845  0.00  0.00    +0.000 A 
ATOM      5  C   UNL     1       1.025   9.848  18.774  0.00  0.00    +0.000 A 
ATOM      6  C   UNL     1       0.808   9.009  19.858  0.00  0.00    +0.000 A 
ATOM      7  C   UNL     1       1.519   7.805  19.945  0.00  0.00    +0.000 A 
BRANCH   6   8
ATOM      8  N   UNL     1      -0.073   9.415  20.880  0.00  0.00    +0.000 N 
ATOM      9  C   UNL     1       0.416   9.668  22.157  0.00  0.00    +0.000 C 
ATOM     10  O   UNL     1       1.599   9.584  22.466  0.00  0.00    +0.000 OA
ATOM     11  H   UNL     1      -0.962   9.844  20.632  0.00  0.00    +0.000 HD
BRANCH   9  12
ATOM     12  C   UNL     1      -0.618  10.168  23.140  0.00  0.00    +0.000 C 
ATOM     13  N   UNL     1      -0.969  11.409  23.268  0.00  0.00    +0.000 NA
BRANCH  13  14
ATOM     14  O   UNL     1      -0.282  12.237  22.379  0.00  0.00    +0.000 OA
ATOM     15  H   UNL     1      -0.790  13.072  22.432  0.00  0.00    +0.000 HD
ENDBRANCH  13  14
ENDBRANCH   9  12
ENDBRANCH   6   8
ENDBRANCH   1   2
BRANCH   1  16
ATOM     16  C   UNL     1       2.298   4.984  19.163  0.00  0.00    +0.000 C 
BRANCH  16  17
ATOM     17  C   UNL     1       3.086   3.659  19.175  0.00  0.00    +0.000 C 
BRANCH  17  18
ATOM     18  C   UNL     1       4.601   3.868  19.322  0.00  0.00    +0.000 C 
BRANCH  18  22
ATOM     19  C   UNL     1       6.362   4.457  15.494  0.00  0.00    +0.000 A 
ATOM     20  C   UNL     1       5.121   3.838  15.604  0.00  0.00    +0.000 A 
ATOM     21  C   UNL     1       4.573   3.647  16.868  0.00  0.00    +0.000 A 
ATOM     22  N   UNL     1       5.221   4.063  17.984  0.00  0.00    +0.000 N 
ATOM     23  C   UNL     1       6.457   4.621  17.889  0.00  0.00    +0.000 A 
ATOM     24  C   UNL     1       7.048   4.826  16.650  0.00  0.00    +0.000 A 
BRANCH  19  26
ATOM     25  N   UNL     1       6.582   3.988  13.113  0.00  0.00    +0.000 N 
ATOM     26  C   UNL     1       7.010   4.710  14.187  0.00  0.00    +0.000 C 
ATOM     27  O   UNL     1       7.868   5.577  14.090  0.00  0.00    +0.000 OA
ATOM     28  H   UNL     1       6.978   4.245  12.214  0.00  0.00    +0.000 HD
ATOM     29  H   UNL     1       5.745   3.426  13.085  0.00  0.00    +0.000 HD
ENDBRANCH  19  26
ENDBRANCH  18  22
ENDBRANCH  17  18
ENDBRANCH  16  17
ENDBRANCH   1  16
TORSDOF 9
ENDMDL
MODEL 9
REMARK VINA RESULT:      -6.8      2.087      7.984
REMARK  Name = 
REMARK  9 active torsions:
REMARK  status: ('A' for Active; 'I' for Inactive)
REMARK    1  A    between atoms: C_2  and  C_4
REMARK    2  A    between atoms: N_7  and  C_8
REMARK    3  A    between atoms: C_8  and  C_9
REMARK    4  A    between atoms: C_9  and  C_10
REMARK    5  A    between atoms: C_10  and  C_11
REMARK    6  A    between atoms: C_11  and  N_12
REMARK    7  A    between atoms: C_16  and  N_17
REMARK    8  A    between atoms: C_18  and  C_20
REMARK    9  A    between atoms: N_21  and  O_22
REMARK                            x       y       z     vdW  Elec       q    Type
REMARK                         _______ _______ _______ _____ _____    ______ ____
ROOT
ATOM      1  C   UNL     1       2.299   4.632  21.096  0.00  0.00    +0.000 C 
ENDROOT
BRANCH   1   2
ATOM      2  N   UNL     1       2.688   3.786  19.935  0.00  0.00    +0.000 N 
ATOM      3  C   UNL     1       2.218   2.520  19.818  0.00  0.00    +0.000 A 
ATOM      4  C   UNL     1       2.617   1.709  18.759  0.00  0.00    +0.000 A 
ATOM      5  C   UNL     1       3.514   2.193  17.811  0.00  0.00    +0.000 A 
ATOM      6  C   UNL     1       4.040   3.466  17.977  0.00  0.00    +0.000 A 
ATOM      7  C   UNL     1       3.596   4.257  19.044  0.00  0.00    +0.000 A 
BRANCH   6   8
ATOM      8  N   UNL     1       5.057   3.912  17.108  0.00  0.00    +0.000 N 
ATOM      9  C   UNL     1       6.252   4.393  17.629  0.00  0.00    +0.000 C 
ATOM     10  O   UNL     1       6.508   4.439  18.827  0.00  0.00    +0.000 OA
ATOM     11  H   UNL     1       5.070   3.582  16.146  0.00  0.00    +0.000 HD
BRANCH   9  12
ATOM     12  C   UNL     1       7.286   4.768  16.592  0.00  0.00    +0.000 C 
ATOM     13  N   UNL     1       7.396   5.944  16.058  0.00  0.00    +0.000 NA
BRANCH  13  14
ATOM     14  O   UNL     1       6.446   6.834  16.560  0.00  0.00    +0.000 OA
ATOM     15  H   UNL     1       6.181   7.333  15.762  0.00  0.00    +0.000 HD
ENDBRANCH  13  14
ENDBRANCH   9  12
ENDBRANCH   6   8
ENDBRANCH   1   2
BRANCH   1  16
ATOM     16  C   UNL     1       1.273   5.695  20.674  0.00  0.00    +0.000 C 
BRANCH  16  17
ATOM     17  C   UNL     1       1.938   7.038  20.311  0.00  0.00    +0.000 C 
BRANCH  17  18
ATOM     18  C   UNL     1       1.433   8.204  21.175  0.00  0.00    +0.000 C 
BRANCH  18  22
ATOM     19  C   UNL     1      -0.700  10.982  18.760  0.00  0.00    +0.000 A 
ATOM     20  C   UNL     1       0.207  10.104  18.178  0.00  0.00    +0.000 A 
ATOM     21  C   UNL     1       0.900   9.214  18.991  0.00  0.00    +0.000 A 
ATOM     22  N   UNL     1       0.697   9.183  20.332  0.00  0.00    +0.000 N 
ATOM     23  C   UNL     1      -0.149  10.073  20.914  0.00  0.00    +0.000 A 
ATOM     24  C   UNL     1      -0.859  10.985  20.144  0.00  0.00    +0.000 A 
BRANCH  19  26
ATOM     25  N   UNL     1      -0.919  13.159  17.687  0.00  0.00    +0.000 N 
ATOM     26  C   UNL     1      -1.488  11.952  17.965  0.00  0.00    +0.000 C 
ATOM     27  O   UNL     1      -2.594  11.639  17.544  0.00  0.00    +0.000 OA
ATOM     28  H   UNL     1      -1.443  13.768  17.065  0.00  0.00    +0.000 HD
ATOM     29  H   UNL     1       0.055  13.388  17.816  0.00  0.00    +0.000 HD
ENDBRANCH  19  26
ENDBRANCH  18  22
ENDBRANCH  17  18
ENDBRANCH  16  17
ENDBRANCH   1  16
TORSDOF 9
ENDMDL
