MODEL 1
REMARK VINA RESULT:      -7.7      0.000      0.000
REMARK  Name = 
REMARK  8 active torsions:
REMARK  status: ('A' for Active; 'I' for Inactive)
REMARK    1  A    between atoms: C_1  and  N_2
REMARK    2  A    between atoms: N_4  and  C_5
REMARK    3  A    between atoms: C_5  and  C_6
REMARK    4  A    between atoms: C_6  and  C_7
REMARK    5  A    between atoms: C_7  and  C_8
REMARK    6  A    between atoms: C_10  and  C_11
REMARK    7  A    between atoms: N_14  and  C_15
REMARK    8  A    between atoms: C_15  and  C_16
REMARK                            x       y       z     vdW  Elec       q    Type
REMARK                         _______ _______ _______ _____ _____    ______ ____
ROOT
ATOM      1  C   UNL     1       6.628   4.428  14.018  0.00  0.00    +0.000 C 
ATOM      2  N   UNL     1       5.697   4.070  15.073  0.00  0.00    +0.000 NA
ATOM      3  C   UNL     1       5.986   4.296  16.304  0.00  0.00    +0.000 C 
ATOM      4  N   UNL     1       7.093   4.946  16.765  0.00  0.00    +0.000 N 
ATOM      5  N   UNL     1       5.130   3.889  17.284  0.00  0.00    +0.000 N 
ATOM      6  H   UNL     1       7.701   5.315  16.052  0.00  0.00    +0.000 HD
ATOM      7  H   UNL     1       5.334   4.141  18.238  0.00  0.00    +0.000 HD
ENDROOT
BRANCH   4   8
ATOM      8  C   UNL     1       7.673   4.917  18.093  0.00  0.00    +0.000 C 
BRANCH   8   9
ATOM      9  C   UNL     1       7.790   6.327  18.662  0.00  0.00    +0.000 C 
BRANCH   9  10
ATOM     10  C   UNL     1       7.544   7.388  17.592  0.00  0.00    +0.000 C 
BRANCH  10  11
ATOM     11  C   UNL     1       8.188   8.664  17.978  0.00  0.00    +0.000 A 
ATOM     12  N   UNL     1       8.090   9.849  17.423  0.00  0.00    +0.000 NA
ATOM     13  C   UNL     1       8.829  10.625  18.278  0.00  0.00    +0.000 A 
ATOM     14  C   UNL     1       8.972  12.081  18.102  0.00  0.00    +0.000 C 
ATOM     15  N   UNL     1       9.379   9.967  19.307  0.00  0.00    +0.000 NA
ATOM     16  O   UNL     1       8.951   8.652  19.109  0.00  0.00    +0.000 OA
ENDBRANCH  10  11
ENDBRANCH   9  10
ENDBRANCH   8   9
ENDBRANCH   4   8
BRANCH   5  17
ATOM     17  C   UNL     1       3.720   3.634  17.048  0.00  0.00    +0.000 C 
BRANCH  17  18
ATOM     18  C   UNL     1       3.011   3.299  18.344  0.00  0.00    +0.000 A 
ATOM     19  C   UNL     1       3.743   3.054  19.519  0.00  0.00    +0.000 A 
ATOM     20  C   UNL     1       3.093   2.792  20.726  0.00  0.00    +0.000 A 
ATOM     21  C   UNL     1       1.704   2.777  20.763  0.00  0.00    +0.000 A 
ATOM     22  F   UNL     1       1.075   2.543  21.922  0.00  0.00    +0.000 F 
ATOM     23  C   UNL     1       0.957   3.009  19.614  0.00  0.00    +0.000 A 
ATOM     24  C   UNL     1       1.608   3.268  18.405  0.00  0.00    +0.000 A 
ENDBRANCH  17  18
ENDBRANCH   5  17
TORSDOF 6
ENDMDL
MODEL 2
REMARK VINA RESULT:      -7.6      3.824      5.240
REMARK  Name = 
REMARK  8 active torsions:
REMARK  status: ('A' for Active; 'I' for Inactive)
REMARK    1  A    between atoms: C_1  and  N_2
REMARK    2  A    between atoms: N_4  and  C_5
REMARK    3  A    between atoms: C_5  and  C_6
REMARK    4  A    between atoms: C_6  and  C_7
REMARK    5  A    between atoms: C_7  and  C_8
REMARK    6  A    between atoms: C_10  and  C_11
REMARK    7  A    between atoms: N_14  and  C_15
REMARK    8  A    between atoms: C_15  and  C_16
REMARK                            x       y       z     vdW  Elec       q    Type
REMARK                         _______ _______ _______ _____ _____    ______ ____
ROOT
ATOM      1  C   UNL     1       4.345   2.912  17.391  0.00  0.00    +0.000 C 
ATOM      2  N   UNL     1       3.740   3.808  18.360  0.00  0.00    +0.000 NA
ATOM      3  C   UNL     1       4.452   4.685  18.972  0.00  0.00    +0.000 C 
ATOM      4  N   UNL     1       5.771   4.949  18.749  0.00  0.00    +0.000 N 
ATOM      5  N   UNL     1       3.879   5.470  19.929  0.00  0.00    +0.000 N 
ATOM      6  H   UNL     1       6.192   4.427  17.997  0.00  0.00    +0.000 HD
ATOM      7  H   UNL     1       4.431   6.204  20.345  0.00  0.00    +0.000 HD
ENDROOT
BRANCH   4   8
ATOM      8  C   UNL     1       6.718   5.626  19.614  0.00  0.00    +0.000 C 
BRANCH   8   9
ATOM      9  C   UNL     1       7.961   6.041  18.834  0.00  0.00    +0.000 C 
BRANCH   9  10
ATOM     10  C   UNL     1       7.630   7.068  17.753  0.00  0.00    +0.000 C 
BRANCH  10  11
ATOM     11  C   UNL     1       6.974   6.406  16.602  0.00  0.00    +0.000 A 
ATOM     12  N   UNL     1       7.385   5.389  15.881  0.00  0.00    +0.000 NA
ATOM     13  C   UNL     1       6.318   5.186  15.044  0.00  0.00    +0.000 A 
ATOM     14  C   UNL     1       6.280   4.088  14.062  0.00  0.00    +0.000 C 
ATOM     15  N   UNL     1       5.297   6.037  15.212  0.00  0.00    +0.000 NA
ATOM     16  O   UNL     1       5.734   6.857  16.256  0.00  0.00    +0.000 OA
ENDBRANCH  10  11
ENDBRANCH   9  10
ENDBRANCH   8   9
ENDBRANCH   4   8
BRANCH   5  17
ATOM     17  C   UNL     1       2.451   5.719  19.998  0.00  0.00    +0.000 C 
BRANCH  17  18
ATOM     18  C   UNL     1       2.130   7.133  19.556  0.00  0.00    +0.000 A 
ATOM     19  C   UNL     1       2.373   7.542  18.232  0.00  0.00    +0.000 A 
ATOM     20  C   UNL     1       2.035   8.828  17.809  0.00  0.00    +0.000 A 
ATOM     21  C   UNL     1       1.449   9.711  18.708  0.00  0.00    +0.000 A 
ATOM     22  F   UNL     1       1.107  10.940  18.300  0.00  0.00    +0.000 F 
ATOM     23  C   UNL     1       1.205   9.333  20.023  0.00  0.00    +0.000 A 
ATOM     24  C   UNL     1       1.546   8.046  20.448  0.00  0.00    +0.000 A 
ENDBRANCH  17  18
ENDBRANCH   5  17
TORSDOF 6
ENDMDL
MODEL 3
REMARK VINA RESULT:      -7.5      2.812      3.457
REMARK  Name = 
REMARK  8 active torsions:
REMARK  status: ('A' for Active; 'I' for Inactive)
REMARK    1  A    between atoms: C_1  and  N_2
REMARK    2  A    between atoms: N_4  and  C_5
REMARK    3  A    between atoms: C_5  and  C_6
REMARK    4  A    between atoms: C_6  and  C_7
REMARK    5  A    between atoms: C_7  and  C_8
REMARK    6  A    between atoms: C_10  and  C_11
REMARK    7  A    between atoms: N_14  and  C_15
REMARK    8  A    between atoms: C_15  and  C_16
REMARK                            x       y       z     vdW  Elec       q    Type
REMARK                         _______ _______ _______ _____ _____    ______ ____
ROOT
ATOM      1  C   UNL     1       6.906   4.498  13.558  0.00  0.00    +0.000 C 
ATOM      2  N   UNL     1       5.981   3.973  14.547  0.00  0.00    +0.000 NA
ATOM      3  C   UNL     1       6.257   4.039  15.800  0.00  0.00    +0.000 C 
ATOM      4  N   UNL     1       7.341   4.653  16.354  0.00  0.00    +0.000 N 
ATOM      5  N   UNL     1       5.408   3.478  16.708  0.00  0.00    +0.000 N 
ATOM      6  H   UNL     1       7.941   5.133  15.703  0.00  0.00    +0.000 HD
ATOM      7  H   UNL     1       5.600   3.605  17.690  0.00  0.00    +0.000 HD
ENDROOT
BRANCH   4   8
ATOM      8  C   UNL     1       7.915   4.462  17.671  0.00  0.00    +0.000 C 
BRANCH   8   9
ATOM      9  C   UNL     1       7.610   5.654  18.572  0.00  0.00    +0.000 C 
BRANCH   9  10
ATOM     10  C   UNL     1       6.362   5.416  19.419  0.00  0.00    +0.000 C 
BRANCH  10  11
ATOM     11  C   UNL     1       5.180   6.031  18.774  0.00  0.00    +0.000 A 
ATOM     12  N   UNL     1       3.971   6.213  19.251  0.00  0.00    +0.000 NA
ATOM     13  C   UNL     1       3.367   6.907  18.233  0.00  0.00    +0.000 A 
ATOM     14  C   UNL     1       1.982   7.400  18.326  0.00  0.00    +0.000 C 
ATOM     15  N   UNL     1       4.143   7.135  17.165  0.00  0.00    +0.000 NA
ATOM     16  O   UNL     1       5.359   6.549  17.524  0.00  0.00    +0.000 OA
ENDBRANCH  10  11
ENDBRANCH   9  10
ENDBRANCH   8   9
ENDBRANCH   4   8
BRANCH   5  17
ATOM     17  C   UNL     1       4.008   3.217  16.427  0.00  0.00    +0.000 C 
BRANCH  17  18
ATOM     18  C   UNL     1       3.202   3.174  17.709  0.00  0.00    +0.000 A 
ATOM     19  C   UNL     1       1.876   3.642  17.737  0.00  0.00    +0.000 A 
ATOM     20  C   UNL     1       1.114   3.561  18.904  0.00  0.00    +0.000 A 
ATOM     21  C   UNL     1       1.675   3.008  20.048  0.00  0.00    +0.000 A 
ATOM     22  F   UNL     1       0.941   2.912  21.165  0.00  0.00    +0.000 F 
ATOM     23  C   UNL     1       2.985   2.544  20.048  0.00  0.00    +0.000 A 
ATOM     24  C   UNL     1       3.749   2.628  18.881  0.00  0.00    +0.000 A 
ENDBRANCH  17  18
ENDBRANCH   5  17
TORSDOF 6
ENDMDL
MODEL 4
REMARK VINA RESULT:      -7.4      2.850      3.350
REMARK  Name = 
REMARK  8 active torsions:
REMARK  status: ('A' for Active; 'I' for Inactive)
REMARK    1  A    between atoms: C_1  and  N_2
REMARK    2  A    between atoms: N_4  and  C_5
REMARK    3  A    between atoms: C_5  and  C_6
REMARK    4  A    between atoms: C_6  and  C_7
REMARK    5  A    between atoms: C_7  and  C_8
REMARK    6  A    between atoms: C_10  and  C_11
REMARK    7  A    between atoms: N_14  and  C_15
REMARK    8  A    between atoms: C_15  and  C_16
REMARK                            x       y       z     vdW  Elec       q    Type
REMARK                         _______ _______ _______ _____ _____    ______ ____
ROOT
ATOM      1  C   UNL     1       7.010   4.584  13.687  0.00  0.00    +0.000 C 
ATOM      2  N   UNL     1       6.073   4.008  14.635  0.00  0.00    +0.000 NA
ATOM      3  C   UNL     1       6.298   4.074  15.898  0.00  0.00    +0.000 C 
ATOM      4  N   UNL     1       7.329   4.733  16.499  0.00  0.00    +0.000 N 
ATOM      5  N   UNL     1       5.441   3.466  16.768  0.00  0.00    +0.000 N 
ATOM      6  H   UNL     1       7.931   5.246  15.875  0.00  0.00    +0.000 HD
ATOM      7  H   UNL     1       5.589   3.592  17.757  0.00  0.00    +0.000 HD
ENDROOT
BRANCH   4   8
ATOM      8  C   UNL     1       7.860   4.556  17.836  0.00  0.00    +0.000 C 
BRANCH   8   9
ATOM      9  C   UNL     1       7.359   5.656  18.766  0.00  0.00    +0.000 C 
BRANCH   9  10
ATOM     10  C   UNL     1       6.031   5.280  19.418  0.00  0.00    +0.000 C 
BRANCH  10  11
ATOM     11  C   UNL     1       4.921   6.028  18.787  0.00  0.00    +0.000 A 
ATOM     12  N   UNL     1       3.743   6.342  19.276  0.00  0.00    +0.000 NA
ATOM     13  C   UNL     1       3.213   7.106  18.268  0.00  0.00    +0.000 A 
ATOM     14  C   UNL     1       1.893   7.751  18.376  0.00  0.00    +0.000 C 
ATOM     15  N   UNL     1       4.001   7.254  17.195  0.00  0.00    +0.000 NA
ATOM     16  O   UNL     1       5.147   6.532  17.539  0.00  0.00    +0.000 OA
ENDBRANCH  10  11
ENDBRANCH   9  10
ENDBRANCH   8   9
ENDBRANCH   4   8
BRANCH   5  17
ATOM     17  C   UNL     1       4.067   3.142  16.430  0.00  0.00    +0.000 C 
BRANCH  17  18
ATOM     18  C   UNL     1       3.202   3.109  17.674  0.00  0.00    +0.000 A 
ATOM     19  C   UNL     1       3.676   2.521  18.861  0.00  0.00    +0.000 A 
ATOM     20  C   UNL     1       2.901   2.531  20.022  0.00  0.00    +0.000 A 
ATOM     21  C   UNL     1       1.650   3.133  20.002  0.00  0.00    +0.000 A 
ATOM     22  F   UNL     1       0.911   3.160  21.119  0.00  0.00    +0.000 F 
ATOM     23  C   UNL     1       1.156   3.716  18.840  0.00  0.00    +0.000 A 
ATOM     24  C   UNL     1       1.930   3.703  17.677  0.00  0.00    +0.000 A 
ENDBRANCH  17  18
ENDBRANCH   5  17
TORSDOF 6
ENDMDL
MODEL 5
REMARK VINA RESULT:      -7.4      4.154      5.783
REMARK  Name = 
REMARK  8 active torsions:
REMARK  status: ('A' for Active; 'I' for Inactive)
REMARK    1  A    between atoms: C_1  and  N_2
REMARK    2  A    between atoms: N_4  and  C_5
REMARK    3  A    between atoms: C_5  and  C_6
REMARK    4  A    between atoms: C_6  and  C_7
REMARK    5  A    between atoms: C_7  and  C_8
REMARK    6  A    between atoms: C_10  and  C_11
REMARK    7  A    between atoms: N_14  and  C_15
REMARK    8  A    between atoms: C_15  and  C_16
REMARK                            x       y       z     vdW  Elec       q    Type
REMARK                         _______ _______ _______ _____ _____    ______ ____
ROOT
ATOM      1  C   UNL     1       2.187   3.155  17.632  0.00  0.00    +0.000 C 
ATOM      2  N   UNL     1       2.247   4.591  17.846  0.00  0.00    +0.000 NA
ATOM      3  C   UNL     1       3.329   5.145  18.258  0.00  0.00    +0.000 C 
ATOM      4  N   UNL     1       4.528   4.526  18.452  0.00  0.00    +0.000 N 
ATOM      5  N   UNL     1       3.344   6.484  18.521  0.00  0.00    +0.000 N 
ATOM      6  H   UNL     1       4.554   3.552  18.196  0.00  0.00    +0.000 HD
ATOM      7  H   UNL     1       4.219   6.917  18.769  0.00  0.00    +0.000 HD
ENDROOT
BRANCH   4   8
ATOM      8  C   UNL     1       5.659   4.969  19.243  0.00  0.00    +0.000 C 
BRANCH   8   9
ATOM      9  C   UNL     1       6.712   5.630  18.359  0.00  0.00    +0.000 C 
BRANCH   9  10
ATOM     10  C   UNL     1       7.551   4.594  17.613  0.00  0.00    +0.000 C 
BRANCH  10  11
ATOM     11  C   UNL     1       7.167   4.558  16.184  0.00  0.00    +0.000 A 
ATOM     12  N   UNL     1       6.331   3.756  15.566  0.00  0.00    +0.000 NA
ATOM     13  C   UNL     1       6.329   4.275  14.297  0.00  0.00    +0.000 A 
ATOM     14  C   UNL     1       5.476   3.733  13.223  0.00  0.00    +0.000 C 
ATOM     15  N   UNL     1       7.130   5.333  14.115  0.00  0.00    +0.000 NA
ATOM     16  O   UNL     1       7.694   5.525  15.379  0.00  0.00    +0.000 OA
ENDBRANCH  10  11
ENDBRANCH   9  10
ENDBRANCH   8   9
ENDBRANCH   4   8
BRANCH   5  17
ATOM     17  C   UNL     1       2.387   7.413  17.948  0.00  0.00    +0.000 C 
BRANCH  17  18
ATOM     18  C   UNL     1       1.763   8.274  19.028  0.00  0.00    +0.000 A 
ATOM     19  C   UNL     1       1.689   7.816  20.355  0.00  0.00    +0.000 A 
ATOM     20  C   UNL     1       1.158   8.624  21.362  0.00  0.00    +0.000 A 
ATOM     21  C   UNL     1       0.702   9.897  21.044  0.00  0.00    +0.000 A 
ATOM     22  F   UNL     1       0.207  10.683  22.011  0.00  0.00    +0.000 F 
ATOM     23  C   UNL     1       0.758  10.371  19.739  0.00  0.00    +0.000 A 
ATOM     24  C   UNL     1       1.285   9.561  18.731  0.00  0.00    +0.000 A 
ENDBRANCH  17  18
ENDBRANCH   5  17
TORSDOF 6
ENDMDL
MODEL 6
REMARK VINA RESULT:      -7.3      2.057      2.543
REMARK  Name = 
REMARK  8 active torsions:
REMARK  status: ('A' for Active; 'I' for Inactive)
REMARK    1  A    between atoms: C_1  and  N_2
REMARK    2  A    between atoms: N_4  and  C_5
REMARK    3  A    between atoms: C_5  and  C_6
REMARK    4  A    between atoms: C_6  and  C_7
REMARK    5  A    between atoms: C_7  and  C_8
REMARK    6  A    between atoms: C_10  and  C_11
REMARK    7  A    between atoms: N_14  and  C_15
REMARK    8  A    between atoms: C_15  and  C_16
REMARK                            x       y       z     vdW  Elec       q    Type
REMARK                         _______ _______ _______ _____ _____    ______ ____
ROOT
ATOM      1  C   UNL     1       6.840   4.951  14.888  0.00  0.00    +0.000 C 
ATOM      2  N   UNL     1       5.883   5.377  15.894  0.00  0.00    +0.000 NA
ATOM      3  C   UNL     1       6.217   6.233  16.791  0.00  0.00    +0.000 C 
ATOM      4  N   UNL     1       7.406   6.894  16.871  0.00  0.00    +0.000 N 
ATOM      5  N   UNL     1       5.326   6.567  17.769  0.00  0.00    +0.000 N 
ATOM      6  H   UNL     1       8.049   6.712  16.117  0.00  0.00    +0.000 HD
ATOM      7  H   UNL     1       5.574   7.296  18.419  0.00  0.00    +0.000 HD
ENDROOT
BRANCH   4   8
ATOM      8  C   UNL     1       7.995   7.565  18.013  0.00  0.00    +0.000 C 
BRANCH   8   9
ATOM      9  C   UNL     1       8.075   9.069  17.774  0.00  0.00    +0.000 C 
BRANCH   9  10
ATOM     10  C   UNL     1       8.939   9.762  18.825  0.00  0.00    +0.000 C 
BRANCH  10  11
ATOM     11  C   UNL     1       9.397  11.077  18.325  0.00  0.00    +0.000 A 
ATOM     12  N   UNL     1       8.900  12.272  18.547  0.00  0.00    +0.000 NA
ATOM     13  C   UNL     1       9.804  13.078  17.902  0.00  0.00    +0.000 A 
ATOM     14  C   UNL     1       9.703  14.548  17.915  0.00  0.00    +0.000 C 
ATOM     15  N   UNL     1      10.806  12.431  17.293  0.00  0.00    +0.000 NA
ATOM     16  O   UNL     1      10.537  11.089  17.574  0.00  0.00    +0.000 OA
ENDBRANCH  10  11
ENDBRANCH   9  10
ENDBRANCH   8   9
ENDBRANCH   4   8
BRANCH   5  17
ATOM     17  C   UNL     1       3.892   6.391  17.627  0.00  0.00    +0.000 C 
BRANCH  17  18
ATOM     18  C   UNL     1       3.335   5.574  18.775  0.00  0.00    +0.000 A 
ATOM     19  C   UNL     1       2.381   6.125  19.649  0.00  0.00    +0.000 A 
ATOM     20  C   UNL     1       1.830   5.361  20.680  0.00  0.00    +0.000 A 
ATOM     21  C   UNL     1       2.230   4.040  20.838  0.00  0.00    +0.000 A 
ATOM     22  F   UNL     1       1.691   3.298  21.815  0.00  0.00    +0.000 F 
ATOM     23  C   UNL     1       3.176   3.474  19.992  0.00  0.00    +0.000 A 
ATOM     24  C   UNL     1       3.730   4.240  18.963  0.00  0.00    +0.000 A 
ENDBRANCH  17  18
ENDBRANCH   5  17
TORSDOF 6
ENDMDL
MODEL 7
REMARK VINA RESULT:      -7.3      4.293      6.042
REMARK  Name = 
REMARK  8 active torsions:
REMARK  status: ('A' for Active; 'I' for Inactive)
REMARK    1  A    between atoms: C_1  and  N_2
REMARK    2  A    between atoms: N_4  and  C_5
REMARK    3  A    between atoms: C_5  and  C_6
REMARK    4  A    between atoms: C_6  and  C_7
REMARK    5  A    between atoms: C_7  and  C_8
REMARK    6  A    between atoms: C_10  and  C_11
REMARK    7  A    between atoms: N_14  and  C_15
REMARK    8  A    between atoms: C_15  and  C_16
REMARK                            x       y       z     vdW  Elec       q    Type
REMARK                         _______ _______ _______ _____ _____    ______ ____
ROOT
ATOM      1  C   UNL     1       3.300   3.145  17.338  0.00  0.00    +0.000 C 
ATOM      2  N   UNL     1       3.110   4.280  18.224  0.00  0.00    +0.000 NA
ATOM      3  C   UNL     1       3.746   5.378  18.025  0.00  0.00    +0.000 C 
ATOM      4  N   UNL     1       4.566   5.654  16.971  0.00  0.00    +0.000 N 
ATOM      5  N   UNL     1       3.607   6.408  18.909  0.00  0.00    +0.000 N 
ATOM      6  H   UNL     1       4.624   4.930  16.273  0.00  0.00    +0.000 HD
ATOM      7  H   UNL     1       4.052   7.287  18.698  0.00  0.00    +0.000 HD
ENDROOT
BRANCH   4   8
ATOM      8  C   UNL     1       5.584   6.679  16.860  0.00  0.00    +0.000 C 
BRANCH   8   9
ATOM      9  C   UNL     1       6.909   6.189  17.434  0.00  0.00    +0.000 C 
BRANCH   9  10
ATOM     10  C   UNL     1       7.189   4.739  17.047  0.00  0.00    +0.000 C 
BRANCH  10  11
ATOM     11  C   UNL     1       7.027   4.559  15.587  0.00  0.00    +0.000 A 
ATOM     12  N   UNL     1       6.242   3.737  14.930  0.00  0.00    +0.000 NA
ATOM     13  C   UNL     1       6.471   4.106  13.629  0.00  0.00    +0.000 A 
ATOM     14  C   UNL     1       5.757   3.491  12.496  0.00  0.00    +0.000 C 
ATOM     15  N   UNL     1       7.363   5.092  13.469  0.00  0.00    +0.000 NA
ATOM     16  O   UNL     1       7.738   5.398  14.779  0.00  0.00    +0.000 OA
ENDBRANCH  10  11
ENDBRANCH   9  10
ENDBRANCH   8   9
ENDBRANCH   4   8
BRANCH   5  17
ATOM     17  C   UNL     1       2.466   6.542  19.796  0.00  0.00    +0.000 C 
BRANCH  17  18
ATOM     18  C   UNL     1       1.839   7.914  19.662  0.00  0.00    +0.000 A 
ATOM     19  C   UNL     1       1.872   8.599  18.434  0.00  0.00    +0.000 A 
ATOM     20  C   UNL     1       1.254   9.843  18.292  0.00  0.00    +0.000 A 
ATOM     21  C   UNL     1       0.598  10.406  19.380  0.00  0.00    +0.000 A 
ATOM     22  F   UNL     1      -0.012  11.591  19.244  0.00  0.00    +0.000 F 
ATOM     23  C   UNL     1       0.556   9.752  20.606  0.00  0.00    +0.000 A 
ATOM     24  C   UNL     1       1.178   8.509  20.748  0.00  0.00    +0.000 A 
ENDBRANCH  17  18
ENDBRANCH   5  17
TORSDOF 6
ENDMDL
MODEL 8
REMARK VINA RESULT:      -7.2      4.422      6.186
REMARK  Name = 
REMARK  8 active torsions:
REMARK  status: ('A' for Active; 'I' for Inactive)
REMARK    1  A    between atoms: C_1  and  N_2
REMARK    2  A    between atoms: N_4  and  C_5
REMARK    3  A    between atoms: C_5  and  C_6
REMARK    4  A    between atoms: C_6  and  C_7
REMARK    5  A    between atoms: C_7  and  C_8
REMARK    6  A    between atoms: C_10  and  C_11
REMARK    7  A    between atoms: N_14  and  C_15
REMARK    8  A    between atoms: C_15  and  C_16
REMARK                            x       y       z     vdW  Elec       q    Type
REMARK                         _______ _______ _______ _____ _____    ______ ____
ROOT
ATOM      1  C   UNL     1       4.044   2.846  19.666  0.00  0.00    +0.000 C 
ATOM      2  N   UNL     1       3.439   4.133  19.962  0.00  0.00    +0.000 NA
ATOM      3  C   UNL     1       3.733   5.169  19.262  0.00  0.00    +0.000 C 
ATOM      4  N   UNL     1       4.529   5.194  18.155  0.00  0.00    +0.000 N 
ATOM      5  N   UNL     1       3.209   6.383  19.599  0.00  0.00    +0.000 N 
ATOM      6  H   UNL     1       4.868   4.295  17.851  0.00  0.00    +0.000 HD
ATOM      7  H   UNL     1       3.388   7.170  18.996  0.00  0.00    +0.000 HD
ENDROOT
BRANCH   4   8
ATOM      8  C   UNL     1       5.199   6.326  17.547  0.00  0.00    +0.000 C 
BRANCH   8   9
ATOM      9  C   UNL     1       6.711   6.214  17.716  0.00  0.00    +0.000 C 
BRANCH   9  10
ATOM     10  C   UNL     1       7.224   4.839  17.294  0.00  0.00    +0.000 C 
BRANCH  10  11
ATOM     11  C   UNL     1       7.037   4.647  15.839  0.00  0.00    +0.000 A 
ATOM     12  N   UNL     1       6.243   3.817  15.204  0.00  0.00    +0.000 NA
ATOM     13  C   UNL     1       6.446   4.176  13.896  0.00  0.00    +0.000 A 
ATOM     14  C   UNL     1       5.715   3.549  12.781  0.00  0.00    +0.000 C 
ATOM     15  N   UNL     1       7.331   5.164  13.711  0.00  0.00    +0.000 NA
ATOM     16  O   UNL     1       7.729   5.483  15.012  0.00  0.00    +0.000 OA
ENDBRANCH  10  11
ENDBRANCH   9  10
ENDBRANCH   8   9
ENDBRANCH   4   8
BRANCH   5  17
ATOM     17  C   UNL     1       2.001   6.530  20.391  0.00  0.00    +0.000 C 
BRANCH  17  18
ATOM     18  C   UNL     1       1.474   7.949  20.307  0.00  0.00    +0.000 A 
ATOM     19  C   UNL     1       0.779   8.520  21.389  0.00  0.00    +0.000 A 
ATOM     20  C   UNL     1       0.334   9.841  21.334  0.00  0.00    +0.000 A 
ATOM     21  C   UNL     1       0.585  10.599  20.197  0.00  0.00    +0.000 A 
ATOM     22  F   UNL     1       0.175  11.874  20.148  0.00  0.00    +0.000 F 
ATOM     23  C   UNL     1       1.265  10.057  19.113  0.00  0.00    +0.000 A 
ATOM     24  C   UNL     1       1.707   8.732  19.166  0.00  0.00    +0.000 A 
ENDBRANCH  17  18
ENDBRANCH   5  17
TORSDOF 6
ENDMDL
MODEL 9
REMARK VINA RESULT:      -7.1      1.555      1.921
REMARK  Name = 
REMARK  8 active torsions:
REMARK  status: ('A' for Active; 'I' for Inactive)
REMARK    1  A    between atoms: C_1  and  N_2
REMARK    2  A    between atoms: N_4  and  C_5
REMARK    3  A    between atoms: C_5  and  C_6
REMARK    4  A    between atoms: C_6  and  C_7
REMARK    5  A    between atoms: C_7  and  C_8
REMARK    6  A    between atoms: C_10  and  C_11
REMARK    7  A    between atoms: N_14  and  C_15
REMARK    8  A    between atoms: C_15  and  C_16
REMARK                            x       y       z     vdW  Elec       q    Type
REMARK                         _______ _______ _______ _____ _____    ______ ____
ROOT
ATOM      1  C   UNL     1       7.560   5.133  13.725  0.00  0.00    +0.000 C 
ATOM      2  N   UNL     1       6.592   4.663  14.700  0.00  0.00    +0.000 NA
ATOM      3  C   UNL     1       6.492   5.232  15.847  0.00  0.00    +0.000 C 
ATOM      4  N   UNL     1       7.166   6.344  16.256  0.00  0.00    +0.000 N 
ATOM      5  N   UNL     1       5.626   4.731  16.775  0.00  0.00    +0.000 N 
ATOM      6  H   UNL     1       7.757   6.767  15.559  0.00  0.00    +0.000 HD
ATOM      7  H   UNL     1       5.503   5.233  17.640  0.00  0.00    +0.000 HD
ENDROOT
BRANCH   4   8
ATOM      8  C   UNL     1       7.396   6.818  17.606  0.00  0.00    +0.000 C 
BRANCH   8   9
ATOM      9  C   UNL     1       7.772   8.296  17.603  0.00  0.00    +0.000 C 
BRANCH   9  10
ATOM     10  C   UNL     1       8.772   8.625  18.709  0.00  0.00    +0.000 C 
BRANCH  10  11
ATOM     11  C   UNL     1       8.937  10.091  18.830  0.00  0.00    +0.000 A 
ATOM     12  N   UNL     1       9.384  10.799  19.842  0.00  0.00    +0.000 NA
ATOM     13  C   UNL     1       9.390  12.066  19.320  0.00  0.00    +0.000 A 
ATOM     14  C   UNL     1       9.878  13.232  20.078  0.00  0.00    +0.000 C 
ATOM     15  N   UNL     1       8.955  12.161  18.056  0.00  0.00    +0.000 NA
ATOM     16  O   UNL     1       8.650  10.838  17.725  0.00  0.00    +0.000 OA
ENDBRANCH  10  11
ENDBRANCH   9  10
ENDBRANCH   8   9
ENDBRANCH   4   8
BRANCH   5  17
ATOM     17  C   UNL     1       4.487   3.900  16.428  0.00  0.00    +0.000 C 
BRANCH  17  18
ATOM     18  C   UNL     1       3.432   3.955  17.515  0.00  0.00    +0.000 A 
ATOM     19  C   UNL     1       3.480   4.948  18.510  0.00  0.00    +0.000 A 
ATOM     20  C   UNL     1       2.484   5.031  19.485  0.00  0.00    +0.000 A 
ATOM     21  C   UNL     1       1.434   4.123  19.466  0.00  0.00    +0.000 A 
ATOM     22  F   UNL     1       0.467   4.210  20.389  0.00  0.00    +0.000 F 
ATOM     23  C   UNL     1       1.366   3.129  18.497  0.00  0.00    +0.000 A 
ATOM     24  C   UNL     1       2.365   3.043  17.523  0.00  0.00    +0.000 A 
ENDBRANCH  17  18
ENDBRANCH   5  17
TORSDOF 6
ENDMDL
