MODEL 1
REMARK VINA RESULT:      -8.1      0.000      0.000
REMARK  Name = 
REMARK  5 active torsions:
REMARK  status: ('A' for Active; 'I' for Inactive)
REMARK    1  A    between atoms: C_1  and  C_2
REMARK    2  A    between atoms: C_2  and  C_3
REMARK    3  A    between atoms: C_2  and  N_20
REMARK    4  A    between atoms: C_6  and  N_7
REMARK    5  A    between atoms: N_7  and  C_8
REMARK                            x       y       z     vdW  Elec       q    Type
REMARK                         _______ _______ _______ _____ _____    ______ ____
ROOT
ATOM      1  C   UNL     1       3.027   6.302  18.814  0.00  0.00    +0.000 A 
ATOM      2  C   UNL     1       2.352   6.606  20.004  0.00  0.00    +0.000 A 
ATOM      3  C   UNL     1       1.735   7.852  20.178  0.00  0.00    +0.000 A 
ATOM      4  C   UNL     1       1.801   8.833  19.183  0.00  0.00    +0.000 A 
ATOM      5  C   UNL     1       2.469   8.523  17.994  0.00  0.00    +0.000 A 
ATOM      6  C   UNL     1       3.086   7.283  17.814  0.00  0.00    +0.000 A 
ENDROOT
BRANCH   1   8
ATOM      7  C   UNL     1       4.207   4.824  17.139  0.00  0.00    +0.000 C 
ATOM      8  C   UNL     1       3.629   4.931  18.555  0.00  0.00    +0.000 C 
BRANCH   8   9
ATOM      9  N   UNL     1       2.692   3.863  18.896  0.00  0.00    +0.000 N 
ATOM     10  C   UNL     1       2.705   3.040  19.987  0.00  0.00    +0.000 A 
ATOM     11  C   UNL     1       1.558   2.286  19.885  0.00  0.00    +0.000 A 
ATOM     12  N   UNL     1       0.854   2.619  18.758  0.00  0.00    +0.000 NA
ATOM     13  C   UNL     1       1.562   3.563  18.180  0.00  0.00    +0.000 A 
ENDBRANCH   8   9
ENDBRANCH   1   8
BRANCH   4  14
ATOM     14  N   UNL     1       1.095  10.048  19.339  0.00  0.00    +0.000 N 
ATOM     15  H   UNL     1       1.666  10.839  19.048  0.00  0.00    +0.000 HD
BRANCH  14  16
ATOM     16  C   UNL     1      -0.247  10.315  18.968  0.00  0.00    +0.000 A 
ATOM     17  C   UNL     1      -1.009  11.152  19.789  0.00  0.00    +0.000 A 
ATOM     18  C   UNL     1      -2.272  11.590  19.387  0.00  0.00    +0.000 A 
ATOM     19  C   UNL     1      -2.794  11.216  18.140  0.00  0.00    +0.000 A 
ATOM     20  C   UNL     1      -4.019  11.720  17.676  0.00  0.00    +0.000 A 
ATOM     21  C   UNL     1      -4.514  11.348  16.425  0.00  0.00    +0.000 A 
ATOM     22  C   UNL     1      -3.809  10.440  15.639  0.00  0.00    +0.000 A 
ATOM     23  C   UNL     1      -2.589   9.933  16.086  0.00  0.00    +0.000 A 
ATOM     24  C   UNL     1      -2.054  10.334  17.320  0.00  0.00    +0.000 A 
ATOM     25  C   UNL     1      -0.784   9.904  17.743  0.00  0.00    +0.000 A 
ENDBRANCH  14  16
ENDBRANCH   4  14
TORSDOF 4
ENDMDL
MODEL 2
REMARK VINA RESULT:      -8.1      1.329      2.235
REMARK  Name = 
REMARK  5 active torsions:
REMARK  status: ('A' for Active; 'I' for Inactive)
REMARK    1  A    between atoms: C_1  and  C_2
REMARK    2  A    between atoms: C_2  and  C_3
REMARK    3  A    between atoms: C_2  and  N_20
REMARK    4  A    between atoms: C_6  and  N_7
REMARK    5  A    between atoms: N_7  and  C_8
REMARK                            x       y       z     vdW  Elec       q    Type
REMARK                         _______ _______ _______ _____ _____    ______ ____
ROOT
ATOM      1  C   UNL     1       2.462   7.265  19.295  0.00  0.00    +0.000 A 
ATOM      2  C   UNL     1       1.692   7.923  20.264  0.00  0.00    +0.000 A 
ATOM      3  C   UNL     1       1.023   9.115  19.957  0.00  0.00    +0.000 A 
ATOM      4  C   UNL     1       1.129   9.693  18.688  0.00  0.00    +0.000 A 
ATOM      5  C   UNL     1       1.891   9.030  17.721  0.00  0.00    +0.000 A 
ATOM      6  C   UNL     1       2.561   7.841  18.021  0.00  0.00    +0.000 A 
ENDROOT
BRANCH   1   8
ATOM      7  C   UNL     1       4.347   5.706  18.663  0.00  0.00    +0.000 C 
ATOM      8  C   UNL     1       3.126   5.925  19.565  0.00  0.00    +0.000 C 
BRANCH   8   9
ATOM      9  N   UNL     1       2.159   4.832  19.531  0.00  0.00    +0.000 N 
ATOM     10  C   UNL     1       1.729   4.114  18.450  0.00  0.00    +0.000 A 
ATOM     11  C   UNL     1       0.902   3.142  18.967  0.00  0.00    +0.000 A 
ATOM     12  N   UNL     1       0.809   3.255  20.328  0.00  0.00    +0.000 NA
ATOM     13  C   UNL     1       1.567   4.282  20.639  0.00  0.00    +0.000 A 
ENDBRANCH   8   9
ENDBRANCH   1   8
BRANCH   4  14
ATOM     14  N   UNL     1       0.372  10.845  18.370  0.00  0.00    +0.000 N 
ATOM     15  H   UNL     1       0.817  11.376  17.624  0.00  0.00    +0.000 HD
BRANCH  14  16
ATOM     16  C   UNL     1      -1.031  10.928  18.191  0.00  0.00    +0.000 A 
ATOM     17  C   UNL     1      -1.644  10.029  17.314  0.00  0.00    +0.000 A 
ATOM     18  C   UNL     1      -3.035   9.948  17.230  0.00  0.00    +0.000 A 
ATOM     19  C   UNL     1      -3.847  10.753  18.041  0.00  0.00    +0.000 A 
ATOM     20  C   UNL     1      -5.245  10.622  18.042  0.00  0.00    +0.000 A 
ATOM     21  C   UNL     1      -6.036  11.422  18.867  0.00  0.00    +0.000 A 
ATOM     22  C   UNL     1      -5.442  12.389  19.675  0.00  0.00    +0.000 A 
ATOM     23  C   UNL     1      -4.054  12.528  19.688  0.00  0.00    +0.000 A 
ATOM     24  C   UNL     1      -3.242  11.699  18.899  0.00  0.00    +0.000 A 
ATOM     25  C   UNL     1      -1.839  11.765  18.969  0.00  0.00    +0.000 A 
ENDBRANCH  14  16
ENDBRANCH   4  14
TORSDOF 4
ENDMDL
MODEL 3
REMARK VINA RESULT:      -8.0      0.863      1.450
REMARK  Name = 
REMARK  5 active torsions:
REMARK  status: ('A' for Active; 'I' for Inactive)
REMARK    1  A    between atoms: C_1  and  C_2
REMARK    2  A    between atoms: C_2  and  C_3
REMARK    3  A    between atoms: C_2  and  N_20
REMARK    4  A    between atoms: C_6  and  N_7
REMARK    5  A    between atoms: N_7  and  C_8
REMARK                            x       y       z     vdW  Elec       q    Type
REMARK                         _______ _______ _______ _____ _____    ______ ____
ROOT
ATOM      1  C   UNL     1       3.420   6.430  18.451  0.00  0.00    +0.000 A 
ATOM      2  C   UNL     1       3.322   7.488  17.536  0.00  0.00    +0.000 A 
ATOM      3  C   UNL     1       2.543   8.615  17.826  0.00  0.00    +0.000 A 
ATOM      4  C   UNL     1       1.821   8.702  19.021  0.00  0.00    +0.000 A 
ATOM      5  C   UNL     1       1.927   7.649  19.935  0.00  0.00    +0.000 A 
ATOM      6  C   UNL     1       2.703   6.522  19.652  0.00  0.00    +0.000 A 
ENDROOT
BRANCH   1   8
ATOM      7  C   UNL     1       5.159   5.404  16.932  0.00  0.00    +0.000 C 
ATOM      8  C   UNL     1       4.327   5.235  18.209  0.00  0.00    +0.000 C 
BRANCH   8   9
ATOM      9  N   UNL     1       3.584   3.979  18.271  0.00  0.00    +0.000 N 
ATOM     10  C   UNL     1       2.639   3.510  17.402  0.00  0.00    +0.000 A 
ATOM     11  C   UNL     1       2.328   2.247  17.855  0.00  0.00    +0.000 A 
ATOM     12  N   UNL     1       3.048   1.940  18.978  0.00  0.00    +0.000 NA
ATOM     13  C   UNL     1       3.787   3.001  19.210  0.00  0.00    +0.000 A 
ENDBRANCH   8   9
ENDBRANCH   1   8
BRANCH   4  14
ATOM     14  N   UNL     1       1.116   9.886  19.336  0.00  0.00    +0.000 N 
ATOM     15  H   UNL     1       1.691  10.708  19.161  0.00  0.00    +0.000 HD
BRANCH  14  16
ATOM     16  C   UNL     1      -0.222  10.206  18.993  0.00  0.00    +0.000 A 
ATOM     17  C   UNL     1      -0.943  11.049  19.845  0.00  0.00    +0.000 A 
ATOM     18  C   UNL     1      -2.197  11.537  19.473  0.00  0.00    +0.000 A 
ATOM     19  C   UNL     1      -2.750  11.209  18.227  0.00  0.00    +0.000 A 
ATOM     20  C   UNL     1      -3.964  11.763  17.794  0.00  0.00    +0.000 A 
ATOM     21  C   UNL     1      -4.492  11.437  16.544  0.00  0.00    +0.000 A 
ATOM     22  C   UNL     1      -3.830  10.523  15.727  0.00  0.00    +0.000 A 
ATOM     23  C   UNL     1      -2.620   9.967  16.142  0.00  0.00    +0.000 A 
ATOM     24  C   UNL     1      -2.053  10.322  17.376  0.00  0.00    +0.000 A 
ATOM     25  C   UNL     1      -0.791   9.841  17.768  0.00  0.00    +0.000 A 
ENDBRANCH  14  16
ENDBRANCH   4  14
TORSDOF 4
ENDMDL
MODEL 4
REMARK VINA RESULT:      -8.0      2.957      8.657
REMARK  Name = 
REMARK  5 active torsions:
REMARK  status: ('A' for Active; 'I' for Inactive)
REMARK    1  A    between atoms: C_1  and  C_2
REMARK    2  A    between atoms: C_2  and  C_3
REMARK    3  A    between atoms: C_2  and  N_20
REMARK    4  A    between atoms: C_6  and  N_7
REMARK    5  A    between atoms: N_7  and  C_8
REMARK                            x       y       z     vdW  Elec       q    Type
REMARK                         _______ _______ _______ _____ _____    ______ ____
ROOT
ATOM      1  C   UNL     1      -0.862  11.174  21.659  0.00  0.00    +0.000 A 
ATOM      2  C   UNL     1      -0.445  10.441  22.779  0.00  0.00    +0.000 A 
ATOM      3  C   UNL     1       0.433   9.359  22.639  0.00  0.00    +0.000 A 
ATOM      4  C   UNL     1       0.893   8.964  21.378  0.00  0.00    +0.000 A 
ATOM      5  C   UNL     1       0.481   9.701  20.264  0.00  0.00    +0.000 A 
ATOM      6  C   UNL     1      -0.395  10.782  20.397  0.00  0.00    +0.000 A 
ENDROOT
BRANCH   1   8
ATOM      7  C   UNL     1      -2.466  12.720  20.469  0.00  0.00    +0.000 C 
ATOM      8  C   UNL     1      -1.741  12.407  21.783  0.00  0.00    +0.000 C 
BRANCH   8   9
ATOM      9  N   UNL     1      -1.000  13.538  22.336  0.00  0.00    +0.000 N 
ATOM     10  C   UNL     1      -0.033  14.293  21.734  0.00  0.00    +0.000 A 
ATOM     11  C   UNL     1       0.267  15.286  22.639  0.00  0.00    +0.000 A 
ATOM     12  N   UNL     1      -0.483  15.150  23.777  0.00  0.00    +0.000 NA
ATOM     13  C   UNL     1      -1.229  14.088  23.570  0.00  0.00    +0.000 A 
ENDBRANCH   8   9
ENDBRANCH   1   8
BRANCH   4  14
ATOM     14  N   UNL     1       1.851   7.929  21.267  0.00  0.00    +0.000 N 
ATOM     15  H   UNL     1       2.063   7.532  22.181  0.00  0.00    +0.000 HD
BRANCH  14  16
ATOM     16  C   UNL     1       1.873   6.879  20.316  0.00  0.00    +0.000 A 
ATOM     17  C   UNL     1       2.519   7.100  19.096  0.00  0.00    +0.000 A 
ATOM     18  C   UNL     1       2.725   6.054  18.196  0.00  0.00    +0.000 A 
ATOM     19  C   UNL     1       2.307   4.752  18.507  0.00  0.00    +0.000 A 
ATOM     20  C   UNL     1       2.587   3.668  17.660  0.00  0.00    +0.000 A 
ATOM     21  C   UNL     1       2.176   2.377  17.994  0.00  0.00    +0.000 A 
ATOM     22  C   UNL     1       1.448   2.159  19.161  0.00  0.00    +0.000 A 
ATOM     23  C   UNL     1       1.165   3.225  20.015  0.00  0.00    +0.000 A 
ATOM     24  C   UNL     1       1.613   4.522  19.716  0.00  0.00    +0.000 A 
ATOM     25  C   UNL     1       1.415   5.589  20.610  0.00  0.00    +0.000 A 
ENDBRANCH  14  16
ENDBRANCH   4  14
TORSDOF 4
ENDMDL
MODEL 5
REMARK VINA RESULT:      -7.9      1.755      2.838
REMARK  Name = 
REMARK  5 active torsions:
REMARK  status: ('A' for Active; 'I' for Inactive)
REMARK    1  A    between atoms: C_1  and  C_2
REMARK    2  A    between atoms: C_2  and  C_3
REMARK    3  A    between atoms: C_2  and  N_20
REMARK    4  A    between atoms: C_6  and  N_7
REMARK    5  A    between atoms: N_7  and  C_8
REMARK                            x       y       z     vdW  Elec       q    Type
REMARK                         _______ _______ _______ _____ _____    ______ ____
ROOT
ATOM      1  C   UNL     1       3.452   5.771  18.561  0.00  0.00    +0.000 A 
ATOM      2  C   UNL     1       3.598   6.820  17.642  0.00  0.00    +0.000 A 
ATOM      3  C   UNL     1       2.958   8.048  17.849  0.00  0.00    +0.000 A 
ATOM      4  C   UNL     1       2.133   8.250  18.961  0.00  0.00    +0.000 A 
ATOM      5  C   UNL     1       1.995   7.205  19.880  0.00  0.00    +0.000 A 
ATOM      6  C   UNL     1       2.631   5.978  19.679  0.00  0.00    +0.000 A 
ENDROOT
BRANCH   1   8
ATOM      7  C   UNL     1       3.971   3.537  19.618  0.00  0.00    +0.000 C 
ATOM      8  C   UNL     1       4.203   4.459  18.415  0.00  0.00    +0.000 C 
BRANCH   8   9
ATOM      9  N   UNL     1       5.612   4.682  18.102  0.00  0.00    +0.000 N 
ATOM     10  C   UNL     1       6.611   5.098  18.937  0.00  0.00    +0.000 A 
ATOM     11  C   UNL     1       7.760   5.049  18.180  0.00  0.00    +0.000 A 
ATOM     12  N   UNL     1       7.487   4.625  16.907  0.00  0.00    +0.000 NA
ATOM     13  C   UNL     1       6.189   4.420  16.886  0.00  0.00    +0.000 A 
ENDBRANCH   8   9
ENDBRANCH   1   8
BRANCH   4  14
ATOM     14  N   UNL     1       1.570   9.525  19.201  0.00  0.00    +0.000 N 
ATOM     15  H   UNL     1       2.177  10.262  18.847  0.00  0.00    +0.000 HD
BRANCH  14  16
ATOM     16  C   UNL     1       0.227   9.924  18.990  0.00  0.00    +0.000 A 
ATOM     17  C   UNL     1      -0.378  10.750  19.942  0.00  0.00    +0.000 A 
ATOM     18  C   UNL     1      -1.633  11.315  19.704  0.00  0.00    +0.000 A 
ATOM     19  C   UNL     1      -2.303  11.082  18.494  0.00  0.00    +0.000 A 
ATOM     20  C   UNL     1      -3.519  11.714  18.195  0.00  0.00    +0.000 A 
ATOM     21  C   UNL     1      -4.164  11.481  16.980  0.00  0.00    +0.000 A 
ATOM     22  C   UNL     1      -3.619  10.585  16.063  0.00  0.00    +0.000 A 
ATOM     23  C   UNL     1      -2.408   9.952  16.346  0.00  0.00    +0.000 A 
ATOM     24  C   UNL     1      -1.724  10.212  17.543  0.00  0.00    +0.000 A 
ATOM     25  C   UNL     1      -0.460   9.653  17.801  0.00  0.00    +0.000 A 
ENDBRANCH  14  16
ENDBRANCH   4  14
TORSDOF 4
ENDMDL
MODEL 6
REMARK VINA RESULT:      -7.9      1.724      2.876
REMARK  Name = 
REMARK  5 active torsions:
REMARK  status: ('A' for Active; 'I' for Inactive)
REMARK    1  A    between atoms: C_1  and  C_2
REMARK    2  A    between atoms: C_2  and  C_3
REMARK    3  A    between atoms: C_2  and  N_20
REMARK    4  A    between atoms: C_6  and  N_7
REMARK    5  A    between atoms: N_7  and  C_8
REMARK                            x       y       z     vdW  Elec       q    Type
REMARK                         _______ _______ _______ _____ _____    ______ ____
ROOT
ATOM      1  C   UNL     1       3.309   6.593  18.160  0.00  0.00    +0.000 A 
ATOM      2  C   UNL     1       3.147   7.717  17.337  0.00  0.00    +0.000 A 
ATOM      3  C   UNL     1       2.383   8.810  17.762  0.00  0.00    +0.000 A 
ATOM      4  C   UNL     1       1.737   8.798  19.003  0.00  0.00    +0.000 A 
ATOM      5  C   UNL     1       1.906   7.679  19.824  0.00  0.00    +0.000 A 
ATOM      6  C   UNL     1       2.668   6.585  19.406  0.00  0.00    +0.000 A 
ENDROOT
BRANCH   1   8
ATOM      7  C   UNL     1       3.564   4.080  18.119  0.00  0.00    +0.000 C 
ATOM      8  C   UNL     1       4.204   5.429  17.769  0.00  0.00    +0.000 C 
BRANCH   8   9
ATOM      9  N   UNL     1       5.557   5.597  18.293  0.00  0.00    +0.000 N 
ATOM     10  C   UNL     1       6.587   6.324  17.763  0.00  0.00    +0.000 A 
ATOM     11  C   UNL     1       7.604   6.235  18.686  0.00  0.00    +0.000 A 
ATOM     12  N   UNL     1       7.227   5.468  19.756  0.00  0.00    +0.000 NA
ATOM     13  C   UNL     1       5.996   5.091  19.489  0.00  0.00    +0.000 A 
ENDBRANCH   8   9
ENDBRANCH   1   8
BRANCH   4  14
ATOM     14  N   UNL     1       1.047   9.948  19.453  0.00  0.00    +0.000 N 
ATOM     15  H   UNL     1       1.629  10.779  19.362  0.00  0.00    +0.000 HD
BRANCH  14  16
ATOM     16  C   UNL     1      -0.290  10.315  19.161  0.00  0.00    +0.000 A 
ATOM     17  C   UNL     1      -0.927  11.231  20.004  0.00  0.00    +0.000 A 
ATOM     18  C   UNL     1      -2.175  11.761  19.672  0.00  0.00    +0.000 A 
ATOM     19  C   UNL     1      -2.806  11.402  18.473  0.00  0.00    +0.000 A 
ATOM     20  C   UNL     1      -4.015  11.993  18.073  0.00  0.00    +0.000 A 
ATOM     21  C   UNL     1      -4.621  11.634  16.869  0.00  0.00    +0.000 A 
ATOM     22  C   UNL     1      -4.045  10.652  16.066  0.00  0.00    +0.000 A 
ATOM     23  C   UNL     1      -2.842  10.058  16.448  0.00  0.00    +0.000 A 
ATOM     24  C   UNL     1      -2.196  10.443  17.633  0.00  0.00    +0.000 A 
ATOM     25  C   UNL     1      -0.939   9.921  17.985  0.00  0.00    +0.000 A 
ENDBRANCH  14  16
ENDBRANCH   4  14
TORSDOF 4
ENDMDL
MODEL 7
REMARK VINA RESULT:      -7.9      1.647      2.564
REMARK  Name = 
REMARK  5 active torsions:
REMARK  status: ('A' for Active; 'I' for Inactive)
REMARK    1  A    between atoms: C_1  and  C_2
REMARK    2  A    between atoms: C_2  and  C_3
REMARK    3  A    between atoms: C_2  and  N_20
REMARK    4  A    between atoms: C_6  and  N_7
REMARK    5  A    between atoms: N_7  and  C_8
REMARK                            x       y       z     vdW  Elec       q    Type
REMARK                         _______ _______ _______ _____ _____    ______ ____
ROOT
ATOM      1  C   UNL     1       3.318   6.033  18.231  0.00  0.00    +0.000 A 
ATOM      2  C   UNL     1       2.514   6.175  19.370  0.00  0.00    +0.000 A 
ATOM      3  C   UNL     1       1.922   7.406  19.679  0.00  0.00    +0.000 A 
ATOM      4  C   UNL     1       2.140   8.531  18.876  0.00  0.00    +0.000 A 
ATOM      5  C   UNL     1       2.937   8.384  17.736  0.00  0.00    +0.000 A 
ATOM      6  C   UNL     1       3.530   7.159  17.422  0.00  0.00    +0.000 A 
ENDROOT
BRANCH   1   8
ATOM      7  C   UNL     1       3.451   3.565  18.754  0.00  0.00    +0.000 C 
ATOM      8  C   UNL     1       3.901   4.692  17.816  0.00  0.00    +0.000 C 
BRANCH   8   9
ATOM      9  N   UNL     1       5.348   4.771  17.635  0.00  0.00    +0.000 N 
ATOM     10  C   UNL     1       6.308   5.021  18.576  0.00  0.00    +0.000 A 
ATOM     11  C   UNL     1       7.507   4.886  17.914  0.00  0.00    +0.000 A 
ATOM     12  N   UNL     1       7.304   4.573  16.596  0.00  0.00    +0.000 NA
ATOM     13  C   UNL     1       5.999   4.518  16.455  0.00  0.00    +0.000 A 
ENDBRANCH   8   9
ENDBRANCH   1   8
BRANCH   4  14
ATOM     14  N   UNL     1       1.460   9.740  19.152  0.00  0.00    +0.000 N 
ATOM     15  H   UNL     1       2.024  10.543  18.878  0.00  0.00    +0.000 HD
BRANCH  14  16
ATOM     16  C   UNL     1       0.103  10.043  18.880  0.00  0.00    +0.000 A 
ATOM     17  C   UNL     1      -0.603  10.818  19.805  0.00  0.00    +0.000 A 
ATOM     18  C   UNL     1      -1.882  11.294  19.511  0.00  0.00    +0.000 A 
ATOM     19  C   UNL     1      -2.478  11.020  18.271  0.00  0.00    +0.000 A 
ATOM     20  C   UNL     1      -3.721  11.565  17.918  0.00  0.00    +0.000 A 
ATOM     21  C   UNL     1      -4.291  11.294  16.674  0.00  0.00    +0.000 A 
ATOM     22  C   UNL     1      -3.642  10.444  15.781  0.00  0.00    +0.000 A 
ATOM     23  C   UNL     1      -2.404   9.897  16.117  0.00  0.00    +0.000 A 
ATOM     24  C   UNL     1      -1.795  10.199  17.346  0.00  0.00    +0.000 A 
ATOM     25  C   UNL     1      -0.507   9.730  17.660  0.00  0.00    +0.000 A 
ENDBRANCH  14  16
ENDBRANCH   4  14
TORSDOF 4
ENDMDL
MODEL 8
REMARK VINA RESULT:      -7.9      2.000      8.254
REMARK  Name = 
REMARK  5 active torsions:
REMARK  status: ('A' for Active; 'I' for Inactive)
REMARK    1  A    between atoms: C_1  and  C_2
REMARK    2  A    between atoms: C_2  and  C_3
REMARK    3  A    between atoms: C_2  and  N_20
REMARK    4  A    between atoms: C_6  and  N_7
REMARK    5  A    between atoms: N_7  and  C_8
REMARK                            x       y       z     vdW  Elec       q    Type
REMARK                         _______ _______ _______ _____ _____    ______ ____
ROOT
ATOM      1  C   UNL     1       0.691   9.954  19.218  0.00  0.00    +0.000 A 
ATOM      2  C   UNL     1       0.656   9.248  20.428  0.00  0.00    +0.000 A 
ATOM      3  C   UNL     1       1.398   8.072  20.592  0.00  0.00    +0.000 A 
ATOM      4  C   UNL     1       2.170   7.556  19.545  0.00  0.00    +0.000 A 
ATOM      5  C   UNL     1       2.208   8.266  18.341  0.00  0.00    +0.000 A 
ATOM      6  C   UNL     1       1.470   9.440  18.171  0.00  0.00    +0.000 A 
ENDROOT
BRANCH   1   8
ATOM      7  C   UNL     1       0.079  12.159  20.286  0.00  0.00    +0.000 C 
ATOM      8  C   UNL     1      -0.029  11.279  19.035  0.00  0.00    +0.000 C 
BRANCH   8   9
ATOM      9  N   UNL     1      -1.398  11.084  18.564  0.00  0.00    +0.000 N 
ATOM     10  C   UNL     1      -1.888  10.081  17.776  0.00  0.00    +0.000 A 
ATOM     11  C   UNL     1      -3.245  10.303  17.710  0.00  0.00    +0.000 A 
ATOM     12  N   UNL     1      -3.593  11.417  18.427  0.00  0.00    +0.000 NA
ATOM     13  C   UNL     1      -2.463  11.870  18.922  0.00  0.00    +0.000 A 
ENDBRANCH   8   9
ENDBRANCH   1   8
BRANCH   4  14
ATOM     14  N   UNL     1       2.984   6.420  19.759  0.00  0.00    +0.000 N 
ATOM     15  H   UNL     1       2.547   5.781  20.421  0.00  0.00    +0.000 HD
BRANCH  14  16
ATOM     16  C   UNL     1       3.654   5.646  18.779  0.00  0.00    +0.000 A 
ATOM     17  C   UNL     1       2.954   4.605  18.162  0.00  0.00    +0.000 A 
ATOM     18  C   UNL     1       3.500   3.924  17.072  0.00  0.00    +0.000 A 
ATOM     19  C   UNL     1       4.753   4.287  16.559  0.00  0.00    +0.000 A 
ATOM     20  C   UNL     1       5.279   3.681  15.407  0.00  0.00    +0.000 A 
ATOM     21  C   UNL     1       6.522   4.066  14.903  0.00  0.00    +0.000 A 
ATOM     22  C   UNL     1       7.271   5.036  15.564  0.00  0.00    +0.000 A 
ATOM     23  C   UNL     1       6.760   5.649  16.708  0.00  0.00    +0.000 A 
ATOM     24  C   UNL     1       5.491   5.307  17.201  0.00  0.00    +0.000 A 
ATOM     25  C   UNL     1       4.925   5.980  18.297  0.00  0.00    +0.000 A 
ENDBRANCH  14  16
ENDBRANCH   4  14
TORSDOF 4
ENDMDL
MODEL 9
REMARK VINA RESULT:      -7.8      1.099      2.285
REMARK  Name = 
REMARK  5 active torsions:
REMARK  status: ('A' for Active; 'I' for Inactive)
REMARK    1  A    between atoms: C_1  and  C_2
REMARK    2  A    between atoms: C_2  and  C_3
REMARK    3  A    between atoms: C_2  and  N_20
REMARK    4  A    between atoms: C_6  and  N_7
REMARK    5  A    between atoms: N_7  and  C_8
REMARK                            x       y       z     vdW  Elec       q    Type
REMARK                         _______ _______ _______ _____ _____    ______ ____
ROOT
ATOM      1  C   UNL     1       2.668   6.590  19.301  0.00  0.00    +0.000 A 
ATOM      2  C   UNL     1       2.719   7.239  18.059  0.00  0.00    +0.000 A 
ATOM      3  C   UNL     1       2.104   8.484  17.876  0.00  0.00    +0.000 A 
ATOM      4  C   UNL     1       1.399   9.097  18.918  0.00  0.00    +0.000 A 
ATOM      5  C   UNL     1       1.356   8.451  20.157  0.00  0.00    +0.000 A 
ATOM      6  C   UNL     1       1.968   7.210  20.345  0.00  0.00    +0.000 A 
ENDROOT
BRANCH   1   8
ATOM      7  C   UNL     1       4.908   5.422  19.312  0.00  0.00    +0.000 C 
ATOM      8  C   UNL     1       3.401   5.285  19.560  0.00  0.00    +0.000 C 
BRANCH   8   9
ATOM      9  N   UNL     1       2.781   4.173  18.844  0.00  0.00    +0.000 N 
ATOM     10  C   UNL     1       3.377   3.250  18.031  0.00  0.00    +0.000 A 
ATOM     11  C   UNL     1       2.377   2.367  17.692  0.00  0.00    +0.000 A 
ATOM     12  N   UNL     1       1.189   2.731  18.267  0.00  0.00    +0.000 NA
ATOM     13  C   UNL     1       1.459   3.823  18.946  0.00  0.00    +0.000 A 
ENDBRANCH   8   9
ENDBRANCH   1   8
BRANCH   4  14
ATOM     14  N   UNL     1       0.864  10.395  18.741  0.00  0.00    +0.000 N 
ATOM     15  H   UNL     1       1.440  10.940  18.103  0.00  0.00    +0.000 HD
BRANCH  14  16
ATOM     16  C   UNL     1      -0.491  10.741  18.515  0.00  0.00    +0.000 A 
ATOM     17  C   UNL     1      -1.196  10.054  17.521  0.00  0.00    +0.000 A 
ATOM     18  C   UNL     1      -2.573  10.228  17.371  0.00  0.00    +0.000 A 
ATOM     19  C   UNL     1      -3.282  11.080  18.230  0.00  0.00    +0.000 A 
ATOM     20  C   UNL     1      -4.679  11.197  18.159  0.00  0.00    +0.000 A 
ATOM     21  C   UNL     1      -5.369  12.038  19.032  0.00  0.00    +0.000 A 
ATOM     22  C   UNL     1      -4.668  12.801  19.963  0.00  0.00    +0.000 A 
ATOM     23  C   UNL     1      -3.281  12.692  20.048  0.00  0.00    +0.000 A 
ATOM     24  C   UNL     1      -2.576  11.815  19.209  0.00  0.00    +0.000 A 
ATOM     25  C   UNL     1      -1.190  11.626  19.344  0.00  0.00    +0.000 A 
ENDBRANCH  14  16
ENDBRANCH   4  14
TORSDOF 4
ENDMDL
