MODEL 1
REMARK VINA RESULT:      -6.8      0.000      0.000
REMARK  Name = 
REMARK  10 active torsions:
REMARK  status: ('A' for Active; 'I' for Inactive)
REMARK    1  A    between atoms: C_1  and  O_2
REMARK    2  A    between atoms: O_2  and  C_3
REMARK    3  A    between atoms: C_3  and  C_4
REMARK    4  A    between atoms: C_4  and  C_5
REMARK    5  A    between atoms: N_7  and  C_8
REMARK    6  A    between atoms: N_7  and  C_18
REMARK    7  A    between atoms: C_8  and  C_9
REMARK    8  A    between atoms: C_18  and  C_19
REMARK    9  A    between atoms: C_18  and  C_28
REMARK   10  A    between atoms: N_21  and  C_22
REMARK                            x       y       z     vdW  Elec       q    Type
REMARK                         _______ _______ _______ _____ _____    ______ ____
ROOT
ATOM      1  C   UNL     1      -1.006  10.564  18.218  0.00  0.00    +0.000 C 
ATOM      2  O   UNL     1      -1.014   9.675  17.360  0.00  0.00    +0.000 OA
ATOM      3  N   UNL     1       0.171  10.959  18.885  0.00  0.00    +0.000 N 
ENDROOT
BRANCH   1   4
ATOM      4  C   UNL     1      -2.278  11.301  18.610  0.00  0.00    +0.000 C 
BRANCH   4   5
ATOM      5  C   UNL     1      -3.376  11.444  17.566  0.00  0.00    +0.000 C 
BRANCH   5   7
ATOM      6  C   UNL     1      -5.763  11.412  17.725  0.00  0.00    +0.000 C 
ATOM      7  O   UNL     1      -4.539  10.853  18.171  0.00  0.00    +0.000 OA
ENDBRANCH   5   7
ENDBRANCH   4   5
ENDBRANCH   1   4
BRANCH   3   8
ATOM      8  C   UNL     1       1.477  10.423  18.448  0.00  0.00    +0.000 C 
BRANCH   8   9
ATOM      9  C   UNL     1       1.775   9.002  18.886  0.00  0.00    +0.000 A 
ATOM     10  C   UNL     1       1.434   8.571  20.193  0.00  0.00    +0.000 A 
ATOM     11  C   UNL     1       1.660   7.252  20.610  0.00  0.00    +0.000 A 
ATOM     12  C   UNL     1       2.262   6.396  19.717  0.00  0.00    +0.000 A 
ATOM     13  C   UNL     1       2.661   6.818  18.472  0.00  0.00    +0.000 A 
ATOM     14  C   UNL     1       2.433   8.106  18.027  0.00  0.00    +0.000 A 
ATOM     15  O   UNL     1       3.280   5.830  17.770  0.00  0.00    +0.000 OA
ATOM     16  C   UNL     1       3.265   4.757  18.735  0.00  0.00    +0.000 C 
ATOM     17  O   UNL     1       2.539   5.083  19.938  0.00  0.00    +0.000 OA
ENDBRANCH   8   9
ENDBRANCH   3   8
BRANCH   3  18
ATOM     18  C   UNL     1       0.207  12.196  19.716  0.00  0.00    +0.000 C 
BRANCH  18  19
ATOM     19  C   UNL     1       1.449  13.059  19.472  0.00  0.00    +0.000 A 
ATOM     20  C   UNL     1       1.757  13.627  18.228  0.00  0.00    +0.000 A 
ATOM     21  C   UNL     1       2.885  14.424  18.109  0.00  0.00    +0.000 A 
ATOM     22  N   UNL     1       3.717  14.702  19.131  0.00  0.00    +0.000 NA
ATOM     23  C   UNL     1       3.406  14.161  20.326  0.00  0.00    +0.000 A 
ATOM     24  C   UNL     1       2.294  13.360  20.546  0.00  0.00    +0.000 A 
ENDBRANCH  18  19
BRANCH  18  25
ATOM     25  C   UNL     1      -0.077  11.924  21.220  0.00  0.00    +0.000 C 
ATOM     26  O   UNL     1       0.533  11.102  21.896  0.00  0.00    +0.000 OA
ATOM     27  N   UNL     1      -1.043  12.762  21.751  0.00  0.00    +0.000 N 
ATOM     28  H   UNL     1      -1.674  13.211  21.094  0.00  0.00    +0.000 HD
BRANCH  27  29
ATOM     29  C   UNL     1      -1.419  12.739  23.161  0.00  0.00    +0.000 C 
ATOM     30  C   UNL     1      -1.452  14.150  23.773  0.00  0.00    +0.000 C 
ATOM     31  C   UNL     1      -2.537  15.018  23.137  0.00  0.00    +0.000 C 
ATOM     32  C   UNL     1      -3.909  14.360  23.245  0.00  0.00    +0.000 C 
ATOM     33  C   UNL     1      -3.912  12.930  22.710  0.00  0.00    +0.000 C 
ATOM     34  C   UNL     1      -2.797  12.082  23.327  0.00  0.00    +0.000 C 
ENDBRANCH  27  29
ENDBRANCH  18  25
ENDBRANCH   3  18
TORSDOF 9
ENDMDL
MODEL 2
REMARK VINA RESULT:      -6.6      0.828      1.576
REMARK  Name = 
REMARK  10 active torsions:
REMARK  status: ('A' for Active; 'I' for Inactive)
REMARK    1  A    between atoms: C_1  and  O_2
REMARK    2  A    between atoms: O_2  and  C_3
REMARK    3  A    between atoms: C_3  and  C_4
REMARK    4  A    between atoms: C_4  and  C_5
REMARK    5  A    between atoms: N_7  and  C_8
REMARK    6  A    between atoms: N_7  and  C_18
REMARK    7  A    between atoms: C_8  and  C_9
REMARK    8  A    between atoms: C_18  and  C_19
REMARK    9  A    between atoms: C_18  and  C_28
REMARK   10  A    between atoms: N_21  and  C_22
REMARK                            x       y       z     vdW  Elec       q    Type
REMARK                         _______ _______ _______ _____ _____    ______ ____
ROOT
ATOM      1  C   UNL     1      -0.996  10.732  18.261  0.00  0.00    +0.000 C 
ATOM      2  O   UNL     1      -0.911   9.871  17.379  0.00  0.00    +0.000 OA
ATOM      3  N   UNL     1       0.131  11.214  18.957  0.00  0.00    +0.000 N 
ENDROOT
BRANCH   1   4
ATOM      4  C   UNL     1      -2.336  11.339  18.652  0.00  0.00    +0.000 C 
BRANCH   4   5
ATOM      5  C   UNL     1      -3.591  10.806  17.976  0.00  0.00    +0.000 C 
BRANCH   5   7
ATOM      6  C   UNL     1      -3.741  10.885  15.589  0.00  0.00    +0.000 C 
ATOM      7  O   UNL     1      -3.750  11.621  16.801  0.00  0.00    +0.000 OA
ENDBRANCH   5   7
ENDBRANCH   4   5
ENDBRANCH   1   4
BRANCH   3   8
ATOM      8  C   UNL     1       1.486  10.811  18.527  0.00  0.00    +0.000 C 
BRANCH   8   9
ATOM      9  C   UNL     1       1.826   9.349  18.737  0.00  0.00    +0.000 A 
ATOM     10  C   UNL     1       2.523   8.626  17.734  0.00  0.00    +0.000 A 
ATOM     11  C   UNL     1       2.886   7.286  17.919  0.00  0.00    +0.000 A 
ATOM     12  C   UNL     1       2.508   6.679  19.095  0.00  0.00    +0.000 A 
ATOM     13  C   UNL     1       1.773   7.346  20.045  0.00  0.00    +0.000 A 
ATOM     14  C   UNL     1       1.418   8.673  19.899  0.00  0.00    +0.000 A 
ATOM     15  O   UNL     1       1.462   6.550  21.105  0.00  0.00    +0.000 OA
ATOM     16  C   UNL     1       2.046   5.298  20.687  0.00  0.00    +0.000 C 
ATOM     17  O   UNL     1       2.789   5.399  19.455  0.00  0.00    +0.000 OA
ENDBRANCH   8   9
ENDBRANCH   3   8
BRANCH   3  18
ATOM     18  C   UNL     1       0.042  12.425  19.821  0.00  0.00    +0.000 C 
BRANCH  18  19
ATOM     19  C   UNL     1       1.211  13.397  19.632  0.00  0.00    +0.000 A 
ATOM     20  C   UNL     1       2.381  13.350  20.404  0.00  0.00    +0.000 A 
ATOM     21  C   UNL     1       3.403  14.250  20.138  0.00  0.00    +0.000 A 
ATOM     22  N   UNL     1       3.349  15.177  19.164  0.00  0.00    +0.000 NA
ATOM     23  C   UNL     1       2.225  15.206  18.419  0.00  0.00    +0.000 A 
ATOM     24  C   UNL     1       1.155  14.342  18.602  0.00  0.00    +0.000 A 
ENDBRANCH  18  19
BRANCH  18  25
ATOM     25  C   UNL     1      -0.252  12.087  21.311  0.00  0.00    +0.000 C 
ATOM     26  O   UNL     1       0.349  11.231  21.951  0.00  0.00    +0.000 OA
ATOM     27  N   UNL     1      -1.216  12.906  21.873  0.00  0.00    +0.000 N 
ATOM     28  H   UNL     1      -1.840  13.388  21.234  0.00  0.00    +0.000 HD
BRANCH  27  29
ATOM     29  C   UNL     1      -1.601  12.821  23.279  0.00  0.00    +0.000 C 
ATOM     30  C   UNL     1      -1.713  14.210  23.931  0.00  0.00    +0.000 C 
ATOM     31  C   UNL     1      -2.839  15.037  23.312  0.00  0.00    +0.000 C 
ATOM     32  C   UNL     1      -4.174  14.304  23.388  0.00  0.00    +0.000 C 
ATOM     33  C   UNL     1      -4.097  12.891  22.812  0.00  0.00    +0.000 C 
ATOM     34  C   UNL     1      -2.942  12.086  23.413  0.00  0.00    +0.000 C 
ENDBRANCH  27  29
ENDBRANCH  18  25
ENDBRANCH   3  18
TORSDOF 9
ENDMDL
MODEL 3
REMARK VINA RESULT:      -6.6      0.569      1.187
REMARK  Name = 
REMARK  10 active torsions:
REMARK  status: ('A' for Active; 'I' for Inactive)
REMARK    1  A    between atoms: C_1  and  O_2
REMARK    2  A    between atoms: O_2  and  C_3
REMARK    3  A    between atoms: C_3  and  C_4
REMARK    4  A    between atoms: C_4  and  C_5
REMARK    5  A    between atoms: N_7  and  C_8
REMARK    6  A    between atoms: N_7  and  C_18
REMARK    7  A    between atoms: C_8  and  C_9
REMARK    8  A    between atoms: C_18  and  C_19
REMARK    9  A    between atoms: C_18  and  C_28
REMARK   10  A    between atoms: N_21  and  C_22
REMARK                            x       y       z     vdW  Elec       q    Type
REMARK                         _______ _______ _______ _____ _____    ______ ____
ROOT
ATOM      1  C   UNL     1      -0.892  10.600  18.258  0.00  0.00    +0.000 C 
ATOM      2  O   UNL     1      -0.830   9.724  17.389  0.00  0.00    +0.000 OA
ATOM      3  N   UNL     1       0.252  11.080  18.928  0.00  0.00    +0.000 N 
ENDROOT
BRANCH   1   4
ATOM      4  C   UNL     1      -2.218  11.229  18.658  0.00  0.00    +0.000 C 
BRANCH   4   5
ATOM      5  C   UNL     1      -3.280  11.411  17.584  0.00  0.00    +0.000 C 
BRANCH   5   7
ATOM      6  C   UNL     1      -5.633  11.358  18.018  0.00  0.00    +0.000 C 
ATOM      7  O   UNL     1      -4.407  10.647  18.049  0.00  0.00    +0.000 OA
ENDBRANCH   5   7
ENDBRANCH   4   5
ENDBRANCH   1   4
BRANCH   3   8
ATOM      8  C   UNL     1       1.596  10.654  18.484  0.00  0.00    +0.000 C 
BRANCH   8   9
ATOM      9  C   UNL     1       1.920   9.190  18.709  0.00  0.00    +0.000 A 
ATOM     10  C   UNL     1       2.619   8.453  17.719  0.00  0.00    +0.000 A 
ATOM     11  C   UNL     1       2.968   7.111  17.919  0.00  0.00    +0.000 A 
ATOM     12  C   UNL     1       2.574   6.517  19.096  0.00  0.00    +0.000 A 
ATOM     13  C   UNL     1       1.836   7.198  20.033  0.00  0.00    +0.000 A 
ATOM     14  C   UNL     1       1.495   8.528  19.873  0.00  0.00    +0.000 A 
ATOM     15  O   UNL     1       1.509   6.414  21.097  0.00  0.00    +0.000 OA
ATOM     16  C   UNL     1       2.085   5.154  20.694  0.00  0.00    +0.000 C 
ATOM     17  O   UNL     1       2.840   5.237  19.469  0.00  0.00    +0.000 OA
ENDBRANCH   8   9
ENDBRANCH   3   8
BRANCH   3  18
ATOM     18  C   UNL     1       0.190  12.306  19.774  0.00  0.00    +0.000 C 
BRANCH  18  19
ATOM     19  C   UNL     1       1.389  13.240  19.581  0.00  0.00    +0.000 A 
ATOM     20  C   UNL     1       1.548  14.064  18.458  0.00  0.00    +0.000 A 
ATOM     21  C   UNL     1       2.650  14.904  18.387  0.00  0.00    +0.000 A 
ATOM     22  N   UNL     1       3.590  14.989  19.346  0.00  0.00    +0.000 NA
ATOM     23  C   UNL     1       3.422  14.202  20.427  0.00  0.00    +0.000 A 
ATOM     24  C   UNL     1       2.349  13.338  20.595  0.00  0.00    +0.000 A 
ENDBRANCH  18  19
BRANCH  18  25
ATOM     25  C   UNL     1      -0.128  11.999  21.265  0.00  0.00    +0.000 C 
ATOM     26  O   UNL     1       0.404  11.101  21.908  0.00  0.00    +0.000 OA
ATOM     27  N   UNL     1      -1.023  12.895  21.824  0.00  0.00    +0.000 N 
ATOM     28  H   UNL     1      -1.607  13.422  21.184  0.00  0.00    +0.000 HD
BRANCH  27  29
ATOM     29  C   UNL     1      -1.411  12.847  23.231  0.00  0.00    +0.000 C 
ATOM     30  C   UNL     1      -1.579  14.254  23.831  0.00  0.00    +0.000 C 
ATOM     31  C   UNL     1      -2.732  15.014  23.177  0.00  0.00    +0.000 C 
ATOM     32  C   UNL     1      -4.039  14.235  23.276  0.00  0.00    +0.000 C 
ATOM     33  C   UNL     1      -3.906  12.806  22.753  0.00  0.00    +0.000 C 
ATOM     34  C   UNL     1      -2.724  12.068  23.388  0.00  0.00    +0.000 C 
ENDBRANCH  27  29
ENDBRANCH  18  25
ENDBRANCH   3  18
TORSDOF 9
ENDMDL
MODEL 4
REMARK VINA RESULT:      -6.5      0.949      1.102
REMARK  Name = 
REMARK  10 active torsions:
REMARK  status: ('A' for Active; 'I' for Inactive)
REMARK    1  A    between atoms: C_1  and  O_2
REMARK    2  A    between atoms: O_2  and  C_3
REMARK    3  A    between atoms: C_3  and  C_4
REMARK    4  A    between atoms: C_4  and  C_5
REMARK    5  A    between atoms: N_7  and  C_8
REMARK    6  A    between atoms: N_7  and  C_18
REMARK    7  A    between atoms: C_8  and  C_9
REMARK    8  A    between atoms: C_18  and  C_19
REMARK    9  A    between atoms: C_18  and  C_28
REMARK   10  A    between atoms: N_21  and  C_22
REMARK                            x       y       z     vdW  Elec       q    Type
REMARK                         _______ _______ _______ _____ _____    ______ ____
ROOT
ATOM      1  C   UNL     1      -1.303  10.570  18.105  0.00  0.00    +0.000 C 
ATOM      2  O   UNL     1      -1.170   9.642  17.300  0.00  0.00    +0.000 OA
ATOM      3  N   UNL     1      -0.218  11.101  18.831  0.00  0.00    +0.000 N 
ENDROOT
BRANCH   1   4
ATOM      4  C   UNL     1      -2.659  11.210  18.361  0.00  0.00    +0.000 C 
BRANCH   4   5
ATOM      5  C   UNL     1      -3.826  10.801  17.474  0.00  0.00    +0.000 C 
BRANCH   5   7
ATOM      6  C   UNL     1      -3.562  10.525  15.112  0.00  0.00    +0.000 C 
ATOM      7  O   UNL     1      -3.561  11.426  16.206  0.00  0.00    +0.000 OA
ENDBRANCH   5   7
ENDBRANCH   4   5
ENDBRANCH   1   4
BRANCH   3   8
ATOM      8  C   UNL     1       1.158  10.661  18.521  0.00  0.00    +0.000 C 
BRANCH   8   9
ATOM      9  C   UNL     1       1.522   9.273  19.009  0.00  0.00    +0.000 A 
ATOM     10  C   UNL     1       1.193   8.870  20.329  0.00  0.00    +0.000 A 
ATOM     11  C   UNL     1       1.481   7.580  20.792  0.00  0.00    +0.000 A 
ATOM     12  C   UNL     1       2.131   6.724  19.933  0.00  0.00    +0.000 A 
ATOM     13  C   UNL     1       2.517   7.122  18.676  0.00  0.00    +0.000 A 
ATOM     14  C   UNL     1       2.230   8.382  18.186  0.00  0.00    +0.000 A 
ATOM     15  O   UNL     1       3.189   6.142  18.012  0.00  0.00    +0.000 OA
ATOM     16  C   UNL     1       3.219   5.104  19.014  0.00  0.00    +0.000 C 
ATOM     17  O   UNL     1       2.470   5.435  20.201  0.00  0.00    +0.000 OA
ENDBRANCH   8   9
ENDBRANCH   3   8
BRANCH   3  18
ATOM     18  C   UNL     1      -0.351  12.376  19.591  0.00  0.00    +0.000 C 
BRANCH  18  19
ATOM     19  C   UNL     1       0.626  13.464  19.134  0.00  0.00    +0.000 A 
ATOM     20  C   UNL     1       0.239  14.788  18.885  0.00  0.00    +0.000 A 
ATOM     21  C   UNL     1       1.201  15.714  18.508  0.00  0.00    +0.000 A 
ATOM     22  N   UNL     1       2.508  15.422  18.370  0.00  0.00    +0.000 NA
ATOM     23  C   UNL     1       2.872  14.149  18.623  0.00  0.00    +0.000 A 
ATOM     24  C   UNL     1       1.986  13.156  19.017  0.00  0.00    +0.000 A 
ENDBRANCH  18  19
BRANCH  18  25
ATOM     25  C   UNL     1      -0.372  12.165  21.132  0.00  0.00    +0.000 C 
ATOM     26  O   UNL     1       0.540  11.643  21.764  0.00  0.00    +0.000 OA
ATOM     27  N   UNL     1      -1.497  12.698  21.738  0.00  0.00    +0.000 N 
ATOM     28  H   UNL     1      -2.304  12.863  21.146  0.00  0.00    +0.000 HD
BRANCH  27  29
ATOM     29  C   UNL     1      -1.695  12.684  23.184  0.00  0.00    +0.000 C 
ATOM     30  C   UNL     1      -1.490  14.075  23.808  0.00  0.00    +0.000 C 
ATOM     31  C   UNL     1      -2.539  15.074  23.323  0.00  0.00    +0.000 C 
ATOM     32  C   UNL     1      -3.953  14.572  23.597  0.00  0.00    +0.000 C 
ATOM     33  C   UNL     1      -4.186  13.163  23.053  0.00  0.00    +0.000 C 
ATOM     34  C   UNL     1      -3.107  12.181  23.517  0.00  0.00    +0.000 C 
ENDBRANCH  27  29
ENDBRANCH  18  25
ENDBRANCH   3  18
TORSDOF 9
ENDMDL
MODEL 5
REMARK VINA RESULT:      -6.5      1.173      1.639
REMARK  Name = 
REMARK  10 active torsions:
REMARK  status: ('A' for Active; 'I' for Inactive)
REMARK    1  A    between atoms: C_1  and  O_2
REMARK    2  A    between atoms: O_2  and  C_3
REMARK    3  A    between atoms: C_3  and  C_4
REMARK    4  A    between atoms: C_4  and  C_5
REMARK    5  A    between atoms: N_7  and  C_8
REMARK    6  A    between atoms: N_7  and  C_18
REMARK    7  A    between atoms: C_8  and  C_9
REMARK    8  A    between atoms: C_18  and  C_19
REMARK    9  A    between atoms: C_18  and  C_28
REMARK   10  A    between atoms: N_21  and  C_22
REMARK                            x       y       z     vdW  Elec       q    Type
REMARK                         _______ _______ _______ _____ _____    ______ ____
ROOT
ATOM      1  C   UNL     1      -1.290  10.662  18.177  0.00  0.00    +0.000 C 
ATOM      2  O   UNL     1      -1.003   9.827  17.313  0.00  0.00    +0.000 OA
ATOM      3  N   UNL     1      -0.315  11.263  18.999  0.00  0.00    +0.000 N 
ENDROOT
BRANCH   1   4
ATOM      4  C   UNL     1      -2.727  11.106  18.407  0.00  0.00    +0.000 C 
BRANCH   4   5
ATOM      5  C   UNL     1      -3.810  10.530  17.506  0.00  0.00    +0.000 C 
BRANCH   5   7
ATOM      6  C   UNL     1      -3.529  10.524  15.130  0.00  0.00    +0.000 C 
ATOM      7  O   UNL     1      -3.732  11.303  16.297  0.00  0.00    +0.000 OA
ENDBRANCH   5   7
ENDBRANCH   4   5
ENDBRANCH   1   4
BRANCH   3   8
ATOM      8  C   UNL     1       1.119  11.025  18.732  0.00  0.00    +0.000 C 
BRANCH   8   9
ATOM      9  C   UNL     1       1.572   9.584  18.861  0.00  0.00    +0.000 A 
ATOM     10  C   UNL     1       2.303   8.968  17.812  0.00  0.00    +0.000 A 
ATOM     11  C   UNL     1       2.770   7.652  17.923  0.00  0.00    +0.000 A 
ATOM     12  C   UNL     1       2.462   6.960  19.071  0.00  0.00    +0.000 A 
ATOM     13  C   UNL     1       1.696   7.519  20.065  0.00  0.00    +0.000 A 
ATOM     14  C   UNL     1       1.239   8.821  19.992  0.00  0.00    +0.000 A 
ATOM     15  O   UNL     1       1.467   6.650  21.087  0.00  0.00    +0.000 OA
ATOM     16  C   UNL     1       2.136   5.469  20.596  0.00  0.00    +0.000 C 
ATOM     17  O   UNL     1       2.846   5.688  19.360  0.00  0.00    +0.000 OA
ENDBRANCH   8   9
ENDBRANCH   3   8
BRANCH   3  18
ATOM     18  C   UNL     1      -0.644  12.445  19.845  0.00  0.00    +0.000 C 
BRANCH  18  19
ATOM     19  C   UNL     1       0.349  13.601  19.690  0.00  0.00    +0.000 A 
ATOM     20  C   UNL     1       0.169  14.651  18.779  0.00  0.00    +0.000 A 
ATOM     21  C   UNL     1       1.104  15.675  18.732  0.00  0.00    +0.000 A 
ATOM     22  N   UNL     1       2.190  15.733  19.526  0.00  0.00    +0.000 NA
ATOM     23  C   UNL     1       2.348  14.726  20.408  0.00  0.00    +0.000 A 
ATOM     24  C   UNL     1       1.462  13.666  20.537  0.00  0.00    +0.000 A 
ENDBRANCH  18  19
BRANCH  18  25
ATOM     25  C   UNL     1      -0.937  12.070  21.326  0.00  0.00    +0.000 C 
ATOM     26  O   UNL     1      -0.537  11.043  21.864  0.00  0.00    +0.000 OA
ATOM     27  N   UNL     1      -1.635  13.051  22.007  0.00  0.00    +0.000 N 
ATOM     28  H   UNL     1      -2.151  13.722  21.447  0.00  0.00    +0.000 HD
BRANCH  27  29
ATOM     29  C   UNL     1      -1.956  12.949  23.428  0.00  0.00    +0.000 C 
ATOM     30  C   UNL     1      -1.901  14.315  24.132  0.00  0.00    +0.000 C 
ATOM     31  C   UNL     1      -2.971  15.269  23.601  0.00  0.00    +0.000 C 
ATOM     32  C   UNL     1      -4.366  14.664  23.723  0.00  0.00    +0.000 C 
ATOM     33  C   UNL     1      -4.454  13.274  23.097  0.00  0.00    +0.000 C 
ATOM     34  C   UNL     1      -3.354  12.340  23.608  0.00  0.00    +0.000 C 
ENDBRANCH  27  29
ENDBRANCH  18  25
ENDBRANCH   3  18
TORSDOF 9
ENDMDL
MODEL 6
REMARK VINA RESULT:      -6.4      1.405      1.814
REMARK  Name = 
REMARK  10 active torsions:
REMARK  status: ('A' for Active; 'I' for Inactive)
REMARK    1  A    between atoms: C_1  and  O_2
REMARK    2  A    between atoms: O_2  and  C_3
REMARK    3  A    between atoms: C_3  and  C_4
REMARK    4  A    between atoms: C_4  and  C_5
REMARK    5  A    between atoms: N_7  and  C_8
REMARK    6  A    between atoms: N_7  and  C_18
REMARK    7  A    between atoms: C_8  and  C_9
REMARK    8  A    between atoms: C_18  and  C_19
REMARK    9  A    between atoms: C_18  and  C_28
REMARK   10  A    between atoms: N_21  and  C_22
REMARK                            x       y       z     vdW  Elec       q    Type
REMARK                         _______ _______ _______ _____ _____    ______ ____
ROOT
ATOM      1  C   UNL     1      -1.593  10.573  18.046  0.00  0.00    +0.000 C 
ATOM      2  O   UNL     1      -1.179   9.746  17.227  0.00  0.00    +0.000 OA
ATOM      3  N   UNL     1      -0.737  11.233  18.950  0.00  0.00    +0.000 N 
ENDROOT
BRANCH   1   4
ATOM      4  C   UNL     1      -3.067  10.940  18.129  0.00  0.00    +0.000 C 
BRANCH   4   5
ATOM      5  C   UNL     1      -3.746  11.476  16.877  0.00  0.00    +0.000 C 
BRANCH   5   7
ATOM      6  C   UNL     1      -3.494  10.389  14.760  0.00  0.00    +0.000 C 
ATOM      7  O   UNL     1      -4.015  10.312  16.076  0.00  0.00    +0.000 OA
ENDBRANCH   5   7
ENDBRANCH   4   5
ENDBRANCH   1   4
BRANCH   3   8
ATOM      8  C   UNL     1       0.727  11.070  18.827  0.00  0.00    +0.000 C 
BRANCH   8   9
ATOM      9  C   UNL     1       1.257   9.690  19.161  0.00  0.00    +0.000 A 
ATOM     10  C   UNL     1       1.023   9.125  20.441  0.00  0.00    +0.000 A 
ATOM     11  C   UNL     1       1.467   7.835  20.762  0.00  0.00    +0.000 A 
ATOM     12  C   UNL     1       2.173   7.146  19.802  0.00  0.00    +0.000 A 
ATOM     13  C   UNL     1       2.467   7.708  18.584  0.00  0.00    +0.000 A 
ATOM     14  C   UNL     1       2.027   8.970  18.233  0.00  0.00    +0.000 A 
ATOM     15  O   UNL     1       3.216   6.880  17.805  0.00  0.00    +0.000 OA
ATOM     16  C   UNL     1       3.397   5.758  18.695  0.00  0.00    +0.000 C 
ATOM     17  O   UNL     1       2.661   5.883  19.928  0.00  0.00    +0.000 OA
ENDBRANCH   8   9
ENDBRANCH   3   8
BRANCH   3  18
ATOM     18  C   UNL     1      -1.209  12.404  19.743  0.00  0.00    +0.000 C 
BRANCH  18  19
ATOM     19  C   UNL     1      -0.190  13.545  19.812  0.00  0.00    +0.000 A 
ATOM     20  C   UNL     1       0.699  13.716  20.882  0.00  0.00    +0.000 A 
ATOM     21  C   UNL     1       1.612  14.760  20.843  0.00  0.00    +0.000 A 
ATOM     22  N   UNL     1       1.709  15.631  19.822  0.00  0.00    +0.000 NA
ATOM     23  C   UNL     1       0.858  15.452  18.792  0.00  0.00    +0.000 A 
ATOM     24  C   UNL     1      -0.081  14.432  18.735  0.00  0.00    +0.000 A 
ENDBRANCH  18  19
BRANCH  18  25
ATOM     25  C   UNL     1      -1.792  12.004  21.128  0.00  0.00    +0.000 C 
ATOM     26  O   UNL     1      -1.307  11.140  21.852  0.00  0.00    +0.000 OA
ATOM     27  N   UNL     1      -2.876  12.777  21.505  0.00  0.00    +0.000 N 
ATOM     28  H   UNL     1      -3.371  13.266  20.767  0.00  0.00    +0.000 HD
BRANCH  27  29
ATOM     29  C   UNL     1      -3.538  12.630  22.798  0.00  0.00    +0.000 C 
ATOM     30  C   UNL     1      -2.909  13.532  23.874  0.00  0.00    +0.000 C 
ATOM     31  C   UNL     1      -3.098  15.014  23.552  0.00  0.00    +0.000 C 
ATOM     32  C   UNL     1      -4.573  15.358  23.365  0.00  0.00    +0.000 C 
ATOM     33  C   UNL     1      -5.260  14.444  22.353  0.00  0.00    +0.000 C 
ATOM     34  C   UNL     1      -5.031  12.963  22.666  0.00  0.00    +0.000 C 
ENDBRANCH  27  29
ENDBRANCH  18  25
ENDBRANCH   3  18
TORSDOF 9
ENDMDL
MODEL 7
REMARK VINA RESULT:      -6.3      1.262      1.395
REMARK  Name = 
REMARK  10 active torsions:
REMARK  status: ('A' for Active; 'I' for Inactive)
REMARK    1  A    between atoms: C_1  and  O_2
REMARK    2  A    between atoms: O_2  and  C_3
REMARK    3  A    between atoms: C_3  and  C_4
REMARK    4  A    between atoms: C_4  and  C_5
REMARK    5  A    between atoms: N_7  and  C_8
REMARK    6  A    between atoms: N_7  and  C_18
REMARK    7  A    between atoms: C_8  and  C_9
REMARK    8  A    between atoms: C_18  and  C_19
REMARK    9  A    between atoms: C_18  and  C_28
REMARK   10  A    between atoms: N_21  and  C_22
REMARK                            x       y       z     vdW  Elec       q    Type
REMARK                         _______ _______ _______ _____ _____    ______ ____
ROOT
ATOM      1  C   UNL     1      -1.704  10.732  18.003  0.00  0.00    +0.000 C 
ATOM      2  O   UNL     1      -1.401   9.912  17.129  0.00  0.00    +0.000 OA
ATOM      3  N   UNL     1      -0.744  11.314  18.855  0.00  0.00    +0.000 N 
ENDROOT
BRANCH   1   4
ATOM      4  C   UNL     1      -3.144  11.175  18.212  0.00  0.00    +0.000 C 
BRANCH   4   5
ATOM      5  C   UNL     1      -4.177  10.775  17.168  0.00  0.00    +0.000 C 
BRANCH   5   7
ATOM      6  C   UNL     1      -5.288  12.142  18.788  0.00  0.00    +0.000 C 
ATOM      7  O   UNL     1      -5.359  11.517  17.518  0.00  0.00    +0.000 OA
ENDBRANCH   5   7
ENDBRANCH   4   5
ENDBRANCH   1   4
BRANCH   3   8
ATOM      8  C   UNL     1       0.694  11.077  18.613  0.00  0.00    +0.000 C 
BRANCH   8   9
ATOM      9  C   UNL     1       1.208   9.715  19.035  0.00  0.00    +0.000 A 
ATOM     10  C   UNL     1       0.971   9.238  20.350  0.00  0.00    +0.000 A 
ATOM     11  C   UNL     1       1.398   7.967  20.755  0.00  0.00    +0.000 A 
ATOM     12  C   UNL     1       2.093   7.207  19.841  0.00  0.00    +0.000 A 
ATOM     13  C   UNL     1       2.391   7.683  18.588  0.00  0.00    +0.000 A 
ATOM     14  C   UNL     1       1.965   8.924  18.155  0.00  0.00    +0.000 A 
ATOM     15  O   UNL     1       3.127   6.796  17.864  0.00  0.00    +0.000 OA
ATOM     16  C   UNL     1       3.295   5.732  18.825  0.00  0.00    +0.000 C 
ATOM     17  O   UNL     1       2.565   5.949  20.049  0.00  0.00    +0.000 OA
ENDBRANCH   8   9
ENDBRANCH   3   8
BRANCH   3  18
ATOM     18  C   UNL     1      -1.087  12.482  19.716  0.00  0.00    +0.000 C 
BRANCH  18  19
ATOM     19  C   UNL     1       0.038  13.516  19.818  0.00  0.00    +0.000 A 
ATOM     20  C   UNL     1       0.220  14.547  18.886  0.00  0.00    +0.000 A 
ATOM     21  C   UNL     1       1.246  15.460  19.079  0.00  0.00    +0.000 A 
ATOM     22  N   UNL     1       2.092  15.426  20.126  0.00  0.00    +0.000 NA
ATOM     23  C   UNL     1       1.901  14.438  21.023  0.00  0.00    +0.000 A 
ATOM     24  C   UNL     1       0.897  13.486  20.923  0.00  0.00    +0.000 A 
ENDBRANCH  18  19
BRANCH  18  25
ATOM     25  C   UNL     1      -1.679  12.067  21.093  0.00  0.00    +0.000 C 
ATOM     26  O   UNL     1      -1.206  11.188  21.806  0.00  0.00    +0.000 OA
ATOM     27  N   UNL     1      -2.757  12.846  21.477  0.00  0.00    +0.000 N 
ATOM     28  H   UNL     1      -3.245  13.351  20.744  0.00  0.00    +0.000 HD
BRANCH  27  29
ATOM     29  C   UNL     1      -3.425  12.687  22.766  0.00  0.00    +0.000 C 
ATOM     30  C   UNL     1      -2.877  13.659  23.824  0.00  0.00    +0.000 C 
ATOM     31  C   UNL     1      -3.166  15.115  23.459  0.00  0.00    +0.000 C 
ATOM     32  C   UNL     1      -4.658  15.349  23.244  0.00  0.00    +0.000 C 
ATOM     33  C   UNL     1      -5.265  14.361  22.249  0.00  0.00    +0.000 C 
ATOM     34  C   UNL     1      -4.936  12.909  22.606  0.00  0.00    +0.000 C 
ENDBRANCH  27  29
ENDBRANCH  18  25
ENDBRANCH   3  18
TORSDOF 9
ENDMDL
MODEL 8
REMARK VINA RESULT:      -6.3      2.454      4.975
REMARK  Name = 
REMARK  10 active torsions:
REMARK  status: ('A' for Active; 'I' for Inactive)
REMARK    1  A    between atoms: C_1  and  O_2
REMARK    2  A    between atoms: O_2  and  C_3
REMARK    3  A    between atoms: C_3  and  C_4
REMARK    4  A    between atoms: C_4  and  C_5
REMARK    5  A    between atoms: N_7  and  C_8
REMARK    6  A    between atoms: N_7  and  C_18
REMARK    7  A    between atoms: C_8  and  C_9
REMARK    8  A    between atoms: C_18  and  C_19
REMARK    9  A    between atoms: C_18  and  C_28
REMARK   10  A    between atoms: N_21  and  C_22
REMARK                            x       y       z     vdW  Elec       q    Type
REMARK                         _______ _______ _______ _____ _____    ______ ____
ROOT
ATOM      1  C   UNL     1       1.352   8.385  20.697  0.00  0.00    +0.000 C 
ATOM      2  O   UNL     1       1.543   7.166  20.751  0.00  0.00    +0.000 OA
ATOM      3  N   UNL     1       1.241   9.078  19.475  0.00  0.00    +0.000 N 
ENDROOT
BRANCH   1   4
ATOM      4  C   UNL     1       1.216   9.225  21.959  0.00  0.00    +0.000 C 
BRANCH   4   5
ATOM      5  C   UNL     1      -0.096   9.160  22.726  0.00  0.00    +0.000 C 
BRANCH   5   7
ATOM      6  C   UNL     1      -1.298  11.206  23.031  0.00  0.00    +0.000 C 
ATOM      7  O   UNL     1      -0.182  10.420  23.414  0.00  0.00    +0.000 OA
ENDBRANCH   5   7
ENDBRANCH   4   5
ENDBRANCH   1   4
BRANCH   3   8
ATOM      8  C   UNL     1       1.186   8.323  18.205  0.00  0.00    +0.000 C 
BRANCH   8   9
ATOM      9  C   UNL     1       2.341   7.371  17.966  0.00  0.00    +0.000 A 
ATOM     10  C   UNL     1       2.134   5.969  18.023  0.00  0.00    +0.000 A 
ATOM     11  C   UNL     1       3.174   5.066  17.765  0.00  0.00    +0.000 A 
ATOM     12  C   UNL     1       4.418   5.587  17.492  0.00  0.00    +0.000 A 
ATOM     13  C   UNL     1       4.649   6.941  17.502  0.00  0.00    +0.000 A 
ATOM     14  C   UNL     1       3.639   7.855  17.733  0.00  0.00    +0.000 A 
ATOM     15  O   UNL     1       5.954   7.240  17.258  0.00  0.00    +0.000 OA
ATOM     16  C   UNL     1       6.521   5.918  17.142  0.00  0.00    +0.000 C 
ATOM     17  O   UNL     1       5.534   4.868  17.199  0.00  0.00    +0.000 OA
ENDBRANCH   8   9
ENDBRANCH   3   8
BRANCH   3  18
ATOM     18  C   UNL     1       0.756  10.487  19.430  0.00  0.00    +0.000 C 
BRANCH  18  19
ATOM     19  C   UNL     1      -0.632  10.634  18.798  0.00  0.00    +0.000 A 
ATOM     20  C   UNL     1      -1.622  11.486  19.309  0.00  0.00    +0.000 A 
ATOM     21  C   UNL     1      -2.838  11.581  18.649  0.00  0.00    +0.000 A 
ATOM     22  N   UNL     1      -3.136  10.902  17.525  0.00  0.00    +0.000 NA
ATOM     23  C   UNL     1      -2.174  10.095  17.035  0.00  0.00    +0.000 A 
ATOM     24  C   UNL     1      -0.923   9.943  17.616  0.00  0.00    +0.000 A 
ENDBRANCH  18  19
BRANCH  18  25
ATOM     25  C   UNL     1       1.810  11.474  18.854  0.00  0.00    +0.000 C 
ATOM     26  O   UNL     1       2.503  11.239  17.869  0.00  0.00    +0.000 OA
ATOM     27  N   UNL     1       1.839  12.687  19.519  0.00  0.00    +0.000 N 
ATOM     28  H   UNL     1       1.449  12.708  20.456  0.00  0.00    +0.000 HD
BRANCH  27  29
ATOM     29  C   UNL     1       2.697  13.793  19.106  0.00  0.00    +0.000 C 
ATOM     30  C   UNL     1       1.884  15.006  18.622  0.00  0.00    +0.000 C 
ATOM     31  C   UNL     1       1.050  15.614  19.749  0.00  0.00    +0.000 C 
ATOM     32  C   UNL     1       1.922  16.000  20.940  0.00  0.00    +0.000 C 
ATOM     33  C   UNL     1       2.801  14.845  21.416  0.00  0.00    +0.000 C 
ATOM     34  C   UNL     1       3.602  14.220  20.271  0.00  0.00    +0.000 C 
ENDBRANCH  27  29
ENDBRANCH  18  25
ENDBRANCH   3  18
TORSDOF 9
ENDMDL
MODEL 9
REMARK VINA RESULT:      -6.2      2.119      5.247
REMARK  Name = 
REMARK  10 active torsions:
REMARK  status: ('A' for Active; 'I' for Inactive)
REMARK    1  A    between atoms: C_1  and  O_2
REMARK    2  A    between atoms: O_2  and  C_3
REMARK    3  A    between atoms: C_3  and  C_4
REMARK    4  A    between atoms: C_4  and  C_5
REMARK    5  A    between atoms: N_7  and  C_8
REMARK    6  A    between atoms: N_7  and  C_18
REMARK    7  A    between atoms: C_8  and  C_9
REMARK    8  A    between atoms: C_18  and  C_19
REMARK    9  A    between atoms: C_18  and  C_28
REMARK   10  A    between atoms: N_21  and  C_22
REMARK                            x       y       z     vdW  Elec       q    Type
REMARK                         _______ _______ _______ _____ _____    ______ ____
ROOT
ATOM      1  C   UNL     1       0.641  12.974  20.484  0.00  0.00    +0.000 C 
ATOM      2  O   UNL     1       1.654  12.483  20.993  0.00  0.00    +0.000 OA
ATOM      3  N   UNL     1      -0.486  12.197  20.146  0.00  0.00    +0.000 N 
ENDROOT
BRANCH   1   4
ATOM      4  C   UNL     1       0.540  14.464  20.194  0.00  0.00    +0.000 C 
BRANCH   4   5
ATOM      5  C   UNL     1       1.393  15.036  19.070  0.00  0.00    +0.000 C 
BRANCH   5   7
ATOM      6  C   UNL     1      -0.464  16.456  18.560  0.00  0.00    +0.000 C 
ATOM      7  O   UNL     1       0.912  16.379  18.891  0.00  0.00    +0.000 OA
ENDBRANCH   5   7
ENDBRANCH   4   5
ENDBRANCH   1   4
BRANCH   3   8
ATOM      8  C   UNL     1      -0.546  10.777  20.550  0.00  0.00    +0.000 C 
BRANCH   8   9
ATOM      9  C   UNL     1       0.415   9.855  19.826  0.00  0.00    +0.000 A 
ATOM     10  C   UNL     1       0.790  10.123  18.485  0.00  0.00    +0.000 A 
ATOM     11  C   UNL     1       1.708   9.311  17.806  0.00  0.00    +0.000 A 
ATOM     12  C   UNL     1       2.207   8.216  18.475  0.00  0.00    +0.000 A 
ATOM     13  C   UNL     1       1.800   7.905  19.749  0.00  0.00    +0.000 A 
ATOM     14  C   UNL     1       0.912   8.698  20.450  0.00  0.00    +0.000 A 
ATOM     15  O   UNL     1       2.375   6.758  20.205  0.00  0.00    +0.000 OA
ATOM     16  C   UNL     1       3.149   6.364  19.052  0.00  0.00    +0.000 C 
ATOM     17  O   UNL     1       3.118   7.333  17.985  0.00  0.00    +0.000 OA
ENDBRANCH   8   9
ENDBRANCH   3   8
BRANCH   3  18
ATOM     18  C   UNL     1      -1.781  12.838  19.781  0.00  0.00    +0.000 C 
BRANCH  18  19
ATOM     19  C   UNL     1      -2.665  13.161  20.990  0.00  0.00    +0.000 A 
ATOM     20  C   UNL     1      -2.686  12.383  22.155  0.00  0.00    +0.000 A 
ATOM     21  C   UNL     1      -3.492  12.772  23.214  0.00  0.00    +0.000 A 
ATOM     22  N   UNL     1      -4.266  13.874  23.201  0.00  0.00    +0.000 NA
ATOM     23  C   UNL     1      -4.230  14.622  22.080  0.00  0.00    +0.000 A 
ATOM     24  C   UNL     1      -3.447  14.322  20.975  0.00  0.00    +0.000 A 
ENDBRANCH  18  19
BRANCH  18  25
ATOM     25  C   UNL     1      -2.531  12.087  18.644  0.00  0.00    +0.000 C 
ATOM     26  O   UNL     1      -1.980  11.618  17.654  0.00  0.00    +0.000 OA
ATOM     27  N   UNL     1      -3.882  11.929  18.897  0.00  0.00    +0.000 N 
ATOM     28  H   UNL     1      -4.300  12.557  19.575  0.00  0.00    +0.000 HD
BRANCH  27  29
ATOM     29  C   UNL     1      -4.770  11.190  18.004  0.00  0.00    +0.000 C 
ATOM     30  C   UNL     1      -5.944  10.545  18.762  0.00  0.00    +0.000 C 
ATOM     31  C   UNL     1      -6.866  11.597  19.378  0.00  0.00    +0.000 C 
ATOM     32  C   UNL     1      -7.384  12.569  18.323  0.00  0.00    +0.000 C 
ATOM     33  C   UNL     1      -6.257  13.187  17.497  0.00  0.00    +0.000 C 
ATOM     34  C   UNL     1      -5.319  12.124  16.917  0.00  0.00    +0.000 C 
ENDBRANCH  27  29
ENDBRANCH  18  25
ENDBRANCH   3  18
TORSDOF 9
ENDMDL
