MODEL 1
REMARK VINA RESULT:      -8.4      0.000      0.000
REMARK  Name = 
REMARK  5 active torsions:
REMARK  status: ('A' for Active; 'I' for Inactive)
REMARK    1  A    between atoms: C_1  and  C_2
REMARK    2  A    between atoms: C_3  and  C_4
REMARK    3  A    between atoms: C_4  and  C_5
REMARK    4  A    between atoms: C_12  and  C_13
REMARK    5  A    between atoms: N_22  and  C_23
REMARK                            x       y       z     vdW  Elec       q    Type
REMARK                         _______ _______ _______ _____ _____    ______ ____
ROOT
ATOM      1  C   UNL     1       1.828   2.724  19.880  0.00  0.00    +0.000 C 
ATOM      2  C   UNL     1       3.141   3.267  19.447  0.00  0.00    +0.000 A 
ATOM      3  C   UNL     1       3.473   4.277  18.550  0.00  0.00    +0.000 A 
ATOM      4  C   UNL     1       4.913   4.312  18.549  0.00  0.00    +0.000 A 
ATOM      5  N   UNL     1       5.400   3.385  19.396  0.00  0.00    +0.000 NA
ATOM      6  N   UNL     1       4.328   2.773  19.907  0.00  0.00    +0.000 N 
ATOM      7  C   UNL     1       4.527   1.687  20.839  0.00  0.00    +0.000 C 
ENDROOT
BRANCH   4   8
ATOM      8  C   UNL     1       5.849   5.140  17.766  0.00  0.00    +0.000 A 
ATOM      9  C   UNL     1       6.431   6.247  18.344  0.00  0.00    +0.000 A 
ATOM     10  C   UNL     1       7.342   6.895  17.561  0.00  0.00    +0.000 A 
ATOM     11 CL   UNL     1       8.193   8.261  18.161  0.00  0.00    +0.000 Cl
ATOM     12  N   UNL     1       7.677   6.536  16.316  0.00  0.00    +0.000 NA
ATOM     13  C   UNL     1       7.042   5.469  15.838  0.00  0.00    +0.000 A 
ATOM     14  N   UNL     1       7.385   5.051  14.569  0.00  0.00    +0.000 N 
ATOM     15  N   UNL     1       6.146   4.744  16.511  0.00  0.00    +0.000 NA
ATOM     16  H   UNL     1       8.316   5.376  14.346  0.00  0.00    +0.000 HD
ATOM     17  H   UNL     1       7.210   4.060  14.477  0.00  0.00    +0.000 HD
ENDBRANCH   4   8
BRANCH   3  18
ATOM     18  C   UNL     1       2.519   5.132  17.778  0.00  0.00    +0.000 C 
BRANCH  18  19
ATOM     19  C   UNL     1       2.244   6.435  18.509  0.00  0.00    +0.000 A 
ATOM     20  C   UNL     1       2.014   6.562  19.890  0.00  0.00    +0.000 A 
ATOM     21  C   UNL     1       1.718   7.802  20.468  0.00  0.00    +0.000 A 
ATOM     22  C   UNL     1       1.646   8.943  19.676  0.00  0.00    +0.000 A 
ATOM     23  C   UNL     1       1.884   8.836  18.314  0.00  0.00    +0.000 A 
ATOM     24  F   UNL     1       1.820   9.932  17.546  0.00  0.00    +0.000 F 
ATOM     25  C   UNL     1       2.181   7.606  17.730  0.00  0.00    +0.000 A 
ENDBRANCH  18  19
ENDBRANCH   3  18
TORSDOF 3
ENDMDL
MODEL 2
REMARK VINA RESULT:      -8.3      3.027      4.919
REMARK  Name = 
REMARK  5 active torsions:
REMARK  status: ('A' for Active; 'I' for Inactive)
REMARK    1  A    between atoms: C_1  and  C_2
REMARK    2  A    between atoms: C_3  and  C_4
REMARK    3  A    between atoms: C_4  and  C_5
REMARK    4  A    between atoms: C_12  and  C_13
REMARK    5  A    between atoms: N_22  and  C_23
REMARK                            x       y       z     vdW  Elec       q    Type
REMARK                         _______ _______ _______ _____ _____    ______ ____
ROOT
ATOM      1  C   UNL     1       1.207   7.986  20.489  0.00  0.00    +0.000 C 
ATOM      2  C   UNL     1       2.186   7.576  19.449  0.00  0.00    +0.000 A 
ATOM      3  C   UNL     1       3.021   6.468  19.352  0.00  0.00    +0.000 A 
ATOM      4  C   UNL     1       3.745   6.658  18.121  0.00  0.00    +0.000 A 
ATOM      5  N   UNL     1       3.358   7.803  17.527  0.00  0.00    +0.000 NA
ATOM      6  N   UNL     1       2.440   8.333  18.341  0.00  0.00    +0.000 N 
ATOM      7  C   UNL     1       1.852   9.604  17.990  0.00  0.00    +0.000 C 
ENDROOT
BRANCH   4   8
ATOM      8  C   UNL     1       4.805   5.843  17.500  0.00  0.00    +0.000 A 
ATOM      9  C   UNL     1       4.704   5.484  16.174  0.00  0.00    +0.000 A 
ATOM     10  C   UNL     1       5.776   4.800  15.677  0.00  0.00    +0.000 A 
ATOM     11 CL   UNL     1       5.823   4.332  14.025  0.00  0.00    +0.000 Cl
ATOM     12  N   UNL     1       6.865   4.466  16.379  0.00  0.00    +0.000 NA
ATOM     13  C   UNL     1       6.858   4.836  17.657  0.00  0.00    +0.000 A 
ATOM     14  N   UNL     1       7.978   4.536  18.404  0.00  0.00    +0.000 N 
ATOM     15  N   UNL     1       5.879   5.520  18.252  0.00  0.00    +0.000 NA
ATOM     16  H   UNL     1       8.775   4.426  17.790  0.00  0.00    +0.000 HD
ATOM     17  H   UNL     1       8.071   5.199  19.161  0.00  0.00    +0.000 HD
ENDBRANCH   4   8
BRANCH   3  18
ATOM     18  C   UNL     1       3.116   5.334  20.323  0.00  0.00    +0.000 C 
BRANCH  18  19
ATOM     19  C   UNL     1       2.516   4.067  19.739  0.00  0.00    +0.000 A 
ATOM     20  C   UNL     1       1.142   3.785  19.642  0.00  0.00    +0.000 A 
ATOM     21  C   UNL     1       0.684   2.563  19.134  0.00  0.00    +0.000 A 
ATOM     22  C   UNL     1       1.591   1.598  18.709  0.00  0.00    +0.000 A 
ATOM     23  C   UNL     1       2.949   1.868  18.786  0.00  0.00    +0.000 A 
ATOM     24  F   UNL     1       3.828   0.944  18.376  0.00  0.00    +0.000 F 
ATOM     25  C   UNL     1       3.415   3.081  19.289  0.00  0.00    +0.000 A 
ENDBRANCH  18  19
ENDBRANCH   3  18
TORSDOF 3
ENDMDL
MODEL 3
REMARK VINA RESULT:      -8.2      3.434      4.740
REMARK  Name = 
REMARK  5 active torsions:
REMARK  status: ('A' for Active; 'I' for Inactive)
REMARK    1  A    between atoms: C_1  and  C_2
REMARK    2  A    between atoms: C_3  and  C_4
REMARK    3  A    between atoms: C_4  and  C_5
REMARK    4  A    between atoms: C_12  and  C_13
REMARK    5  A    between atoms: N_22  and  C_23
REMARK                            x       y       z     vdW  Elec       q    Type
REMARK                         _______ _______ _______ _____ _____    ______ ____
ROOT
ATOM      1  C   UNL     1       4.987   5.161  19.624  0.00  0.00    +0.000 C 
ATOM      2  C   UNL     1       5.752   5.102  18.352  0.00  0.00    +0.000 A 
ATOM      3  C   UNL     1       5.352   4.852  17.044  0.00  0.00    +0.000 A 
ATOM      4  C   UNL     1       6.566   4.910  16.270  0.00  0.00    +0.000 A 
ATOM      5  N   UNL     1       7.614   5.183  17.070  0.00  0.00    +0.000 NA
ATOM      6  N   UNL     1       7.105   5.281  18.301  0.00  0.00    +0.000 N 
ATOM      7  C   UNL     1       8.001   5.538  19.405  0.00  0.00    +0.000 C 
ENDROOT
BRANCH   4   8
ATOM      8  C   UNL     1       6.793   4.684  14.830  0.00  0.00    +0.000 A 
ATOM      9  C   UNL     1       6.096   3.693  14.175  0.00  0.00    +0.000 A 
ATOM     10  C   UNL     1       6.320   3.620  12.831  0.00  0.00    +0.000 A 
ATOM     11 CL   UNL     1       5.483   2.472  11.866  0.00  0.00    +0.000 Cl
ATOM     12  N   UNL     1       7.151   4.418  12.148  0.00  0.00    +0.000 NA
ATOM     13  C   UNL     1       7.795   5.327  12.873  0.00  0.00    +0.000 A 
ATOM     14  N   UNL     1       8.636   6.188  12.198  0.00  0.00    +0.000 N 
ATOM     15  N   UNL     1       7.649   5.506  14.187  0.00  0.00    +0.000 NA
ATOM     16  H   UNL     1       8.351   6.249  11.229  0.00  0.00    +0.000 HD
ATOM     17  H   UNL     1       8.717   7.056  12.708  0.00  0.00    +0.000 HD
ENDBRANCH   4   8
BRANCH   3  18
ATOM     18  C   UNL     1       3.957   4.594  16.572  0.00  0.00    +0.000 C 
BRANCH  18  19
ATOM     19  C   UNL     1       3.233   3.644  17.511  0.00  0.00    +0.000 A 
ATOM     20  C   UNL     1       3.564   2.293  17.717  0.00  0.00    +0.000 A 
ATOM     21  C   UNL     1       2.805   1.480  18.567  0.00  0.00    +0.000 A 
ATOM     22  C   UNL     1       1.699   2.001  19.230  0.00  0.00    +0.000 A 
ATOM     23  C   UNL     1       1.369   3.335  19.047  0.00  0.00    +0.000 A 
ATOM     24  F   UNL     1       0.307   3.845  19.684  0.00  0.00    +0.000 F 
ATOM     25  C   UNL     1       2.119   4.153  18.204  0.00  0.00    +0.000 A 
ENDBRANCH  18  19
ENDBRANCH   3  18
TORSDOF 3
ENDMDL
MODEL 4
REMARK VINA RESULT:      -8.2      2.033      2.723
REMARK  Name = 
REMARK  5 active torsions:
REMARK  status: ('A' for Active; 'I' for Inactive)
REMARK    1  A    between atoms: C_1  and  C_2
REMARK    2  A    between atoms: C_3  and  C_4
REMARK    3  A    between atoms: C_4  and  C_5
REMARK    4  A    between atoms: C_12  and  C_13
REMARK    5  A    between atoms: N_22  and  C_23
REMARK                            x       y       z     vdW  Elec       q    Type
REMARK                         _______ _______ _______ _____ _____    ______ ____
ROOT
ATOM      1  C   UNL     1       0.664   4.103  20.391  0.00  0.00    +0.000 C 
ATOM      2  C   UNL     1       1.844   3.842  19.527  0.00  0.00    +0.000 A 
ATOM      3  C   UNL     1       3.023   4.554  19.334  0.00  0.00    +0.000 A 
ATOM      4  C   UNL     1       3.756   3.794  18.353  0.00  0.00    +0.000 A 
ATOM      5  N   UNL     1       3.056   2.701  17.995  0.00  0.00    +0.000 NA
ATOM      6  N   UNL     1       1.922   2.759  18.699  0.00  0.00    +0.000 N 
ATOM      7  C   UNL     1       0.931   1.726  18.506  0.00  0.00    +0.000 C 
ENDROOT
BRANCH   4   8
ATOM      8  C   UNL     1       5.055   4.065  17.710  0.00  0.00    +0.000 A 
ATOM      9  C   UNL     1       5.143   4.107  16.336  0.00  0.00    +0.000 A 
ATOM     10  C   UNL     1       6.370   4.445  15.845  0.00  0.00    +0.000 A 
ATOM     11 CL   UNL     1       6.624   4.593  14.153  0.00  0.00    +0.000 Cl
ATOM     12  N   UNL     1       7.447   4.716  16.593  0.00  0.00    +0.000 NA
ATOM     13  C   UNL     1       7.267   4.626  17.908  0.00  0.00    +0.000 A 
ATOM     14  N   UNL     1       8.347   4.930  18.711  0.00  0.00    +0.000 N 
ATOM     15  N   UNL     1       6.114   4.321  18.506  0.00  0.00    +0.000 NA
ATOM     16  H   UNL     1       8.985   5.532  18.207  0.00  0.00    +0.000 HD
ATOM     17  H   UNL     1       8.023   5.255  19.611  0.00  0.00    +0.000 HD
ENDBRANCH   4   8
BRANCH   3  18
ATOM     18  C   UNL     1       3.421   5.823  20.017  0.00  0.00    +0.000 C 
BRANCH  18  19
ATOM     19  C   UNL     1       2.683   7.012  19.427  0.00  0.00    +0.000 A 
ATOM     20  C   UNL     1       2.801   7.469  18.102  0.00  0.00    +0.000 A 
ATOM     21  C   UNL     1       2.117   8.608  17.662  0.00  0.00    +0.000 A 
ATOM     22  C   UNL     1       1.298   9.314  18.537  0.00  0.00    +0.000 A 
ATOM     23  C   UNL     1       1.161   8.868  19.842  0.00  0.00    +0.000 A 
ATOM     24  F   UNL     1       0.371   9.541  20.689  0.00  0.00    +0.000 F 
ATOM     25  C   UNL     1       1.836   7.734  20.289  0.00  0.00    +0.000 A 
ENDBRANCH  18  19
ENDBRANCH   3  18
TORSDOF 3
ENDMDL
MODEL 5
REMARK VINA RESULT:      -8.2      1.491      1.853
REMARK  Name = 
REMARK  5 active torsions:
REMARK  status: ('A' for Active; 'I' for Inactive)
REMARK    1  A    between atoms: C_1  and  C_2
REMARK    2  A    between atoms: C_3  and  C_4
REMARK    3  A    between atoms: C_4  and  C_5
REMARK    4  A    between atoms: C_12  and  C_13
REMARK    5  A    between atoms: N_22  and  C_23
REMARK                            x       y       z     vdW  Elec       q    Type
REMARK                         _______ _______ _______ _____ _____    ______ ____
ROOT
ATOM      1  C   UNL     1       1.876   2.688  20.399  0.00  0.00    +0.000 C 
ATOM      2  C   UNL     1       3.138   3.090  19.725  0.00  0.00    +0.000 A 
ATOM      3  C   UNL     1       3.386   3.970  18.677  0.00  0.00    +0.000 A 
ATOM      4  C   UNL     1       4.810   3.906  18.471  0.00  0.00    +0.000 A 
ATOM      5  N   UNL     1       5.368   3.047  19.345  0.00  0.00    +0.000 NA
ATOM      6  N   UNL     1       4.352   2.570  20.071  0.00  0.00    +0.000 N 
ATOM      7  C   UNL     1       4.629   1.582  21.087  0.00  0.00    +0.000 C 
ENDROOT
BRANCH   4   8
ATOM      8  C   UNL     1       5.662   4.578  17.472  0.00  0.00    +0.000 A 
ATOM      9  C   UNL     1       5.745   4.073  16.193  0.00  0.00    +0.000 A 
ATOM     10  C   UNL     1       6.495   4.814  15.326  0.00  0.00    +0.000 A 
ATOM     11 CL   UNL     1       6.649   4.344  13.682  0.00  0.00    +0.000 Cl
ATOM     12  N   UNL     1       7.133   5.948  15.641  0.00  0.00    +0.000 NA
ATOM     13  C   UNL     1       7.012   6.340  16.906  0.00  0.00    +0.000 A 
ATOM     14  N   UNL     1       7.631   7.522  17.258  0.00  0.00    +0.000 N 
ATOM     15  N   UNL     1       6.296   5.711  17.839  0.00  0.00    +0.000 NA
ATOM     16  H   UNL     1       7.758   8.096  16.436  0.00  0.00    +0.000 HD
ATOM     17  H   UNL     1       7.146   7.941  18.040  0.00  0.00    +0.000 HD
ENDBRANCH   4   8
BRANCH   3  18
ATOM     18  C   UNL     1       2.375   4.798  17.950  0.00  0.00    +0.000 C 
BRANCH  18  19
ATOM     19  C   UNL     1       2.190   6.147  18.624  0.00  0.00    +0.000 A 
ATOM     20  C   UNL     1       1.938   6.345  19.993  0.00  0.00    +0.000 A 
ATOM     21  C   UNL     1       1.731   7.627  20.516  0.00  0.00    +0.000 A 
ATOM     22  C   UNL     1       1.774   8.739  19.681  0.00  0.00    +0.000 A 
ATOM     23  C   UNL     1       2.035   8.559  18.331  0.00  0.00    +0.000 A 
ATOM     24  F   UNL     1       2.081   9.626  17.522  0.00  0.00    +0.000 F 
ATOM     25  C   UNL     1       2.244   7.287  17.801  0.00  0.00    +0.000 A 
ENDBRANCH  18  19
ENDBRANCH   3  18
TORSDOF 3
ENDMDL
MODEL 6
REMARK VINA RESULT:      -8.2      1.016      1.424
REMARK  Name = 
REMARK  5 active torsions:
REMARK  status: ('A' for Active; 'I' for Inactive)
REMARK    1  A    between atoms: C_1  and  C_2
REMARK    2  A    between atoms: C_3  and  C_4
REMARK    3  A    between atoms: C_4  and  C_5
REMARK    4  A    between atoms: C_12  and  C_13
REMARK    5  A    between atoms: N_22  and  C_23
REMARK                            x       y       z     vdW  Elec       q    Type
REMARK                         _______ _______ _______ _____ _____    ______ ____
ROOT
ATOM      1  C   UNL     1       1.901   2.299  19.881  0.00  0.00    +0.000 C 
ATOM      2  C   UNL     1       3.171   2.938  19.449  0.00  0.00    +0.000 A 
ATOM      3  C   UNL     1       3.431   3.945  18.526  0.00  0.00    +0.000 A 
ATOM      4  C   UNL     1       4.864   4.099  18.542  0.00  0.00    +0.000 A 
ATOM      5  N   UNL     1       5.413   3.241  19.422  0.00  0.00    +0.000 NA
ATOM      6  N   UNL     1       4.388   2.557  19.938  0.00  0.00    +0.000 N 
ATOM      7  C   UNL     1       4.662   1.519  20.904  0.00  0.00    +0.000 C 
ENDROOT
BRANCH   4   8
ATOM      8  C   UNL     1       5.739   4.980  17.747  0.00  0.00    +0.000 A 
ATOM      9  C   UNL     1       6.376   6.040  18.353  0.00  0.00    +0.000 A 
ATOM     10  C   UNL     1       7.226   6.742  17.547  0.00  0.00    +0.000 A 
ATOM     11 CL   UNL     1       8.135   8.057  18.171  0.00  0.00    +0.000 Cl
ATOM     12  N   UNL     1       7.455   6.472  16.255  0.00  0.00    +0.000 NA
ATOM     13  C   UNL     1       6.774   5.445  15.756  0.00  0.00    +0.000 A 
ATOM     14  N   UNL     1       7.009   5.119  14.436  0.00  0.00    +0.000 N 
ATOM     15  N   UNL     1       5.930   4.675  16.446  0.00  0.00    +0.000 NA
ATOM     16  H   UNL     1       7.921   5.456  14.161  0.00  0.00    +0.000 HD
ATOM     17  H   UNL     1       6.818   4.137  14.288  0.00  0.00    +0.000 HD
ENDBRANCH   4   8
BRANCH   3  18
ATOM     18  C   UNL     1       2.422   4.696  17.717  0.00  0.00    +0.000 C 
BRANCH  18  19
ATOM     19  C   UNL     1       2.238   6.106  18.251  0.00  0.00    +0.000 A 
ATOM     20  C   UNL     1       2.376   7.286  17.498  0.00  0.00    +0.000 A 
ATOM     21  C   UNL     1       2.236   8.547  18.091  0.00  0.00    +0.000 A 
ATOM     22  C   UNL     1       1.954   8.654  19.449  0.00  0.00    +0.000 A 
ATOM     23  C   UNL     1       1.802   7.499  20.200  0.00  0.00    +0.000 A 
ATOM     24  F   UNL     1       1.527   7.595  21.508  0.00  0.00    +0.000 F 
ATOM     25  C   UNL     1       1.937   6.239  19.619  0.00  0.00    +0.000 A 
ENDBRANCH  18  19
ENDBRANCH   3  18
TORSDOF 3
ENDMDL
MODEL 7
REMARK VINA RESULT:      -8.2      2.252      2.819
REMARK  Name = 
REMARK  5 active torsions:
REMARK  status: ('A' for Active; 'I' for Inactive)
REMARK    1  A    between atoms: C_1  and  C_2
REMARK    2  A    between atoms: C_3  and  C_4
REMARK    3  A    between atoms: C_4  and  C_5
REMARK    4  A    between atoms: C_12  and  C_13
REMARK    5  A    between atoms: N_22  and  C_23
REMARK                            x       y       z     vdW  Elec       q    Type
REMARK                         _______ _______ _______ _____ _____    ______ ____
ROOT
ATOM      1  C   UNL     1       0.971   4.280  20.496  0.00  0.00    +0.000 C 
ATOM      2  C   UNL     1       1.973   4.145  19.407  0.00  0.00    +0.000 A 
ATOM      3  C   UNL     1       3.038   4.954  19.026  0.00  0.00    +0.000 A 
ATOM      4  C   UNL     1       3.614   4.291  17.884  0.00  0.00    +0.000 A 
ATOM      5  N   UNL     1       2.936   3.160  17.612  0.00  0.00    +0.000 NA
ATOM      6  N   UNL     1       1.961   3.103  18.525  0.00  0.00    +0.000 N 
ATOM      7  C   UNL     1       1.027   2.003  18.474  0.00  0.00    +0.000 C 
ENDROOT
BRANCH   4   8
ATOM      8  C   UNL     1       4.739   4.687  17.016  0.00  0.00    +0.000 A 
ATOM      9  C   UNL     1       4.935   4.044  15.814  0.00  0.00    +0.000 A 
ATOM     10  C   UNL     1       5.952   4.540  15.051  0.00  0.00    +0.000 A 
ATOM     11 CL   UNL     1       6.284   3.881  13.501  0.00  0.00    +0.000 Cl
ATOM     12  N   UNL     1       6.740   5.565  15.398  0.00  0.00    +0.000 NA
ATOM     13  C   UNL     1       6.488   6.104  16.588  0.00  0.00    +0.000 A 
ATOM     14  N   UNL     1       7.260   7.183  16.965  0.00  0.00    +0.000 N 
ATOM     15  N   UNL     1       5.514   5.718  17.414  0.00  0.00    +0.000 NA
ATOM     16  H   UNL     1       7.635   7.635  16.141  0.00  0.00    +0.000 HD
ATOM     17  H   UNL     1       6.744   7.763  17.611  0.00  0.00    +0.000 HD
ENDBRANCH   4   8
BRANCH   3  18
ATOM     18  C   UNL     1       3.473   6.224  19.684  0.00  0.00    +0.000 C 
BRANCH  18  19
ATOM     19  C   UNL     1       2.582   7.383  19.270  0.00  0.00    +0.000 A 
ATOM     20  C   UNL     1       2.532   7.954  17.986  0.00  0.00    +0.000 A 
ATOM     21  C   UNL     1       1.714   9.056  17.711  0.00  0.00    +0.000 A 
ATOM     22  C   UNL     1       0.927   9.610  18.716  0.00  0.00    +0.000 A 
ATOM     23  C   UNL     1       0.956   9.049  19.983  0.00  0.00    +0.000 A 
ATOM     24  F   UNL     1       0.198   9.576  20.954  0.00  0.00    +0.000 F 
ATOM     25  C   UNL     1       1.766   7.951  20.266  0.00  0.00    +0.000 A 
ENDBRANCH  18  19
ENDBRANCH   3  18
TORSDOF 3
ENDMDL
MODEL 8
REMARK VINA RESULT:      -8.2      3.750      4.989
REMARK  Name = 
REMARK  5 active torsions:
REMARK  status: ('A' for Active; 'I' for Inactive)
REMARK    1  A    between atoms: C_1  and  C_2
REMARK    2  A    between atoms: C_3  and  C_4
REMARK    3  A    between atoms: C_4  and  C_5
REMARK    4  A    between atoms: C_12  and  C_13
REMARK    5  A    between atoms: N_22  and  C_23
REMARK                            x       y       z     vdW  Elec       q    Type
REMARK                         _______ _______ _______ _____ _____    ______ ____
ROOT
ATOM      1  C   UNL     1       5.156   5.391  19.618  0.00  0.00    +0.000 C 
ATOM      2  C   UNL     1       5.907   5.227  18.346  0.00  0.00    +0.000 A 
ATOM      3  C   UNL     1       5.476   5.078  17.032  0.00  0.00    +0.000 A 
ATOM      4  C   UNL     1       6.685   4.942  16.261  0.00  0.00    +0.000 A 
ATOM      5  N   UNL     1       7.761   5.012  17.068  0.00  0.00    +0.000 NA
ATOM      6  N   UNL     1       7.270   5.172  18.300  0.00  0.00    +0.000 N 
ATOM      7  C   UNL     1       8.191   5.246  19.410  0.00  0.00    +0.000 C 
ENDROOT
BRANCH   4   8
ATOM      8  C   UNL     1       6.877   4.710  14.817  0.00  0.00    +0.000 A 
ATOM      9  C   UNL     1       6.182   3.701  14.188  0.00  0.00    +0.000 A 
ATOM     10  C   UNL     1       6.370   3.624  12.838  0.00  0.00    +0.000 A 
ATOM     11 CL   UNL     1       5.529   2.453  11.905  0.00  0.00    +0.000 Cl
ATOM     12  N   UNL     1       7.165   4.433  12.128  0.00  0.00    +0.000 NA
ATOM     13  C   UNL     1       7.812   5.359  12.829  0.00  0.00    +0.000 A 
ATOM     14  N   UNL     1       8.617   6.231  12.125  0.00  0.00    +0.000 N 
ATOM     15  N   UNL     1       7.698   5.544  14.145  0.00  0.00    +0.000 NA
ATOM     16  H   UNL     1       8.304   6.280  11.164  0.00  0.00    +0.000 HD
ATOM     17  H   UNL     1       8.695   7.104  12.627  0.00  0.00    +0.000 HD
ENDBRANCH   4   8
BRANCH   3  18
ATOM     18  C   UNL     1       4.059   5.075  16.553  0.00  0.00    +0.000 C 
BRANCH  18  19
ATOM     19  C   UNL     1       3.249   4.003  17.262  0.00  0.00    +0.000 A 
ATOM     20  C   UNL     1       1.919   4.143  17.698  0.00  0.00    +0.000 A 
ATOM     21  C   UNL     1       1.269   3.114  18.390  0.00  0.00    +0.000 A 
ATOM     22  C   UNL     1       1.934   1.923  18.659  0.00  0.00    +0.000 A 
ATOM     23  C   UNL     1       3.241   1.766  18.224  0.00  0.00    +0.000 A 
ATOM     24  F   UNL     1       3.887   0.620  18.477  0.00  0.00    +0.000 F 
ATOM     25  C   UNL     1       3.896   2.784  17.533  0.00  0.00    +0.000 A 
ENDBRANCH  18  19
ENDBRANCH   3  18
TORSDOF 3
ENDMDL
MODEL 9
REMARK VINA RESULT:      -8.1      3.836      5.699
REMARK  Name = 
REMARK  5 active torsions:
REMARK  status: ('A' for Active; 'I' for Inactive)
REMARK    1  A    between atoms: C_1  and  C_2
REMARK    2  A    between atoms: C_3  and  C_4
REMARK    3  A    between atoms: C_4  and  C_5
REMARK    4  A    between atoms: C_12  and  C_13
REMARK    5  A    between atoms: N_22  and  C_23
REMARK                            x       y       z     vdW  Elec       q    Type
REMARK                         _______ _______ _______ _____ _____    ______ ____
ROOT
ATOM      1  C   UNL     1       4.849   3.542  16.308  0.00  0.00    +0.000 C 
ATOM      2  C   UNL     1       4.459   4.834  16.930  0.00  0.00    +0.000 A 
ATOM      3  C   UNL     1       3.276   5.252  17.529  0.00  0.00    +0.000 A 
ATOM      4  C   UNL     1       3.519   6.619  17.913  0.00  0.00    +0.000 A 
ATOM      5  N   UNL     1       4.769   6.982  17.568  0.00  0.00    +0.000 NA
ATOM      6  N   UNL     1       5.301   5.908  16.978  0.00  0.00    +0.000 N 
ATOM      7  C   UNL     1       6.645   5.996  16.457  0.00  0.00    +0.000 C 
ENDROOT
BRANCH   4   8
ATOM      8  C   UNL     1       2.627   7.607  18.547  0.00  0.00    +0.000 A 
ATOM      9  C   UNL     1       2.156   7.384  19.823  0.00  0.00    +0.000 A 
ATOM     10  C   UNL     1       1.405   8.396  20.347  0.00  0.00    +0.000 A 
ATOM     11 CL   UNL     1       0.794   8.291  21.948  0.00  0.00    +0.000 Cl
ATOM     12  N   UNL     1       1.108   9.537  19.713  0.00  0.00    +0.000 NA
ATOM     13  C   UNL     1       1.588   9.647  18.478  0.00  0.00    +0.000 A 
ATOM     14  N   UNL     1       1.327  10.824  17.806  0.00  0.00    +0.000 N 
ATOM     15  N   UNL     1       2.345   8.736  17.865  0.00  0.00    +0.000 NA
ATOM     16  H   UNL     1       1.144  11.561  18.473  0.00  0.00    +0.000 HD
ATOM     17  H   UNL     1       2.050  10.993  17.121  0.00  0.00    +0.000 HD
ENDBRANCH   4   8
BRANCH   3  18
ATOM     18  C   UNL     1       2.039   4.434  17.726  0.00  0.00    +0.000 C 
BRANCH  18  19
ATOM     19  C   UNL     1       2.056   3.743  19.080  0.00  0.00    +0.000 A 
ATOM     20  C   UNL     1       0.977   3.689  19.980  0.00  0.00    +0.000 A 
ATOM     21  C   UNL     1       1.102   3.071  21.229  0.00  0.00    +0.000 A 
ATOM     22  C   UNL     1       2.310   2.492  21.605  0.00  0.00    +0.000 A 
ATOM     23  C   UNL     1       3.378   2.526  20.722  0.00  0.00    +0.000 A 
ATOM     24  F   UNL     1       4.543   1.968  21.076  0.00  0.00    +0.000 F 
ATOM     25  C   UNL     1       3.263   3.137  19.475  0.00  0.00    +0.000 A 
ENDBRANCH  18  19
ENDBRANCH   3  18
TORSDOF 3
ENDMDL
