MODEL 1
REMARK VINA RESULT:      -7.5      0.000      0.000
REMARK  Name = 
REMARK  8 active torsions:
REMARK  status: ('A' for Active; 'I' for Inactive)
REMARK    1  A    between atoms: C_1  and  C_2
REMARK    2  A    between atoms: C_2  and  C_3
REMARK    3  A    between atoms: C_5  and  C_6
REMARK    4  A    between atoms: N_10  and  C_11
REMARK    5  A    between atoms: N_17  and  C_18
REMARK    6  A    between atoms: C_22  and  N_23
REMARK    7  A    between atoms: N_23  and  C_24
REMARK    8  A    between atoms: C_27  and  O_28
REMARK                            x       y       z     vdW  Elec       q    Type
REMARK                         _______ _______ _______ _____ _____    ______ ____
ROOT
ATOM      1  C   UNL     1       2.328   7.564  19.221  0.00  0.00    +0.000 A 
ATOM      2  N   UNL     1       1.501   8.216  20.076  0.00  0.00    +0.000 NA
ATOM      3  C   UNL     1       1.030   9.420  19.640  0.00  0.00    +0.000 A 
ATOM      4  C   UNL     1       1.464  10.016  18.443  0.00  0.00    +0.000 A 
ATOM      5  N   UNL     1       1.171  11.341  18.066  0.00  0.00    +0.000 N 
ATOM      6  N   UNL     1       2.284   9.331  17.595  0.00  0.00    +0.000 NA
ATOM      7  C   UNL     1       2.714   8.099  17.970  0.00  0.00    +0.000 A 
ATOM      8  H   UNL     1       1.643  11.548  17.192  0.00  0.00    +0.000 HD
ENDROOT
BRANCH   5   9
ATOM      9  C   UNL     1       1.127  12.461  18.934  0.00  0.00    +0.000 A 
ATOM     10  C   UNL     1      -0.083  13.139  19.115  0.00  0.00    +0.000 A 
ATOM     11  C   UNL     1      -0.211  14.169  20.065  0.00  0.00    +0.000 A 
ATOM     12  C   UNL     1       0.911  14.523  20.833  0.00  0.00    +0.000 A 
ATOM     13  C   UNL     1       1.188  15.421  21.890  0.00  0.00    +0.000 A 
ATOM     14  N   UNL     1       2.457  15.358  22.307  0.00  0.00    +0.000 NA
ATOM     15  N   UNL     1       2.995  14.407  21.518  0.00  0.00    +0.000 N 
ATOM     16  C   UNL     1       4.356  13.977  21.733  0.00  0.00    +0.000 C 
ATOM     17  C   UNL     1       2.120  13.882  20.596  0.00  0.00    +0.000 A 
ATOM     18  C   UNL     1       2.273  12.887  19.627  0.00  0.00    +0.000 A 
ENDBRANCH   5   9
BRANCH   3  19
ATOM     19  C   UNL     1       0.033  10.048  20.565  0.00  0.00    +0.000 C 
ATOM     20  N   UNL     1       0.509  10.341  21.823  0.00  0.00    +0.000 N 
ATOM     21  O   UNL     1      -1.136  10.263  20.277  0.00  0.00    +0.000 OA
ATOM     22  H   UNL     1       1.364   9.901  22.139  0.00  0.00    +0.000 HD
ATOM     23  H   UNL     1      -0.163  10.670  22.502  0.00  0.00    +0.000 HD
ENDBRANCH   3  19
BRANCH   1  25
ATOM     24  C   UNL     1       1.804   5.425  20.399  0.00  0.00    +0.000 C 
ATOM     25  C   UNL     1       2.893   6.269  19.748  0.00  0.00    +0.000 C 
ENDBRANCH   1  25
BRANCH   7  26
ATOM     26  N   UNL     1       3.477   7.320  17.087  0.00  0.00    +0.000 N 
ATOM     27  H   UNL     1       2.893   6.793  16.449  0.00  0.00    +0.000 HD
BRANCH  26  28
ATOM     28  C   UNL     1       4.565   6.490  17.606  0.00  0.00    +0.000 C 
ATOM     29  C   UNL     1       4.490   5.074  17.012  0.00  0.00    +0.000 C 
ATOM     30  C   UNL     1       5.711   4.237  17.378  0.00  0.00    +0.000 C 
ATOM     31  C   UNL     1       7.002   4.914  16.928  0.00  0.00    +0.000 C 
ATOM     32  C   UNL     1       7.117   6.324  17.502  0.00  0.00    +0.000 C 
ATOM     33  C   UNL     1       5.888   7.166  17.178  0.00  0.00    +0.000 C 
BRANCH  31  34
ATOM     34  O   UNL     1       8.119   4.137  17.338  0.00  0.00    +0.000 OA
ATOM     35  H   UNL     1       7.859   3.612  18.114  0.00  0.00    +0.000 HD
ENDBRANCH  31  34
ENDBRANCH  26  28
ENDBRANCH   7  26
TORSDOF 6
ENDMDL
MODEL 2
REMARK VINA RESULT:      -7.3      1.490      2.003
REMARK  Name = 
REMARK  8 active torsions:
REMARK  status: ('A' for Active; 'I' for Inactive)
REMARK    1  A    between atoms: C_1  and  C_2
REMARK    2  A    between atoms: C_2  and  C_3
REMARK    3  A    between atoms: C_5  and  C_6
REMARK    4  A    between atoms: N_10  and  C_11
REMARK    5  A    between atoms: N_17  and  C_18
REMARK    6  A    between atoms: C_22  and  N_23
REMARK    7  A    between atoms: N_23  and  C_24
REMARK    8  A    between atoms: C_27  and  O_28
REMARK                            x       y       z     vdW  Elec       q    Type
REMARK                         _______ _______ _______ _____ _____    ______ ____
ROOT
ATOM      1  C   UNL     1       2.112   7.309  19.758  0.00  0.00    +0.000 A 
ATOM      2  N   UNL     1       1.613   8.269  20.577  0.00  0.00    +0.000 NA
ATOM      3  C   UNL     1       1.191   9.410  19.961  0.00  0.00    +0.000 A 
ATOM      4  C   UNL     1       1.371   9.642  18.587  0.00  0.00    +0.000 A 
ATOM      5  N   UNL     1       1.148  10.881  17.956  0.00  0.00    +0.000 N 
ATOM      6  N   UNL     1       1.861   8.653  17.784  0.00  0.00    +0.000 NA
ATOM      7  C   UNL     1       2.225   7.479  18.359  0.00  0.00    +0.000 A 
ATOM      8  H   UNL     1       1.401  10.805  16.977  0.00  0.00    +0.000 HD
ENDROOT
BRANCH   5   9
ATOM      9  C   UNL     1       1.458  12.155  18.496  0.00  0.00    +0.000 A 
ATOM     10  C   UNL     1       2.781  12.609  18.460  0.00  0.00    +0.000 A 
ATOM     11  C   UNL     1       3.118  13.915  18.859  0.00  0.00    +0.000 A 
ATOM     12  C   UNL     1       2.098  14.769  19.312  0.00  0.00    +0.000 A 
ATOM     13  C   UNL     1       1.997  16.115  19.732  0.00  0.00    +0.000 A 
ATOM     14  N   UNL     1       0.748  16.470  20.050  0.00  0.00    +0.000 NA
ATOM     15  N   UNL     1       0.041  15.346  19.826  0.00  0.00    +0.000 N 
ATOM     16  C   UNL     1      -1.396  15.357  19.967  0.00  0.00    +0.000 C 
ATOM     17  C   UNL     1       0.800  14.281  19.400  0.00  0.00    +0.000 A 
ATOM     18  C   UNL     1       0.458  12.972  19.048  0.00  0.00    +0.000 A 
ENDBRANCH   5   9
BRANCH   3  19
ATOM     19  C   UNL     1       0.543  10.391  20.890  0.00  0.00    +0.000 C 
ATOM     20  N   UNL     1      -0.828  10.465  20.797  0.00  0.00    +0.000 N 
ATOM     21  O   UNL     1       1.154  11.119  21.661  0.00  0.00    +0.000 OA
ATOM     22  H   UNL     1      -1.285  10.089  19.975  0.00  0.00    +0.000 HD
ATOM     23  H   UNL     1      -1.286  11.188  21.335  0.00  0.00    +0.000 HD
ENDBRANCH   3  19
BRANCH   1  25
ATOM     24  C   UNL     1       1.547   5.029  20.606  0.00  0.00    +0.000 C 
ATOM     25  C   UNL     1       2.638   6.084  20.463  0.00  0.00    +0.000 C 
ENDBRANCH   1  25
BRANCH   7  26
ATOM     26  N   UNL     1       2.640   6.403  17.560  0.00  0.00    +0.000 N 
ATOM     27  H   UNL     1       1.966   5.648  17.564  0.00  0.00    +0.000 HD
BRANCH  26  28
ATOM     28  C   UNL     1       4.004   5.885  17.691  0.00  0.00    +0.000 C 
ATOM     29  C   UNL     1       4.125   4.513  17.008  0.00  0.00    +0.000 C 
ATOM     30  C   UNL     1       5.570   4.029  16.955  0.00  0.00    +0.000 C 
ATOM     31  C   UNL     1       6.467   5.036  16.245  0.00  0.00    +0.000 C 
ATOM     32  C   UNL     1       6.379   6.414  16.897  0.00  0.00    +0.000 C 
ATOM     33  C   UNL     1       4.937   6.901  16.992  0.00  0.00    +0.000 C 
BRANCH  31  34
ATOM     34  O   UNL     1       7.813   4.580  16.267  0.00  0.00    +0.000 OA
ATOM     35  H   UNL     1       8.275   4.950  15.496  0.00  0.00    +0.000 HD
ENDBRANCH  31  34
ENDBRANCH  26  28
ENDBRANCH   7  26
TORSDOF 6
ENDMDL
MODEL 3
REMARK VINA RESULT:      -7.2      4.916      7.279
REMARK  Name = 
REMARK  8 active torsions:
REMARK  status: ('A' for Active; 'I' for Inactive)
REMARK    1  A    between atoms: C_1  and  C_2
REMARK    2  A    between atoms: C_2  and  C_3
REMARK    3  A    between atoms: C_5  and  C_6
REMARK    4  A    between atoms: N_10  and  C_11
REMARK    5  A    between atoms: N_17  and  C_18
REMARK    6  A    between atoms: C_22  and  N_23
REMARK    7  A    between atoms: N_23  and  C_24
REMARK    8  A    between atoms: C_27  and  O_28
REMARK                            x       y       z     vdW  Elec       q    Type
REMARK                         _______ _______ _______ _____ _____    ______ ____
ROOT
ATOM      1  C   UNL     1       0.951  11.648  20.277  0.00  0.00    +0.000 A 
ATOM      2  N   UNL     1       1.752  12.486  20.982  0.00  0.00    +0.000 NA
ATOM      3  C   UNL     1       2.139  13.621  20.330  0.00  0.00    +0.000 A 
ATOM      4  C   UNL     1       1.839  13.859  18.978  0.00  0.00    +0.000 A 
ATOM      5  N   UNL     1       2.395  14.903  18.215  0.00  0.00    +0.000 N 
ATOM      6  N   UNL     1       1.018  13.007  18.298  0.00  0.00    +0.000 NA
ATOM      7  C   UNL     1       0.560  11.904  18.942  0.00  0.00    +0.000 A 
ATOM      8  H   UNL     1       2.065  14.828  17.259  0.00  0.00    +0.000 HD
ENDROOT
BRANCH   5   9
ATOM      9  C   UNL     1       3.735  15.362  18.288  0.00  0.00    +0.000 A 
ATOM     10  C   UNL     1       3.999  16.618  18.846  0.00  0.00    +0.000 A 
ATOM     11  C   UNL     1       5.316  17.060  19.064  0.00  0.00    +0.000 A 
ATOM     12  C   UNL     1       6.382  16.220  18.698  0.00  0.00    +0.000 A 
ATOM     13  C   UNL     1       7.792  16.251  18.793  0.00  0.00    +0.000 A 
ATOM     14  N   UNL     1       8.371  15.151  18.301  0.00  0.00    +0.000 NA
ATOM     15  N   UNL     1       7.325  14.405  17.895  0.00  0.00    +0.000 N 
ATOM     16  C   UNL     1       7.544  13.073  17.383  0.00  0.00    +0.000 C 
ATOM     17  C   UNL     1       6.102  15.004  18.087  0.00  0.00    +0.000 A 
ATOM     18  C   UNL     1       4.799  14.569  17.826  0.00  0.00    +0.000 A 
ENDBRANCH   5   9
BRANCH   3  19
ATOM     19  C   UNL     1       2.925  14.567  21.185  0.00  0.00    +0.000 C 
ATOM     20  N   UNL     1       4.169  14.115  21.562  0.00  0.00    +0.000 N 
ATOM     21  O   UNL     1       2.514  15.652  21.573  0.00  0.00    +0.000 OA
ATOM     22  H   UNL     1       4.376  13.126  21.488  0.00  0.00    +0.000 HD
ATOM     23  H   UNL     1       4.683  14.683  22.221  0.00  0.00    +0.000 HD
ENDBRANCH   3  19
BRANCH   1  25
ATOM     24  C   UNL     1      -0.367  10.636  22.142  0.00  0.00    +0.000 C 
ATOM     25  C   UNL     1       0.591  10.367  20.987  0.00  0.00    +0.000 C 
ENDBRANCH   1  25
BRANCH   7  26
ATOM     26  N   UNL     1      -0.365  11.055  18.315  0.00  0.00    +0.000 N 
ATOM     27  H   UNL     1       0.069  10.492  17.594  0.00  0.00    +0.000 HD
BRANCH  26  28
ATOM     28  C   UNL     1      -1.647  11.592  17.856  0.00  0.00    +0.000 C 
ATOM     29  C   UNL     1      -2.215  10.728  16.719  0.00  0.00    +0.000 C 
ATOM     30  C   UNL     1      -3.635  11.140  16.345  0.00  0.00    +0.000 C 
ATOM     31  C   UNL     1      -4.567  11.077  17.550  0.00  0.00    +0.000 C 
ATOM     32  C   UNL     1      -4.040  11.929  18.702  0.00  0.00    +0.000 C 
ATOM     33  C   UNL     1      -2.607  11.556  19.068  0.00  0.00    +0.000 C 
BRANCH  31  34
ATOM     34  O   UNL     1      -5.864  11.524  17.178  0.00  0.00    +0.000 OA
ATOM     35  H   UNL     1      -6.168  12.166  17.841  0.00  0.00    +0.000 HD
ENDBRANCH  31  34
ENDBRANCH  26  28
ENDBRANCH   7  26
TORSDOF 6
ENDMDL
MODEL 4
REMARK VINA RESULT:      -7.1      1.174      1.790
REMARK  Name = 
REMARK  8 active torsions:
REMARK  status: ('A' for Active; 'I' for Inactive)
REMARK    1  A    between atoms: C_1  and  C_2
REMARK    2  A    between atoms: C_2  and  C_3
REMARK    3  A    between atoms: C_5  and  C_6
REMARK    4  A    between atoms: N_10  and  C_11
REMARK    5  A    between atoms: N_17  and  C_18
REMARK    6  A    between atoms: C_22  and  N_23
REMARK    7  A    between atoms: N_23  and  C_24
REMARK    8  A    between atoms: C_27  and  O_28
REMARK                            x       y       z     vdW  Elec       q    Type
REMARK                         _______ _______ _______ _____ _____    ______ ____
ROOT
ATOM      1  C   UNL     1       2.185   7.619  19.310  0.00  0.00    +0.000 A 
ATOM      2  N   UNL     1       1.425   8.375  20.142  0.00  0.00    +0.000 NA
ATOM      3  C   UNL     1       1.073   9.605  19.667  0.00  0.00    +0.000 A 
ATOM      4  C   UNL     1       1.562  10.118  18.453  0.00  0.00    +0.000 A 
ATOM      5  N   UNL     1       1.398  11.452  18.033  0.00  0.00    +0.000 N 
ATOM      6  N   UNL     1       2.311   9.329  17.629  0.00  0.00    +0.000 NA
ATOM      7  C   UNL     1       2.619   8.075  18.044  0.00  0.00    +0.000 A 
ATOM      8  H   UNL     1       1.886  11.585  17.155  0.00  0.00    +0.000 HD
ENDROOT
BRANCH   5   9
ATOM      9  C   UNL     1       1.463  12.597  18.866  0.00  0.00    +0.000 A 
ATOM     10  C   UNL     1       2.376  12.622  19.926  0.00  0.00    +0.000 A 
ATOM     11  C   UNL     1       2.574  13.783  20.696  0.00  0.00    +0.000 A 
ATOM     12  C   UNL     1       1.823  14.932  20.392  0.00  0.00    +0.000 A 
ATOM     13  C   UNL     1       1.757  16.266  20.856  0.00  0.00    +0.000 A 
ATOM     14  N   UNL     1       0.859  17.003  20.194  0.00  0.00    +0.000 NA
ATOM     15  N   UNL     1       0.352  16.139  19.294  0.00  0.00    +0.000 N 
ATOM     16  C   UNL     1      -0.600  16.597  18.310  0.00  0.00    +0.000 C 
ATOM     17  C   UNL     1       0.877  14.870  19.377  0.00  0.00    +0.000 A 
ATOM     18  C   UNL     1       0.640  13.712  18.632  0.00  0.00    +0.000 A 
ENDBRANCH   5   9
BRANCH   3  19
ATOM     19  C   UNL     1       0.142  10.354  20.570  0.00  0.00    +0.000 C 
ATOM     20  N   UNL     1       0.492  10.352  21.900  0.00  0.00    +0.000 N 
ATOM     21  O   UNL     1      -0.884  10.907  20.198  0.00  0.00    +0.000 OA
ATOM     22  H   UNL     1       1.158   9.664  22.232  0.00  0.00    +0.000 HD
ATOM     23  H   UNL     1      -0.166  10.761  22.549  0.00  0.00    +0.000 HD
ENDBRANCH   3  19
BRANCH   1  25
ATOM     24  C   UNL     1       1.429   5.510  20.413  0.00  0.00    +0.000 C 
ATOM     25  C   UNL     1       2.622   6.293  19.879  0.00  0.00    +0.000 C 
ENDBRANCH   1  25
BRANCH   7  26
ATOM     26  N   UNL     1       3.302   7.198  17.187  0.00  0.00    +0.000 N 
ATOM     27  H   UNL     1       2.668   6.584  16.691  0.00  0.00    +0.000 HD
BRANCH  26  28
ATOM     28  C   UNL     1       4.464   6.457  17.683  0.00  0.00    +0.000 C 
ATOM     29  C   UNL     1       4.391   4.986  17.241  0.00  0.00    +0.000 C 
ATOM     30  C   UNL     1       5.672   4.228  17.572  0.00  0.00    +0.000 C 
ATOM     31  C   UNL     1       6.890   4.893  16.942  0.00  0.00    +0.000 C 
ATOM     32  C   UNL     1       7.001   6.357  17.361  0.00  0.00    +0.000 C 
ATOM     33  C   UNL     1       5.717   7.125  17.070  0.00  0.00    +0.000 C 
BRANCH  31  34
ATOM     34  O   UNL     1       8.069   4.195  17.321  0.00  0.00    +0.000 OA
ATOM     35  H   UNL     1       8.105   4.161  18.291  0.00  0.00    +0.000 HD
ENDBRANCH  31  34
ENDBRANCH  26  28
ENDBRANCH   7  26
TORSDOF 6
ENDMDL
MODEL 5
REMARK VINA RESULT:      -7.1      2.144      2.976
REMARK  Name = 
REMARK  8 active torsions:
REMARK  status: ('A' for Active; 'I' for Inactive)
REMARK    1  A    between atoms: C_1  and  C_2
REMARK    2  A    between atoms: C_2  and  C_3
REMARK    3  A    between atoms: C_5  and  C_6
REMARK    4  A    between atoms: N_10  and  C_11
REMARK    5  A    between atoms: N_17  and  C_18
REMARK    6  A    between atoms: C_22  and  N_23
REMARK    7  A    between atoms: N_23  and  C_24
REMARK    8  A    between atoms: C_27  and  O_28
REMARK                            x       y       z     vdW  Elec       q    Type
REMARK                         _______ _______ _______ _____ _____    ______ ____
ROOT
ATOM      1  C   UNL     1       0.920   9.799  19.713  0.00  0.00    +0.000 A 
ATOM      2  N   UNL     1       0.606  11.054  20.124  0.00  0.00    +0.000 NA
ATOM      3  C   UNL     1       1.071  12.066  19.336  0.00  0.00    +0.000 A 
ATOM      4  C   UNL     1       1.925  11.846  18.242  0.00  0.00    +0.000 A 
ATOM      5  N   UNL     1       2.594  12.868  17.542  0.00  0.00    +0.000 N 
ATOM      6  N   UNL     1       2.212  10.573  17.842  0.00  0.00    +0.000 NA
ATOM      7  C   UNL     1       1.706   9.543  18.566  0.00  0.00    +0.000 A 
ATOM      8  H   UNL     1       3.190  12.449  16.835  0.00  0.00    +0.000 HD
ENDROOT
BRANCH   5   9
ATOM      9  C   UNL     1       3.173  14.028  18.117  0.00  0.00    +0.000 A 
ATOM     10  C   UNL     1       2.915  15.277  17.542  0.00  0.00    +0.000 A 
ATOM     11  C   UNL     1       3.353  16.467  18.151  0.00  0.00    +0.000 A 
ATOM     12  C   UNL     1       4.074  16.386  19.355  0.00  0.00    +0.000 A 
ATOM     13  C   UNL     1       4.623  17.298  20.285  0.00  0.00    +0.000 A 
ATOM     14  N   UNL     1       5.214  16.693  21.321  0.00  0.00    +0.000 NA
ATOM     15  N   UNL     1       5.036  15.384  21.057  0.00  0.00    +0.000 N 
ATOM     16  C   UNL     1       5.461  14.391  22.015  0.00  0.00    +0.000 C 
ATOM     17  C   UNL     1       4.375  15.135  19.877  0.00  0.00    +0.000 A 
ATOM     18  C   UNL     1       3.983  13.943  19.261  0.00  0.00    +0.000 A 
ENDBRANCH   5   9
BRANCH   3  19
ATOM     19  C   UNL     1       0.603  13.424  19.764  0.00  0.00    +0.000 C 
ATOM     20  N   UNL     1       0.921  13.769  21.058  0.00  0.00    +0.000 N 
ATOM     21  O   UNL     1      -0.048  14.183  19.060  0.00  0.00    +0.000 OA
ATOM     22  H   UNL     1       1.190  13.041  21.708  0.00  0.00    +0.000 HD
ATOM     23  H   UNL     1       0.533  14.633  21.410  0.00  0.00    +0.000 HD
ENDBRANCH   3  19
BRANCH   1  25
ATOM     24  C   UNL     1       1.143   8.798  21.990  0.00  0.00    +0.000 C 
ATOM     25  C   UNL     1       0.458   8.696  20.632  0.00  0.00    +0.000 C 
ENDBRANCH   1  25
BRANCH   7  26
ATOM     26  N   UNL     1       1.893   8.221  18.133  0.00  0.00    +0.000 N 
ATOM     27  H   UNL     1       1.043   7.675  18.209  0.00  0.00    +0.000 HD
BRANCH  26  28
ATOM     28  C   UNL     1       3.048   7.458  18.612  0.00  0.00    +0.000 C 
ATOM     29  C   UNL     1       2.588   6.153  19.282  0.00  0.00    +0.000 C 
ATOM     30  C   UNL     1       3.763   5.242  19.621  0.00  0.00    +0.000 C 
ATOM     31  C   UNL     1       4.590   4.918  18.382  0.00  0.00    +0.000 C 
ATOM     32  C   UNL     1       5.071   6.191  17.688  0.00  0.00    +0.000 C 
ATOM     33  C   UNL     1       3.913   7.132  17.372  0.00  0.00    +0.000 C 
BRANCH  31  34
ATOM     34  O   UNL     1       5.708   4.119  18.745  0.00  0.00    +0.000 OA
ATOM     35  H   UNL     1       5.827   3.433  18.067  0.00  0.00    +0.000 HD
ENDBRANCH  31  34
ENDBRANCH  26  28
ENDBRANCH   7  26
TORSDOF 6
ENDMDL
MODEL 6
REMARK VINA RESULT:      -7.1      2.306      3.486
REMARK  Name = 
REMARK  8 active torsions:
REMARK  status: ('A' for Active; 'I' for Inactive)
REMARK    1  A    between atoms: C_1  and  C_2
REMARK    2  A    between atoms: C_2  and  C_3
REMARK    3  A    between atoms: C_5  and  C_6
REMARK    4  A    between atoms: N_10  and  C_11
REMARK    5  A    between atoms: N_17  and  C_18
REMARK    6  A    between atoms: C_22  and  N_23
REMARK    7  A    between atoms: N_23  and  C_24
REMARK    8  A    between atoms: C_27  and  O_28
REMARK                            x       y       z     vdW  Elec       q    Type
REMARK                         _______ _______ _______ _____ _____    ______ ____
ROOT
ATOM      1  C   UNL     1       0.764  10.232  21.078  0.00  0.00    +0.000 A 
ATOM      2  N   UNL     1       0.617  11.462  21.630  0.00  0.00    +0.000 NA
ATOM      3  C   UNL     1       0.790  12.516  20.781  0.00  0.00    +0.000 A 
ATOM      4  C   UNL     1       1.215  12.356  19.451  0.00  0.00    +0.000 A 
ATOM      5  N   UNL     1       1.609  13.416  18.612  0.00  0.00    +0.000 N 
ATOM      6  N   UNL     1       1.339  11.106  18.917  0.00  0.00    +0.000 NA
ATOM      7  C   UNL     1       1.106  10.038  19.720  0.00  0.00    +0.000 A 
ATOM      8  H   UNL     1       1.924  13.037  17.725  0.00  0.00    +0.000 HD
ENDROOT
BRANCH   5   9
ATOM      9  C   UNL     1       2.357  14.554  19.008  0.00  0.00    +0.000 A 
ATOM     10  C   UNL     1       1.824  15.830  18.795  0.00  0.00    +0.000 A 
ATOM     11  C   UNL     1       2.463  16.982  19.290  0.00  0.00    +0.000 A 
ATOM     12  C   UNL     1       3.667  16.836  20.000  0.00  0.00    +0.000 A 
ATOM     13  C   UNL     1       4.562  17.687  20.687  0.00  0.00    +0.000 A 
ATOM     14  N   UNL     1       5.587  17.029  21.239  0.00  0.00    +0.000 NA
ATOM     15  N   UNL     1       5.343  15.745  20.911  0.00  0.00    +0.000 N 
ATOM     16  C   UNL     1       6.196  14.697  21.417  0.00  0.00    +0.000 C 
ATOM     17  C   UNL     1       4.213  15.567  20.147  0.00  0.00    +0.000 A 
ATOM     18  C   UNL     1       3.612  14.418  19.625  0.00  0.00    +0.000 A 
ENDBRANCH   5   9
BRANCH   3  19
ATOM     19  C   UNL     1       0.505  13.847  21.407  0.00  0.00    +0.000 C 
ATOM     20  N   UNL     1      -0.664  14.445  20.998  0.00  0.00    +0.000 N 
ATOM     21  O   UNL     1       1.250  14.412  22.196  0.00  0.00    +0.000 OA
ATOM     22  H   UNL     1      -1.111  14.121  20.149  0.00  0.00    +0.000 HD
ATOM     23  H   UNL     1      -0.835  15.387  21.322  0.00  0.00    +0.000 HD
ENDBRANCH   3  19
BRANCH   1  25
ATOM     24  C   UNL     1      -0.023   9.533  23.343  0.00  0.00    +0.000 C 
ATOM     25  C   UNL     1       0.639   9.082  22.047  0.00  0.00    +0.000 C 
ENDBRANCH   1  25
BRANCH   7  26
ATOM     26  N   UNL     1       1.125   8.739  19.187  0.00  0.00    +0.000 N 
ATOM     27  H   UNL     1       0.378   8.167  19.561  0.00  0.00    +0.000 HD
BRANCH  26  28
ATOM     28  C   UNL     1       2.384   7.992  19.144  0.00  0.00    +0.000 C 
ATOM     29  C   UNL     1       2.187   6.577  19.714  0.00  0.00    +0.000 C 
ATOM     30  C   UNL     1       3.422   5.705  19.511  0.00  0.00    +0.000 C 
ATOM     31  C   UNL     1       3.802   5.616  18.037  0.00  0.00    +0.000 C 
ATOM     32  C   UNL     1       4.011   7.002  17.434  0.00  0.00    +0.000 C 
ATOM     33  C   UNL     1       2.801   7.903  17.658  0.00  0.00    +0.000 C 
BRANCH  31  34
ATOM     34  O   UNL     1       4.989   4.846  17.893  0.00  0.00    +0.000 OA
ATOM     35  H   UNL     1       5.752   5.433  18.029  0.00  0.00    +0.000 HD
ENDBRANCH  31  34
ENDBRANCH  26  28
ENDBRANCH   7  26
TORSDOF 6
ENDMDL
MODEL 7
REMARK VINA RESULT:      -6.9      1.526      2.191
REMARK  Name = 
REMARK  8 active torsions:
REMARK  status: ('A' for Active; 'I' for Inactive)
REMARK    1  A    between atoms: C_1  and  C_2
REMARK    2  A    between atoms: C_2  and  C_3
REMARK    3  A    between atoms: C_5  and  C_6
REMARK    4  A    between atoms: N_10  and  C_11
REMARK    5  A    between atoms: N_17  and  C_18
REMARK    6  A    between atoms: C_22  and  N_23
REMARK    7  A    between atoms: N_23  and  C_24
REMARK    8  A    between atoms: C_27  and  O_28
REMARK                            x       y       z     vdW  Elec       q    Type
REMARK                         _______ _______ _______ _____ _____    ______ ____
ROOT
ATOM      1  C   UNL     1       2.064   6.798  19.900  0.00  0.00    +0.000 A 
ATOM      2  N   UNL     1       1.505   7.806  20.616  0.00  0.00    +0.000 NA
ATOM      3  C   UNL     1       1.144   8.909  19.900  0.00  0.00    +0.000 A 
ATOM      4  C   UNL     1       1.440   9.058  18.534  0.00  0.00    +0.000 A 
ATOM      5  N   UNL     1       1.279  10.258  17.815  0.00  0.00    +0.000 N 
ATOM      6  N   UNL     1       1.988   8.022  17.835  0.00  0.00    +0.000 NA
ATOM      7  C   UNL     1       2.295   6.884  18.508  0.00  0.00    +0.000 A 
ATOM      8  H   UNL     1       1.613  10.122  16.866  0.00  0.00    +0.000 HD
ENDROOT
BRANCH   5   9
ATOM      9  C   UNL     1       1.553  11.561  18.302  0.00  0.00    +0.000 A 
ATOM     10  C   UNL     1       2.832  12.100  18.131  0.00  0.00    +0.000 A 
ATOM     11  C   UNL     1       3.116  13.435  18.475  0.00  0.00    +0.000 A 
ATOM     12  C   UNL     1       2.088  14.229  19.012  0.00  0.00    +0.000 A 
ATOM     13  C   UNL     1       1.937  15.574  19.418  0.00  0.00    +0.000 A 
ATOM     14  N   UNL     1       0.703  15.852  19.851  0.00  0.00    +0.000 NA
ATOM     15  N   UNL     1       0.055  14.679  19.713  0.00  0.00    +0.000 N 
ATOM     16  C   UNL     1      -1.359  14.598  19.993  0.00  0.00    +0.000 C 
ATOM     17  C   UNL     1       0.841  13.658  19.233  0.00  0.00    +0.000 A 
ATOM     18  C   UNL     1       0.556  12.322  18.936  0.00  0.00    +0.000 A 
ENDBRANCH   5   9
BRANCH   3  19
ATOM     19  C   UNL     1       0.428   9.945  20.712  0.00  0.00    +0.000 C 
ATOM     20  N   UNL     1       1.157  10.478  21.750  0.00  0.00    +0.000 N 
ATOM     21  O   UNL     1      -0.729  10.292  20.523  0.00  0.00    +0.000 OA
ATOM     22  H   UNL     1       1.982   9.987  22.074  0.00  0.00    +0.000 HD
ATOM     23  H   UNL     1       0.671  11.103  22.379  0.00  0.00    +0.000 HD
ENDBRANCH   3  19
BRANCH   1  25
ATOM     24  C   UNL     1       1.469   4.513  20.713  0.00  0.00    +0.000 C 
ATOM     25  C   UNL     1       2.521   5.616  20.718  0.00  0.00    +0.000 C 
ENDBRANCH   1  25
BRANCH   7  26
ATOM     26  N   UNL     1       2.768   5.760  17.811  0.00  0.00    +0.000 N 
ATOM     27  H   UNL     1       2.597   4.902  18.320  0.00  0.00    +0.000 HD
BRANCH  26  28
ATOM     28  C   UNL     1       4.118   5.773  17.246  0.00  0.00    +0.000 C 
ATOM     29  C   UNL     1       5.155   6.069  18.342  0.00  0.00    +0.000 C 
ATOM     30  C   UNL     1       6.583   5.902  17.834  0.00  0.00    +0.000 C 
ATOM     31  C   UNL     1       6.814   4.502  17.276  0.00  0.00    +0.000 C 
ATOM     32  C   UNL     1       5.805   4.171  16.179  0.00  0.00    +0.000 C 
ATOM     33  C   UNL     1       4.370   4.366  16.656  0.00  0.00    +0.000 C 
BRANCH  31  34
ATOM     34  O   UNL     1       8.134   4.403  16.759  0.00  0.00    +0.000 OA
ATOM     35  H   UNL     1       8.144   4.792  15.868  0.00  0.00    +0.000 HD
ENDBRANCH  31  34
ENDBRANCH  26  28
ENDBRANCH   7  26
TORSDOF 6
ENDMDL
MODEL 8
REMARK VINA RESULT:      -6.9      4.688      6.725
REMARK  Name = 
REMARK  8 active torsions:
REMARK  status: ('A' for Active; 'I' for Inactive)
REMARK    1  A    between atoms: C_1  and  C_2
REMARK    2  A    between atoms: C_2  and  C_3
REMARK    3  A    between atoms: C_5  and  C_6
REMARK    4  A    between atoms: N_10  and  C_11
REMARK    5  A    between atoms: N_17  and  C_18
REMARK    6  A    between atoms: C_22  and  N_23
REMARK    7  A    between atoms: N_23  and  C_24
REMARK    8  A    between atoms: C_27  and  O_28
REMARK                            x       y       z     vdW  Elec       q    Type
REMARK                         _______ _______ _______ _____ _____    ______ ____
ROOT
ATOM      1  C   UNL     1       0.670  10.862  20.351  0.00  0.00    +0.000 A 
ATOM      2  N   UNL     1       1.209  11.812  21.155  0.00  0.00    +0.000 NA
ATOM      3  C   UNL     1       1.262  13.070  20.629  0.00  0.00    +0.000 A 
ATOM      4  C   UNL     1       0.904  13.353  19.300  0.00  0.00    +0.000 A 
ATOM      5  N   UNL     1       1.144  14.583  18.659  0.00  0.00    +0.000 N 
ATOM      6  N   UNL     1       0.349  12.381  18.519  0.00  0.00    +0.000 NA
ATOM      7  C   UNL     1       0.219  11.134  19.039  0.00  0.00    +0.000 A 
ATOM      8  H   UNL     1       0.844  14.517  17.692  0.00  0.00    +0.000 HD
ENDROOT
BRANCH   5   9
ATOM      9  C   UNL     1       2.303  15.385  18.811  0.00  0.00    +0.000 A 
ATOM     10  C   UNL     1       2.209  16.599  19.500  0.00  0.00    +0.000 A 
ATOM     11  C   UNL     1       3.352  17.365  19.793  0.00  0.00    +0.000 A 
ATOM     12  C   UNL     1       4.608  16.897  19.369  0.00  0.00    +0.000 A 
ATOM     13  C   UNL     1       5.954  17.308  19.501  0.00  0.00    +0.000 A 
ATOM     14  N   UNL     1       6.814  16.469  18.914  0.00  0.00    +0.000 NA
ATOM     15  N   UNL     1       6.015  15.509  18.409  0.00  0.00    +0.000 N 
ATOM     16  C   UNL     1       6.594  14.352  17.770  0.00  0.00    +0.000 C 
ATOM     17  C   UNL     1       4.675  15.721  18.632  0.00  0.00    +0.000 A 
ATOM     18  C   UNL     1       3.544  14.972  18.296  0.00  0.00    +0.000 A 
ENDBRANCH   5   9
BRANCH   3  19
ATOM     19  C   UNL     1       1.757  14.105  21.593  0.00  0.00    +0.000 C 
ATOM     20  N   UNL     1       0.787  14.935  22.106  0.00  0.00    +0.000 N 
ATOM     21  O   UNL     1       2.932  14.259  21.898  0.00  0.00    +0.000 OA
ATOM     22  H   UNL     1      -0.109  14.993  21.636  0.00  0.00    +0.000 HD
ATOM     23  H   UNL     1       1.100  15.707  22.678  0.00  0.00    +0.000 HD
ENDBRANCH   3  19
BRANCH   1  25
ATOM     24  C   UNL     1      -0.244   9.361  22.125  0.00  0.00    +0.000 C 
ATOM     25  C   UNL     1       0.684   9.466  20.921  0.00  0.00    +0.000 C 
ENDBRANCH   1  25
BRANCH   7  26
ATOM     26  N   UNL     1      -0.434  10.131  18.307  0.00  0.00    +0.000 N 
ATOM     27  H   UNL     1       0.002   9.974  17.407  0.00  0.00    +0.000 HD
BRANCH  26  28
ATOM     28  C   UNL     1      -1.893  10.158  18.181  0.00  0.00    +0.000 C 
ATOM     29  C   UNL     1      -2.456  11.466  18.761  0.00  0.00    +0.000 C 
ATOM     30  C   UNL     1      -3.947  11.619  18.478  0.00  0.00    +0.000 C 
ATOM     31  C   UNL     1      -4.237  11.554  16.982  0.00  0.00    +0.000 C 
ATOM     32  C   UNL     1      -3.697  10.265  16.368  0.00  0.00    +0.000 C 
ATOM     33  C   UNL     1      -2.214  10.075  16.671  0.00  0.00    +0.000 C 
BRANCH  31  34
ATOM     34  O   UNL     1      -5.639  11.640  16.761  0.00  0.00    +0.000 OA
ATOM     35  H   UNL     1      -6.005  10.739  16.765  0.00  0.00    +0.000 HD
ENDBRANCH  31  34
ENDBRANCH  26  28
ENDBRANCH   7  26
TORSDOF 6
ENDMDL
MODEL 9
REMARK VINA RESULT:      -6.8      2.257      3.006
REMARK  Name = 
REMARK  8 active torsions:
REMARK  status: ('A' for Active; 'I' for Inactive)
REMARK    1  A    between atoms: C_1  and  C_2
REMARK    2  A    between atoms: C_2  and  C_3
REMARK    3  A    between atoms: C_5  and  C_6
REMARK    4  A    between atoms: N_10  and  C_11
REMARK    5  A    between atoms: N_17  and  C_18
REMARK    6  A    between atoms: C_22  and  N_23
REMARK    7  A    between atoms: N_23  and  C_24
REMARK    8  A    between atoms: C_27  and  O_28
REMARK                            x       y       z     vdW  Elec       q    Type
REMARK                         _______ _______ _______ _____ _____    ______ ____
ROOT
ATOM      1  C   UNL     1       0.944   9.215  20.052  0.00  0.00    +0.000 A 
ATOM      2  N   UNL     1       0.504  10.343  20.664  0.00  0.00    +0.000 NA
ATOM      3  C   UNL     1       0.711  11.505  19.980  0.00  0.00    +0.000 A 
ATOM      4  C   UNL     1       1.443  11.560  18.781  0.00  0.00    +0.000 A 
ATOM      5  N   UNL     1       1.860  12.754  18.162  0.00  0.00    +0.000 N 
ATOM      6  N   UNL     1       1.860  10.408  18.180  0.00  0.00    +0.000 NA
ATOM      7  C   UNL     1       1.607   9.230  18.803  0.00  0.00    +0.000 A 
ATOM      8  H   UNL     1       2.417  12.526  17.345  0.00  0.00    +0.000 HD
ENDROOT
BRANCH   5   9
ATOM      9  C   UNL     1       2.330  13.914  18.828  0.00  0.00    +0.000 A 
ATOM     10  C   UNL     1       3.514  13.844  19.570  0.00  0.00    +0.000 A 
ATOM     11  C   UNL     1       4.092  14.995  20.137  0.00  0.00    +0.000 A 
ATOM     12  C   UNL     1       3.451  16.233  19.957  0.00  0.00    +0.000 A 
ATOM     13  C   UNL     1       3.712  17.581  20.292  0.00  0.00    +0.000 A 
ATOM     14  N   UNL     1       2.767  18.419  19.853  0.00  0.00    +0.000 NA
ATOM     15  N   UNL     1       1.898  17.604  19.224  0.00  0.00    +0.000 N 
ATOM     16  C   UNL     1       0.767  18.159  18.520  0.00  0.00    +0.000 C 
ATOM     17  C   UNL     1       2.244  16.273  19.270  0.00  0.00    +0.000 A 
ATOM     18  C   UNL     1       1.636  15.132  18.739  0.00  0.00    +0.000 A 
ENDBRANCH   5   9
BRANCH   3  19
ATOM     19  C   UNL     1       0.107  12.707  20.639  0.00  0.00    +0.000 C 
ATOM     20  N   UNL     1      -1.042  13.181  20.047  0.00  0.00    +0.000 N 
ATOM     21  O   UNL     1       0.588  13.278  21.608  0.00  0.00    +0.000 OA
ATOM     22  H   UNL     1      -1.261  12.895  19.101  0.00  0.00    +0.000 HD
ATOM     23  H   UNL     1      -1.417  14.049  20.404  0.00  0.00    +0.000 HD
ENDBRANCH   3  19
BRANCH   1  25
ATOM     24  C   UNL     1      -0.257   8.145  21.962  0.00  0.00    +0.000 C 
ATOM     25  C   UNL     1       0.769   7.949  20.853  0.00  0.00    +0.000 C 
ENDBRANCH   1  25
BRANCH   7  26
ATOM     26  N   UNL     1       1.930   8.017  18.174  0.00  0.00    +0.000 N 
ATOM     27  H   UNL     1       1.129   7.401  18.109  0.00  0.00    +0.000 HD
BRANCH  26  28
ATOM     28  C   UNL     1       3.124   7.280  18.590  0.00  0.00    +0.000 C 
ATOM     29  C   UNL     1       2.744   5.869  19.069  0.00  0.00    +0.000 C 
ATOM     30  C   UNL     1       3.974   5.006  19.329  0.00  0.00    +0.000 C 
ATOM     31  C   UNL     1       4.854   4.905  18.088  0.00  0.00    +0.000 C 
ATOM     32  C   UNL     1       5.258   6.288  17.582  0.00  0.00    +0.000 C 
ATOM     33  C   UNL     1       4.043   7.180  17.350  0.00  0.00    +0.000 C 
BRANCH  31  34
ATOM     34  O   UNL     1       6.017   4.144  18.385  0.00  0.00    +0.000 OA
ATOM     35  H   UNL     1       6.775   4.556  17.937  0.00  0.00    +0.000 HD
ENDBRANCH  31  34
ENDBRANCH  26  28
ENDBRANCH   7  26
TORSDOF 6
ENDMDL
