MODEL 1
REMARK VINA RESULT:      -7.7      0.000      0.000
REMARK  Name = 
REMARK  4 active torsions:
REMARK  status: ('A' for Active; 'I' for Inactive)
REMARK    1  A    between atoms: C_1  and  C_2
REMARK    2  A    between atoms: C_2  and  C_3
REMARK    3  A    between atoms: N_5  and  C_6
REMARK    4  A    between atoms: C_16  and  C_17
REMARK                            x       y       z     vdW  Elec       q    Type
REMARK                         _______ _______ _______ _____ _____    ______ ____
ROOT
ATOM      1  C   UNL     1       5.808   3.903  13.908  0.00  0.00    +0.000 A 
ATOM      2  C   UNL     1       5.855   5.250  13.532  0.00  0.00    +0.000 A 
ATOM      3  C   UNL     1       5.687   6.266  14.468  0.00  0.00    +0.000 A 
ATOM      4  C   UNL     1       5.461   5.943  15.800  0.00  0.00    +0.000 A 
ATOM      5  C   UNL     1       5.333   4.611  16.189  0.00  0.00    +0.000 A 
ATOM      6  C   UNL     1       5.502   3.585  15.238  0.00  0.00    +0.000 A 
ATOM      7  C   UNL     1       5.038   4.264  17.624  0.00  0.00    +0.000 C 
ATOM      8  N   UNL     1       4.098   3.258  17.865  0.00  0.00    +0.000 N 
ATOM      9  C   UNL     1       2.848   3.159  17.108  0.00  0.00    +0.000 C 
ATOM     10  C   UNL     1       1.642   3.386  18.019  0.00  0.00    +0.000 C 
ATOM     11  C   UNL     1       1.660   2.426  19.212  0.00  0.00    +0.000 C 
ATOM     12  C   UNL     1       0.469   2.675  20.137  0.00  0.00    +0.000 C 
ATOM     13  C   UNL     1       2.986   2.571  19.970  0.00  0.00    +0.000 C 
ATOM     14  C   UNL     1       4.188   2.396  19.044  0.00  0.00    +0.000 C 
ATOM     15  N   UNL     1       5.643   4.836  18.636  0.00  0.00    +0.000 NA
ATOM     16  C   UNL     1       6.570   5.891  18.501  0.00  0.00    +0.000 A 
ATOM     17  C   UNL     1       7.652   5.943  19.386  0.00  0.00    +0.000 A 
ATOM     18  C   UNL     1       8.577   6.996  19.342  0.00  0.00    +0.000 A 
ATOM     19  C   UNL     1       8.423   8.028  18.418  0.00  0.00    +0.000 A 
ATOM     20  C   UNL     1       7.343   8.009  17.542  0.00  0.00    +0.000 A 
ATOM     21  C   UNL     1       6.431   6.948  17.589  0.00  0.00    +0.000 A 
ATOM     22  O   UNL     1       5.390   6.980  16.691  0.00  0.00    +0.000 OA
ENDROOT
BRANCH   1  25
ATOM     23  C   UNL     1       5.262   2.575  11.882  0.00  0.00    +0.000 C 
ATOM     24  O   UNL     1       4.284   3.231  11.532  0.00  0.00    +0.000 OA
ATOM     25  N   UNL     1       6.063   2.857  12.985  0.00  0.00    +0.000 N 
ATOM     26  H   UNL     1       6.964   2.401  13.037  0.00  0.00    +0.000 HD
BRANCH  23  28
ATOM     27  C   UNL     1       7.232   1.346  10.972  0.00  0.00    +0.000 C 
ATOM     28  C   UNL     1       5.712   1.365  11.089  0.00  0.00    +0.000 C 
ENDBRANCH  23  28
ENDBRANCH   1  25
TORSDOF 2
ENDMDL
MODEL 2
REMARK VINA RESULT:      -7.4      9.607     12.283
REMARK  Name = 
REMARK  4 active torsions:
REMARK  status: ('A' for Active; 'I' for Inactive)
REMARK    1  A    between atoms: C_1  and  C_2
REMARK    2  A    between atoms: C_2  and  C_3
REMARK    3  A    between atoms: N_5  and  C_6
REMARK    4  A    between atoms: C_16  and  C_17
REMARK                            x       y       z     vdW  Elec       q    Type
REMARK                         _______ _______ _______ _____ _____    ______ ____
ROOT
ATOM      1  C   UNL     1       1.410  13.070  19.279  0.00  0.00    +0.000 A 
ATOM      2  C   UNL     1       1.824  11.826  18.789  0.00  0.00    +0.000 A 
ATOM      3  C   UNL     1       0.922  10.781  18.619  0.00  0.00    +0.000 A 
ATOM      4  C   UNL     1      -0.414  10.967  18.948  0.00  0.00    +0.000 A 
ATOM      5  C   UNL     1      -0.841  12.168  19.509  0.00  0.00    +0.000 A 
ATOM      6  C   UNL     1       0.076  13.225  19.681  0.00  0.00    +0.000 A 
ATOM      7  C   UNL     1      -2.280  12.351  19.910  0.00  0.00    +0.000 C 
ATOM      8  N   UNL     1      -2.535  12.984  21.131  0.00  0.00    +0.000 N 
ATOM      9  C   UNL     1      -1.760  12.693  22.339  0.00  0.00    +0.000 C 
ATOM     10  C   UNL     1      -2.643  12.051  23.409  0.00  0.00    +0.000 C 
ATOM     11  C   UNL     1      -3.864  12.923  23.716  0.00  0.00    +0.000 C 
ATOM     12  C   UNL     1      -4.761  12.266  24.764  0.00  0.00    +0.000 C 
ATOM     13  C   UNL     1      -4.640  13.197  22.420  0.00  0.00    +0.000 C 
ATOM     14  C   UNL     1      -3.740  13.788  21.337  0.00  0.00    +0.000 C 
ATOM     15  N   UNL     1      -3.285  11.976  19.158  0.00  0.00    +0.000 NA
ATOM     16  C   UNL     1      -3.134  11.289  17.935  0.00  0.00    +0.000 A 
ATOM     17  C   UNL     1      -4.036  11.566  16.902  0.00  0.00    +0.000 A 
ATOM     18  C   UNL     1      -3.977  10.877  15.681  0.00  0.00    +0.000 A 
ATOM     19  C   UNL     1      -3.020   9.884  15.482  0.00  0.00    +0.000 A 
ATOM     20  C   UNL     1      -2.126   9.576  16.502  0.00  0.00    +0.000 A 
ATOM     21  C   UNL     1      -2.190  10.277  17.713  0.00  0.00    +0.000 A 
ATOM     22  O   UNL     1      -1.273   9.934  18.680  0.00  0.00    +0.000 OA
ENDROOT
BRANCH   1  25
ATOM     23  C   UNL     1       3.053  14.469  20.506  0.00  0.00    +0.000 C 
ATOM     24  O   UNL     1       3.102  13.785  21.526  0.00  0.00    +0.000 OA
ATOM     25  N   UNL     1       2.297  14.172  19.376  0.00  0.00    +0.000 N 
ATOM     26  H   UNL     1       2.517  14.668  18.523  0.00  0.00    +0.000 HD
BRANCH  23  28
ATOM     27  C   UNL     1       3.032  16.949  20.774  0.00  0.00    +0.000 C 
ATOM     28  C   UNL     1       3.872  15.738  20.381  0.00  0.00    +0.000 C 
ENDBRANCH  23  28
ENDBRANCH   1  25
TORSDOF 2
ENDMDL
MODEL 3
REMARK VINA RESULT:      -7.2      9.882     12.449
REMARK  Name = 
REMARK  4 active torsions:
REMARK  status: ('A' for Active; 'I' for Inactive)
REMARK    1  A    between atoms: C_1  and  C_2
REMARK    2  A    between atoms: C_2  and  C_3
REMARK    3  A    between atoms: N_5  and  C_6
REMARK    4  A    between atoms: C_16  and  C_17
REMARK                            x       y       z     vdW  Elec       q    Type
REMARK                         _______ _______ _______ _____ _____    ______ ____
ROOT
ATOM      1  C   UNL     1       1.211  13.481  19.418  0.00  0.00    +0.000 A 
ATOM      2  C   UNL     1       1.728  12.269  18.949  0.00  0.00    +0.000 A 
ATOM      3  C   UNL     1       0.911  11.156  18.774  0.00  0.00    +0.000 A 
ATOM      4  C   UNL     1      -0.441  11.242  19.079  0.00  0.00    +0.000 A 
ATOM      5  C   UNL     1      -0.968  12.413  19.620  0.00  0.00    +0.000 A 
ATOM      6  C   UNL     1      -0.137  13.538  19.797  0.00  0.00    +0.000 A 
ATOM      7  C   UNL     1      -2.424  12.488  19.996  0.00  0.00    +0.000 C 
ATOM      8  N   UNL     1      -2.747  13.111  21.205  0.00  0.00    +0.000 N 
ATOM      9  C   UNL     1      -1.973  12.891  22.429  0.00  0.00    +0.000 C 
ATOM     10  C   UNL     1      -2.823  12.193  23.491  0.00  0.00    +0.000 C 
ATOM     11  C   UNL     1      -4.113  12.972  23.768  0.00  0.00    +0.000 C 
ATOM     12  C   UNL     1      -4.975  12.258  24.808  0.00  0.00    +0.000 C 
ATOM     13  C   UNL     1      -4.885  13.174  22.457  0.00  0.00    +0.000 C 
ATOM     14  C   UNL     1      -4.014  13.822  21.382  0.00  0.00    +0.000 C 
ATOM     15  N   UNL     1      -3.384  12.031  19.230  0.00  0.00    +0.000 NA
ATOM     16  C   UNL     1      -3.160  11.346  18.017  0.00  0.00    +0.000 A 
ATOM     17  C   UNL     1      -4.062  11.544  16.966  0.00  0.00    +0.000 A 
ATOM     18  C   UNL     1      -3.929  10.850  15.754  0.00  0.00    +0.000 A 
ATOM     19  C   UNL     1      -2.895   9.931  15.581  0.00  0.00    +0.000 A 
ATOM     20  C   UNL     1      -1.999   9.702  16.619  0.00  0.00    +0.000 A 
ATOM     21  C   UNL     1      -2.137  10.407  17.822  0.00  0.00    +0.000 A 
ATOM     22  O   UNL     1      -1.214  10.144  18.807  0.00  0.00    +0.000 OA
ENDROOT
BRANCH   1  25
ATOM     23  C   UNL     1       1.671  15.878  18.964  0.00  0.00    +0.000 C 
ATOM     24  O   UNL     1       0.618  16.126  18.382  0.00  0.00    +0.000 OA
ATOM     25  N   UNL     1       2.010  14.649  19.519  0.00  0.00    +0.000 N 
ATOM     26  H   UNL     1       2.783  14.628  20.171  0.00  0.00    +0.000 HD
BRANCH  23  28
ATOM     27  C   UNL     1       3.877  16.415  19.998  0.00  0.00    +0.000 C 
ATOM     28  C   UNL     1       2.725  16.950  19.154  0.00  0.00    +0.000 C 
ENDBRANCH  23  28
ENDBRANCH   1  25
TORSDOF 2
ENDMDL
MODEL 4
REMARK VINA RESULT:      -6.7      9.877     12.221
REMARK  Name = 
REMARK  4 active torsions:
REMARK  status: ('A' for Active; 'I' for Inactive)
REMARK    1  A    between atoms: C_1  and  C_2
REMARK    2  A    between atoms: C_2  and  C_3
REMARK    3  A    between atoms: N_5  and  C_6
REMARK    4  A    between atoms: C_16  and  C_17
REMARK                            x       y       z     vdW  Elec       q    Type
REMARK                         _______ _______ _______ _____ _____    ______ ____
ROOT
ATOM      1  C   UNL     1      -0.701  10.956  18.575  0.00  0.00    +0.000 A 
ATOM      2  C   UNL     1      -0.729  10.223  19.767  0.00  0.00    +0.000 A 
ATOM      3  C   UNL     1      -0.415  10.817  20.986  0.00  0.00    +0.000 A 
ATOM      4  C   UNL     1      -0.058  12.158  21.024  0.00  0.00    +0.000 A 
ATOM      5  C   UNL     1       0.053  12.892  19.845  0.00  0.00    +0.000 A 
ATOM      6  C   UNL     1      -0.265  12.287  18.612  0.00  0.00    +0.000 A 
ATOM      7  C   UNL     1       0.487  14.333  19.885  0.00  0.00    +0.000 C 
ATOM      8  N   UNL     1       1.403  14.758  18.917  0.00  0.00    +0.000 N 
ATOM      9  C   UNL     1       2.556  13.946  18.522  0.00  0.00    +0.000 C 
ATOM     10  C   UNL     1       3.864  14.640  18.902  0.00  0.00    +0.000 C 
ATOM     11  C   UNL     1       3.934  16.051  18.310  0.00  0.00    +0.000 C 
ATOM     12  C   UNL     1       5.229  16.755  18.715  0.00  0.00    +0.000 C 
ATOM     13  C   UNL     1       2.707  16.858  18.754  0.00  0.00    +0.000 C 
ATOM     14  C   UNL     1       1.404  16.134  18.421  0.00  0.00    +0.000 C 
ATOM     15  N   UNL     1       0.023  15.196  20.755  0.00  0.00    +0.000 NA
ATOM     16  C   UNL     1      -0.865  14.857  21.797  0.00  0.00    +0.000 A 
ATOM     17  C   UNL     1      -1.840  15.789  22.169  0.00  0.00    +0.000 A 
ATOM     18  C   UNL     1      -2.717  15.537  23.236  0.00  0.00    +0.000 A 
ATOM     19  C   UNL     1      -2.618  14.350  23.960  0.00  0.00    +0.000 A 
ATOM     20  C   UNL     1      -1.643  13.418  23.622  0.00  0.00    +0.000 A 
ATOM     21  C   UNL     1      -0.780  13.676  22.550  0.00  0.00    +0.000 A 
ATOM     22  O   UNL     1       0.157  12.712  22.259  0.00  0.00    +0.000 OA
ENDROOT
BRANCH   1  25
ATOM     23  C   UNL     1      -2.405  10.416  16.852  0.00  0.00    +0.000 C 
ATOM     24  O   UNL     1      -3.351  10.985  17.393  0.00  0.00    +0.000 OA
ATOM     25  N   UNL     1      -1.102  10.391  17.338  0.00  0.00    +0.000 N 
ATOM     26  H   UNL     1      -0.371  10.103  16.700  0.00  0.00    +0.000 HD
BRANCH  23  28
ATOM     27  C   UNL     1      -3.587  10.423  14.656  0.00  0.00    +0.000 C 
ATOM     28  C   UNL     1      -2.586   9.684  15.538  0.00  0.00    +0.000 C 
ENDBRANCH  23  28
ENDBRANCH   1  25
TORSDOF 2
ENDMDL
MODEL 5
REMARK VINA RESULT:      -6.7     10.755     13.329
REMARK  Name = 
REMARK  4 active torsions:
REMARK  status: ('A' for Active; 'I' for Inactive)
REMARK    1  A    between atoms: C_1  and  C_2
REMARK    2  A    between atoms: C_2  and  C_3
REMARK    3  A    between atoms: N_5  and  C_6
REMARK    4  A    between atoms: C_16  and  C_17
REMARK                            x       y       z     vdW  Elec       q    Type
REMARK                         _______ _______ _______ _____ _____    ______ ____
ROOT
ATOM      1  C   UNL     1       0.172  14.397  19.905  0.00  0.00    +0.000 A 
ATOM      2  C   UNL     1       0.949  13.265  19.635  0.00  0.00    +0.000 A 
ATOM      3  C   UNL     1       0.364  12.017  19.446  0.00  0.00    +0.000 A 
ATOM      4  C   UNL     1      -1.016  11.885  19.535  0.00  0.00    +0.000 A 
ATOM      5  C   UNL     1      -1.807  12.979  19.878  0.00  0.00    +0.000 A 
ATOM      6  C   UNL     1      -1.211  14.242  20.070  0.00  0.00    +0.000 A 
ATOM      7  C   UNL     1      -3.298  12.824  20.023  0.00  0.00    +0.000 C 
ATOM      8  N   UNL     1      -3.911  13.460  21.106  0.00  0.00    +0.000 N 
ATOM      9  C   UNL     1      -3.323  13.462  22.447  0.00  0.00    +0.000 C 
ATOM     10  C   UNL     1      -4.210  12.700  23.431  0.00  0.00    +0.000 C 
ATOM     11  C   UNL     1      -5.637  13.258  23.437  0.00  0.00    +0.000 C 
ATOM     12  C   UNL     1      -6.530  12.476  24.399  0.00  0.00    +0.000 C 
ATOM     13  C   UNL     1      -6.206  13.232  22.012  0.00  0.00    +0.000 C 
ATOM     14  C   UNL     1      -5.288  13.949  21.024  0.00  0.00    +0.000 C 
ATOM     15  N   UNL     1      -4.032  12.155  19.169  0.00  0.00    +0.000 NA
ATOM     16  C   UNL     1      -3.505  11.439  18.074  0.00  0.00    +0.000 A 
ATOM     17  C   UNL     1      -4.243  11.404  16.885  0.00  0.00    +0.000 A 
ATOM     18  C   UNL     1      -3.803  10.664  15.777  0.00  0.00    +0.000 A 
ATOM     19  C   UNL     1      -2.619   9.931  15.849  0.00  0.00    +0.000 A 
ATOM     20  C   UNL     1      -1.880   9.933  17.027  0.00  0.00    +0.000 A 
ATOM     21  C   UNL     1      -2.325  10.683  18.123  0.00  0.00    +0.000 A 
ATOM     22  O   UNL     1      -1.545  10.653  19.256  0.00  0.00    +0.000 OA
ENDROOT
BRANCH   1  25
ATOM     23  C   UNL     1       0.542  16.714  19.094  0.00  0.00    +0.000 C 
ATOM     24  O   UNL     1      -0.203  16.653  18.118  0.00  0.00    +0.000 OA
ATOM     25  N   UNL     1       0.744  15.690  20.014  0.00  0.00    +0.000 N 
ATOM     26  H   UNL     1       1.184  15.932  20.892  0.00  0.00    +0.000 HD
BRANCH  23  28
ATOM     27  C   UNL     1       1.092  18.398  20.850  0.00  0.00    +0.000 C 
ATOM     28  C   UNL     1       1.318  17.979  19.401  0.00  0.00    +0.000 C 
ENDBRANCH  23  28
ENDBRANCH   1  25
TORSDOF 2
ENDMDL
MODEL 6
REMARK VINA RESULT:      -6.7     11.213     13.875
REMARK  Name = 
REMARK  4 active torsions:
REMARK  status: ('A' for Active; 'I' for Inactive)
REMARK    1  A    between atoms: C_1  and  C_2
REMARK    2  A    between atoms: C_2  and  C_3
REMARK    3  A    between atoms: N_5  and  C_6
REMARK    4  A    between atoms: C_16  and  C_17
REMARK                            x       y       z     vdW  Elec       q    Type
REMARK                         _______ _______ _______ _____ _____    ______ ____
ROOT
ATOM      1  C   UNL     1      -3.545  13.724  24.088  0.00  0.00    +0.000 A 
ATOM      2  C   UNL     1      -2.855  14.693  24.824  0.00  0.00    +0.000 A 
ATOM      3  C   UNL     1      -1.556  15.062  24.490  0.00  0.00    +0.000 A 
ATOM      4  C   UNL     1      -0.925  14.454  23.412  0.00  0.00    +0.000 A 
ATOM      5  C   UNL     1      -1.560  13.433  22.709  0.00  0.00    +0.000 A 
ATOM      6  C   UNL     1      -2.875  13.060  23.052  0.00  0.00    +0.000 A 
ATOM      7  C   UNL     1      -0.855  12.741  21.572  0.00  0.00    +0.000 C 
ATOM      8  N   UNL     1      -0.973  11.350  21.490  0.00  0.00    +0.000 N 
ATOM      9  C   UNL     1      -0.886  10.488  22.670  0.00  0.00    +0.000 C 
ATOM     10  C   UNL     1       0.341   9.580  22.590  0.00  0.00    +0.000 C 
ATOM     11  C   UNL     1       0.344   8.766  21.291  0.00  0.00    +0.000 C 
ATOM     12  C   UNL     1       1.586   7.882  21.199  0.00  0.00    +0.000 C 
ATOM     13  C   UNL     1       0.253   9.716  20.089  0.00  0.00    +0.000 C 
ATOM     14  C   UNL     1      -0.945  10.657  20.202  0.00  0.00    +0.000 C 
ATOM     15  N   UNL     1      -0.177  13.385  20.655  0.00  0.00    +0.000 NA
ATOM     16  C   UNL     1       0.040  14.779  20.675  0.00  0.00    +0.000 A 
ATOM     17  C   UNL     1       0.070  15.464  19.456  0.00  0.00    +0.000 A 
ATOM     18  C   UNL     1       0.338  16.840  19.401  0.00  0.00    +0.000 A 
ATOM     19  C   UNL     1       0.598  17.551  20.572  0.00  0.00    +0.000 A 
ATOM     20  C   UNL     1       0.595  16.887  21.794  0.00  0.00    +0.000 A 
ATOM     21  C   UNL     1       0.318  15.515  21.836  0.00  0.00    +0.000 A 
ATOM     22  O   UNL     1       0.319  14.917  23.075  0.00  0.00    +0.000 OA
ENDROOT
BRANCH   1  25
ATOM     23  C   UNL     1      -5.984  13.926  23.670  0.00  0.00    +0.000 C 
ATOM     24  O   UNL     1      -5.909  14.680  22.702  0.00  0.00    +0.000 OA
ATOM     25  N   UNL     1      -4.898  13.398  24.361  0.00  0.00    +0.000 N 
ATOM     26  H   UNL     1      -5.073  12.614  24.976  0.00  0.00    +0.000 HD
BRANCH  23  28
ATOM     27  C   UNL     1      -7.816  12.251  23.421  0.00  0.00    +0.000 C 
ATOM     28  C   UNL     1      -7.330  13.470  24.197  0.00  0.00    +0.000 C 
ENDBRANCH  23  28
ENDBRANCH   1  25
TORSDOF 2
ENDMDL
MODEL 7
REMARK VINA RESULT:      -6.6      9.049     11.508
REMARK  Name = 
REMARK  4 active torsions:
REMARK  status: ('A' for Active; 'I' for Inactive)
REMARK    1  A    between atoms: C_1  and  C_2
REMARK    2  A    between atoms: C_2  and  C_3
REMARK    3  A    between atoms: N_5  and  C_6
REMARK    4  A    between atoms: C_16  and  C_17
REMARK                            x       y       z     vdW  Elec       q    Type
REMARK                         _______ _______ _______ _____ _____    ______ ____
ROOT
ATOM      1  C   UNL     1      -2.052  13.251  21.174  0.00  0.00    +0.000 A 
ATOM      2  C   UNL     1      -1.469  14.085  22.135  0.00  0.00    +0.000 A 
ATOM      3  C   UNL     1      -0.087  14.217  22.231  0.00  0.00    +0.000 A 
ATOM      4  C   UNL     1       0.733  13.504  21.365  0.00  0.00    +0.000 A 
ATOM      5  C   UNL     1       0.182  12.610  20.451  0.00  0.00    +0.000 A 
ATOM      6  C   UNL     1      -1.218  12.477  20.357  0.00  0.00    +0.000 A 
ATOM      7  C   UNL     1       1.075  11.801  19.547  0.00  0.00    +0.000 C 
ATOM      8  N   UNL     1       0.754  10.453  19.360  0.00  0.00    +0.000 N 
ATOM      9  C   UNL     1       0.325   9.591  20.464  0.00  0.00    +0.000 C 
ATOM     10  C   UNL     1       1.345   8.480  20.713  0.00  0.00    +0.000 C 
ATOM     11  C   UNL     1       1.611   7.676  19.437  0.00  0.00    +0.000 C 
ATOM     12  C   UNL     1       2.652   6.585  19.680  0.00  0.00    +0.000 C 
ATOM     13  C   UNL     1       2.057   8.623  18.315  0.00  0.00    +0.000 C 
ATOM     14  C   UNL     1       1.061   9.763  18.108  0.00  0.00    +0.000 C 
ATOM     15  N   UNL     1       2.102  12.312  18.915  0.00  0.00    +0.000 NA
ATOM     16  C   UNL     1       2.536  13.645  19.073  0.00  0.00    +0.000 A 
ATOM     17  C   UNL     1       3.056  14.311  17.958  0.00  0.00    +0.000 A 
ATOM     18  C   UNL     1       3.557  15.618  18.060  0.00  0.00    +0.000 A 
ATOM     19  C   UNL     1       3.560  16.274  19.289  0.00  0.00    +0.000 A 
ATOM     20  C   UNL     1       3.067  15.625  20.416  0.00  0.00    +0.000 A 
ATOM     21  C   UNL     1       2.562  14.324  20.300  0.00  0.00    +0.000 A 
ATOM     22  O   UNL     1       2.080  13.738  21.447  0.00  0.00    +0.000 OA
ENDROOT
BRANCH   1  25
ATOM     23  C   UNL     1      -4.330  12.636  21.947  0.00  0.00    +0.000 C 
ATOM     24  O   UNL     1      -4.007  12.233  23.062  0.00  0.00    +0.000 OA
ATOM     25  N   UNL     1      -3.458  13.171  21.005  0.00  0.00    +0.000 N 
ATOM     26  H   UNL     1      -3.863  13.683  20.231  0.00  0.00    +0.000 HD
BRANCH  23  28
ATOM     27  C   UNL     1      -5.857  12.504  19.979  0.00  0.00    +0.000 C 
ATOM     28  C   UNL     1      -5.777  12.604  21.498  0.00  0.00    +0.000 C 
ENDBRANCH  23  28
ENDBRANCH   1  25
TORSDOF 2
ENDMDL
MODEL 8
REMARK VINA RESULT:      -6.5      8.861     11.737
REMARK  Name = 
REMARK  4 active torsions:
REMARK  status: ('A' for Active; 'I' for Inactive)
REMARK    1  A    between atoms: C_1  and  C_2
REMARK    2  A    between atoms: C_2  and  C_3
REMARK    3  A    between atoms: N_5  and  C_6
REMARK    4  A    between atoms: C_16  and  C_17
REMARK                            x       y       z     vdW  Elec       q    Type
REMARK                         _______ _______ _______ _____ _____    ______ ____
ROOT
ATOM      1  C   UNL     1       0.692   9.224  21.712  0.00  0.00    +0.000 A 
ATOM      2  C   UNL     1       0.046   9.251  22.953  0.00  0.00    +0.000 A 
ATOM      3  C   UNL     1      -0.673  10.369  23.367  0.00  0.00    +0.000 A 
ATOM      4  C   UNL     1      -0.746  11.482  22.541  0.00  0.00    +0.000 A 
ATOM      5  C   UNL     1      -0.050  11.512  21.335  0.00  0.00    +0.000 A 
ATOM      6  C   UNL     1       0.678  10.379  20.919  0.00  0.00    +0.000 A 
ATOM      7  C   UNL     1      -0.092  12.740  20.464  0.00  0.00    +0.000 C 
ATOM      8  N   UNL     1       1.108  13.156  19.878  0.00  0.00    +0.000 N 
ATOM      9  C   UNL     1       2.376  13.162  20.612  0.00  0.00    +0.000 C 
ATOM     10  C   UNL     1       2.899  14.588  20.779  0.00  0.00    +0.000 C 
ATOM     11  C   UNL     1       3.025  15.294  19.425  0.00  0.00    +0.000 C 
ATOM     12  C   UNL     1       3.520  16.730  19.596  0.00  0.00    +0.000 C 
ATOM     13  C   UNL     1       1.673  15.261  18.700  0.00  0.00    +0.000 C 
ATOM     14  C   UNL     1       1.128  13.839  18.584  0.00  0.00    +0.000 C 
ATOM     15  N   UNL     1      -1.194  13.400  20.212  0.00  0.00    +0.000 NA
ATOM     16  C   UNL     1      -2.443  13.090  20.790  0.00  0.00    +0.000 A 
ATOM     17  C   UNL     1      -3.595  13.262  20.015  0.00  0.00    +0.000 A 
ATOM     18  C   UNL     1      -4.872  13.026  20.548  0.00  0.00    +0.000 A 
ATOM     19  C   UNL     1      -5.015  12.628  21.876  0.00  0.00    +0.000 A 
ATOM     20  C   UNL     1      -3.885  12.471  22.672  0.00  0.00    +0.000 A 
ATOM     21  C   UNL     1      -2.616  12.701  22.126  0.00  0.00    +0.000 A 
ATOM     22  O   UNL     1      -1.538  12.519  22.960  0.00  0.00    +0.000 OA
ENDROOT
BRANCH   1  25
ATOM     23  C   UNL     1       1.803   7.899  19.930  0.00  0.00    +0.000 C 
ATOM     24  O   UNL     1       1.745   8.753  19.049  0.00  0.00    +0.000 OA
ATOM     25  N   UNL     1       1.355   8.064  21.237  0.00  0.00    +0.000 N 
ATOM     26  H   UNL     1       1.667   7.392  21.926  0.00  0.00    +0.000 HD
BRANCH  23  28
ATOM     27  C   UNL     1       1.820   5.493  20.588  0.00  0.00    +0.000 C 
ATOM     28  C   UNL     1       2.420   6.542  19.658  0.00  0.00    +0.000 C 
ENDBRANCH  23  28
ENDBRANCH   1  25
TORSDOF 2
ENDMDL
MODEL 9
REMARK VINA RESULT:      -6.5      9.883     12.145
REMARK  Name = 
REMARK  4 active torsions:
REMARK  status: ('A' for Active; 'I' for Inactive)
REMARK    1  A    between atoms: C_1  and  C_2
REMARK    2  A    between atoms: C_2  and  C_3
REMARK    3  A    between atoms: N_5  and  C_6
REMARK    4  A    between atoms: C_16  and  C_17
REMARK                            x       y       z     vdW  Elec       q    Type
REMARK                         _______ _______ _______ _____ _____    ______ ____
ROOT
ATOM      1  C   UNL     1      -1.688  11.019  17.591  0.00  0.00    +0.000 A 
ATOM      2  C   UNL     1      -1.601   9.962  18.504  0.00  0.00    +0.000 A 
ATOM      3  C   UNL     1      -1.178  10.172  19.812  0.00  0.00    +0.000 A 
ATOM      4  C   UNL     1      -0.826  11.451  20.223  0.00  0.00    +0.000 A 
ATOM      5  C   UNL     1      -0.829  12.508  19.316  0.00  0.00    +0.000 A 
ATOM      6  C   UNL     1      -1.257  12.292  17.990  0.00  0.00    +0.000 A 
ATOM      7  C   UNL     1      -0.399  13.884  19.751  0.00  0.00    +0.000 C 
ATOM      8  N   UNL     1       0.420  14.610  18.880  0.00  0.00    +0.000 N 
ATOM      9  C   UNL     1       1.536  13.992  18.160  0.00  0.00    +0.000 C 
ATOM     10  C   UNL     1       2.870  14.582  18.616  0.00  0.00    +0.000 C 
ATOM     11  C   UNL     1       2.878  16.108  18.474  0.00  0.00    +0.000 C 
ATOM     12  C   UNL     1       4.202  16.698  18.958  0.00  0.00    +0.000 C 
ATOM     13  C   UNL     1       1.694  16.703  19.247  0.00  0.00    +0.000 C 
ATOM     14  C   UNL     1       0.369  16.071  18.825  0.00  0.00    +0.000 C 
ATOM     15  N   UNL     1      -0.785  14.430  20.877  0.00  0.00    +0.000 NA
ATOM     16  C   UNL     1      -1.570  13.765  21.842  0.00  0.00    +0.000 A 
ATOM     17  C   UNL     1      -2.511  14.510  22.561  0.00  0.00    +0.000 A 
ATOM     18  C   UNL     1      -3.284  13.922  23.574  0.00  0.00    +0.000 A 
ATOM     19  C   UNL     1      -3.113  12.576  23.894  0.00  0.00    +0.000 A 
ATOM     20  C   UNL     1      -2.169  11.821  23.208  0.00  0.00    +0.000 A 
ATOM     21  C   UNL     1      -1.410  12.417  22.193  0.00  0.00    +0.000 A 
ATOM     22  O   UNL     1      -0.500  11.615  21.543  0.00  0.00    +0.000 OA
ENDROOT
BRANCH   1  25
ATOM     23  C   UNL     1      -3.554  10.802  15.968  0.00  0.00    +0.000 C 
ATOM     24  O   UNL     1      -4.470  10.987  16.766  0.00  0.00    +0.000 OA
ATOM     25  N   UNL     1      -2.199  10.839  16.281  0.00  0.00    +0.000 N 
ATOM     26  H   UNL     1      -1.545  10.911  15.512  0.00  0.00    +0.000 HD
BRANCH  23  28
ATOM     27  C   UNL     1      -2.725   9.689  13.895  0.00  0.00    +0.000 C 
ATOM     28  C   UNL     1      -3.841  10.530  14.505  0.00  0.00    +0.000 C 
ENDBRANCH  23  28
ENDBRANCH   1  25
TORSDOF 2
ENDMDL
