MODEL 1
REMARK VINA RESULT:      -7.7      0.000      0.000
REMARK  Name = 
REMARK  6 active torsions:
REMARK  status: ('A' for Active; 'I' for Inactive)
REMARK    1  A    between atoms: C_1  and  O_2
REMARK    2  A    between atoms: O_2  and  C_3
REMARK    3  A    between atoms: C_7  and  C_8
REMARK    4  A    between atoms: C_8  and  C_9
REMARK    5  A    between atoms: C_12  and  C_13
REMARK    6  A    between atoms: C_16  and  O_17
REMARK                            x       y       z     vdW  Elec       q    Type
REMARK                         _______ _______ _______ _____ _____    ______ ____
ROOT
ATOM      1  C   UNL     1       5.663   4.467  16.790  0.00  0.00    +0.000 A 
ATOM      2  N   UNL     1       4.874   5.520  17.106  0.00  0.00    +0.000 NA
ATOM      3  C   UNL     1       3.747   4.958  17.567  0.00  0.00    +0.000 A 
ATOM      4  C   UNL     1       2.600   5.606  18.024  0.00  0.00    +0.000 A 
ATOM      5  C   UNL     1       2.501   7.102  18.047  0.00  0.00    +0.000 C 
ATOM      6  C   UNL     1       1.530   4.796  18.460  0.00  0.00    +0.000 A 
ATOM      7  C   UNL     1       1.633   3.386  18.418  0.00  0.00    +0.000 A 
ATOM      8  C   UNL     1       2.809   2.766  17.940  0.00  0.00    +0.000 A 
ATOM      9  C   UNL     1       3.854   3.597  17.526  0.00  0.00    +0.000 A 
ATOM     10  N   UNL     1       5.063   3.271  17.035  0.00  0.00    +0.000 N 
ATOM     11  H   UNL     1       5.448   2.313  16.867  0.00  0.00    +0.000 HD
ENDROOT
BRANCH   8  12
ATOM     12  O   UNL     1       2.921   1.423  17.883  0.00  0.00    +0.000 OA
ATOM     13  H   UNL     1       3.330   0.917  18.601  0.00  0.00    +0.000 HD
ENDBRANCH   8  12
BRANCH   1  14
ATOM     14  C   UNL     1       7.027   4.637  16.184  0.00  0.00    +0.000 C 
BRANCH  14  19
ATOM     15  C   UNL     1       6.131   3.596  12.602  0.00  0.00    +0.000 A 
ATOM     16  C   UNL     1       6.983   4.417  11.856  0.00  0.00    +0.000 A 
ATOM     17  C   UNL     1       7.850   5.304  12.497  0.00  0.00    +0.000 A 
ATOM     18  C   UNL     1       7.874   5.381  13.892  0.00  0.00    +0.000 A 
ATOM     19  C   UNL     1       7.036   4.557  14.668  0.00  0.00    +0.000 A 
ATOM     20  C   UNL     1       6.165   3.670  14.012  0.00  0.00    +0.000 A 
BRANCH  15  22
ATOM     21  C   UNL     1       4.146   3.132  11.272  0.00  0.00    +0.000 C 
ATOM     22  O   UNL     1       5.297   2.757  11.935  0.00  0.00    +0.000 OA
ENDBRANCH  15  22
ENDBRANCH  14  19
ENDBRANCH   1  14
TORSDOF 4
ENDMDL
MODEL 2
REMARK VINA RESULT:      -7.5      3.350      4.846
REMARK  Name = 
REMARK  6 active torsions:
REMARK  status: ('A' for Active; 'I' for Inactive)
REMARK    1  A    between atoms: C_1  and  O_2
REMARK    2  A    between atoms: O_2  and  C_3
REMARK    3  A    between atoms: C_7  and  C_8
REMARK    4  A    between atoms: C_8  and  C_9
REMARK    5  A    between atoms: C_12  and  C_13
REMARK    6  A    between atoms: C_16  and  O_17
REMARK                            x       y       z     vdW  Elec       q    Type
REMARK                         _______ _______ _______ _____ _____    ______ ____
ROOT
ATOM      1  C   UNL     1       4.052   5.138  17.504  0.00  0.00    +0.000 A 
ATOM      2  N   UNL     1       3.440   5.823  18.498  0.00  0.00    +0.000 NA
ATOM      3  C   UNL     1       2.564   4.946  19.008  0.00  0.00    +0.000 A 
ATOM      4  C   UNL     1       1.671   5.151  20.060  0.00  0.00    +0.000 A 
ATOM      5  C   UNL     1       1.593   6.465  20.778  0.00  0.00    +0.000 C 
ATOM      6  C   UNL     1       0.837   4.072  20.420  0.00  0.00    +0.000 A 
ATOM      7  C   UNL     1       0.911   2.843  19.724  0.00  0.00    +0.000 A 
ATOM      8  C   UNL     1       1.824   2.676  18.658  0.00  0.00    +0.000 A 
ATOM      9  C   UNL     1       2.643   3.761  18.333  0.00  0.00    +0.000 A 
ATOM     10  N   UNL     1       3.581   3.869  17.376  0.00  0.00    +0.000 N 
ATOM     11  H   UNL     1       3.873   3.143  16.682  0.00  0.00    +0.000 HD
ENDROOT
BRANCH   8  12
ATOM     12  O   UNL     1       1.901   1.515  17.976  0.00  0.00    +0.000 OA
ATOM     13  H   UNL     1       2.246   1.480  17.070  0.00  0.00    +0.000 HD
ENDBRANCH   8  12
BRANCH   1  14
ATOM     14  C   UNL     1       5.094   5.763  16.619  0.00  0.00    +0.000 C 
BRANCH  14  19
ATOM     15  C   UNL     1       7.796   8.180  17.873  0.00  0.00    +0.000 A 
ATOM     16  C   UNL     1       8.470   7.380  18.802  0.00  0.00    +0.000 A 
ATOM     17  C   UNL     1       8.064   6.064  19.029  0.00  0.00    +0.000 A 
ATOM     18  C   UNL     1       6.978   5.532  18.328  0.00  0.00    +0.000 A 
ATOM     19  C   UNL     1       6.290   6.310  17.377  0.00  0.00    +0.000 A 
ATOM     20  C   UNL     1       6.705   7.635  17.160  0.00  0.00    +0.000 A 
BRANCH  15  22
ATOM     21  C   UNL     1       8.978  10.183  18.592  0.00  0.00    +0.000 C 
ATOM     22  O   UNL     1       8.220   9.458  17.695  0.00  0.00    +0.000 OA
ENDBRANCH  15  22
ENDBRANCH  14  19
ENDBRANCH   1  14
TORSDOF 4
ENDMDL
MODEL 3
REMARK VINA RESULT:      -7.1      4.591      7.615
REMARK  Name = 
REMARK  6 active torsions:
REMARK  status: ('A' for Active; 'I' for Inactive)
REMARK    1  A    between atoms: C_1  and  O_2
REMARK    2  A    between atoms: O_2  and  C_3
REMARK    3  A    between atoms: C_7  and  C_8
REMARK    4  A    between atoms: C_8  and  C_9
REMARK    5  A    between atoms: C_12  and  C_13
REMARK    6  A    between atoms: C_16  and  O_17
REMARK                            x       y       z     vdW  Elec       q    Type
REMARK                         _______ _______ _______ _____ _____    ______ ____
ROOT
ATOM      1  C   UNL     1       3.019   6.619  18.368  0.00  0.00    +0.000 A 
ATOM      2  N   UNL     1       2.068   5.808  18.888  0.00  0.00    +0.000 NA
ATOM      3  C   UNL     1       2.733   4.690  19.210  0.00  0.00    +0.000 A 
ATOM      4  C   UNL     1       2.214   3.528  19.781  0.00  0.00    +0.000 A 
ATOM      5  C   UNL     1       0.757   3.401  20.114  0.00  0.00    +0.000 C 
ATOM      6  C   UNL     1       3.114   2.471  20.029  0.00  0.00    +0.000 A 
ATOM      7  C   UNL     1       4.483   2.599  19.695  0.00  0.00    +0.000 A 
ATOM      8  C   UNL     1       4.970   3.790  19.110  0.00  0.00    +0.000 A 
ATOM      9  C   UNL     1       4.054   4.822  18.888  0.00  0.00    +0.000 A 
ATOM     10  N   UNL     1       4.250   6.039  18.352  0.00  0.00    +0.000 N 
ATOM     11  H   UNL     1       5.145   6.443  17.993  0.00  0.00    +0.000 HD
ENDROOT
BRANCH   8  12
ATOM     12  O   UNL     1       6.269   3.927  18.776  0.00  0.00    +0.000 OA
ATOM     13  H   UNL     1       6.558   3.931  17.851  0.00  0.00    +0.000 HD
ENDBRANCH   8  12
BRANCH   1  14
ATOM     14  C   UNL     1       2.704   7.983  17.824  0.00  0.00    +0.000 C 
BRANCH  14  19
ATOM     15  C   UNL     1       0.749   9.314  20.844  0.00  0.00    +0.000 A 
ATOM     16  C   UNL     1      -0.143  10.197  20.226  0.00  0.00    +0.000 A 
ATOM     17  C   UNL     1      -0.124  10.368  18.841  0.00  0.00    +0.000 A 
ATOM     18  C   UNL     1       0.788   9.656  18.057  0.00  0.00    +0.000 A 
ATOM     19  C   UNL     1       1.689   8.751  18.651  0.00  0.00    +0.000 A 
ATOM     20  C   UNL     1       1.663   8.590  20.047  0.00  0.00    +0.000 A 
BRANCH  15  22
ATOM     21  C   UNL     1      -0.314   9.651  23.007  0.00  0.00    +0.000 C 
ATOM     22  O   UNL     1       0.702   9.189  22.195  0.00  0.00    +0.000 OA
ENDBRANCH  15  22
ENDBRANCH  14  19
ENDBRANCH   1  14
TORSDOF 4
ENDMDL
MODEL 4
REMARK VINA RESULT:      -7.1      3.530      7.503
REMARK  Name = 
REMARK  6 active torsions:
REMARK  status: ('A' for Active; 'I' for Inactive)
REMARK    1  A    between atoms: C_1  and  O_2
REMARK    2  A    between atoms: O_2  and  C_3
REMARK    3  A    between atoms: C_7  and  C_8
REMARK    4  A    between atoms: C_8  and  C_9
REMARK    5  A    between atoms: C_12  and  C_13
REMARK    6  A    between atoms: C_16  and  O_17
REMARK                            x       y       z     vdW  Elec       q    Type
REMARK                         _______ _______ _______ _____ _____    ______ ____
ROOT
ATOM      1  C   UNL     1       3.599   5.625  18.966  0.00  0.00    +0.000 A 
ATOM      2  N   UNL     1       3.816   5.229  17.691  0.00  0.00    +0.000 NA
ATOM      3  C   UNL     1       5.142   5.044  17.627  0.00  0.00    +0.000 A 
ATOM      4  C   UNL     1       5.891   4.636  16.524  0.00  0.00    +0.000 A 
ATOM      5  C   UNL     1       5.246   4.344  15.202  0.00  0.00    +0.000 C 
ATOM      6  C   UNL     1       7.286   4.514  16.698  0.00  0.00    +0.000 A 
ATOM      7  C   UNL     1       7.883   4.808  17.946  0.00  0.00    +0.000 A 
ATOM      8  C   UNL     1       7.091   5.227  19.039  0.00  0.00    +0.000 A 
ATOM      9  C   UNL     1       5.712   5.327  18.836  0.00  0.00    +0.000 A 
ATOM     10  N   UNL     1       4.745   5.698  19.695  0.00  0.00    +0.000 N 
ATOM     11  H   UNL     1       4.854   5.988  20.693  0.00  0.00    +0.000 HD
ENDROOT
BRANCH   8  12
ATOM     12  O   UNL     1       7.643   5.521  20.234  0.00  0.00    +0.000 OA
ATOM     13  H   UNL     1       7.121   5.513  21.050  0.00  0.00    +0.000 HD
ENDBRANCH   8  12
BRANCH   1  14
ATOM     14  C   UNL     1       2.233   5.993  19.473  0.00  0.00    +0.000 C 
BRANCH  14  19
ATOM     15  C   UNL     1       1.101   9.576  20.242  0.00  0.00    +0.000 A 
ATOM     16  C   UNL     1       1.285  10.195  19.001  0.00  0.00    +0.000 A 
ATOM     17  C   UNL     1       1.769   9.467  17.913  0.00  0.00    +0.000 A 
ATOM     18  C   UNL     1       2.075   8.111  18.054  0.00  0.00    +0.000 A 
ATOM     19  C   UNL     1       1.887   7.460  19.288  0.00  0.00    +0.000 A 
ATOM     20  C   UNL     1       1.402   8.203  20.378  0.00  0.00    +0.000 A 
BRANCH  15  22
ATOM     21  C   UNL     1      -0.247   9.900  22.243  0.00  0.00    +0.000 C 
ATOM     22  O   UNL     1       0.638  10.328  21.275  0.00  0.00    +0.000 OA
ENDBRANCH  15  22
ENDBRANCH  14  19
ENDBRANCH   1  14
TORSDOF 4
ENDMDL
MODEL 5
REMARK VINA RESULT:      -7.1      3.932      6.536
REMARK  Name = 
REMARK  6 active torsions:
REMARK  status: ('A' for Active; 'I' for Inactive)
REMARK    1  A    between atoms: C_1  and  O_2
REMARK    2  A    between atoms: O_2  and  C_3
REMARK    3  A    between atoms: C_7  and  C_8
REMARK    4  A    between atoms: C_8  and  C_9
REMARK    5  A    between atoms: C_12  and  C_13
REMARK    6  A    between atoms: C_16  and  O_17
REMARK                            x       y       z     vdW  Elec       q    Type
REMARK                         _______ _______ _______ _____ _____    ______ ____
ROOT
ATOM      1  C   UNL     1       1.802   6.930  20.244  0.00  0.00    +0.000 A 
ATOM      2  N   UNL     1       1.188   7.647  21.214  0.00  0.00    +0.000 NA
ATOM      3  C   UNL     1       1.022   8.860  20.668  0.00  0.00    +0.000 A 
ATOM      4  C   UNL     1       0.439   9.982  21.255  0.00  0.00    +0.000 A 
ATOM      5  C   UNL     1      -0.098   9.946  22.655  0.00  0.00    +0.000 C 
ATOM      6  C   UNL     1       0.379  11.160  20.480  0.00  0.00    +0.000 A 
ATOM      7  C   UNL     1       0.904  11.183  19.167  0.00  0.00    +0.000 A 
ATOM      8  C   UNL     1       1.494  10.027  18.610  0.00  0.00    +0.000 A 
ATOM      9  C   UNL     1       1.528   8.874  19.400  0.00  0.00    +0.000 A 
ATOM     10  N   UNL     1       2.027   7.658  19.117  0.00  0.00    +0.000 N 
ATOM     11  H   UNL     1       2.493   7.347  18.235  0.00  0.00    +0.000 HD
ENDROOT
BRANCH   8  12
ATOM     12  O   UNL     1       2.009  10.033  17.363  0.00  0.00    +0.000 OA
ATOM     13  H   UNL     1       1.951  10.815  16.793  0.00  0.00    +0.000 HD
ENDBRANCH   8  12
BRANCH   1  14
ATOM     14  C   UNL     1       2.226   5.502  20.445  0.00  0.00    +0.000 C 
BRANCH  14  19
ATOM     15  C   UNL     1       5.327   4.463  18.441  0.00  0.00    +0.000 A 
ATOM     16  C   UNL     1       4.742   3.916  17.293  0.00  0.00    +0.000 A 
ATOM     17  C   UNL     1       3.354   3.882  17.155  0.00  0.00    +0.000 A 
ATOM     18  C   UNL     1       2.533   4.393  18.164  0.00  0.00    +0.000 A 
ATOM     19  C   UNL     1       3.095   4.960  19.324  0.00  0.00    +0.000 A 
ATOM     20  C   UNL     1       4.495   4.987  19.454  0.00  0.00    +0.000 A 
BRANCH  15  22
ATOM     21  C   UNL     1       7.558   4.626  17.482  0.00  0.00    +0.000 C 
ATOM     22  O   UNL     1       6.682   4.464  18.536  0.00  0.00    +0.000 OA
ENDBRANCH  15  22
ENDBRANCH  14  19
ENDBRANCH   1  14
TORSDOF 4
ENDMDL
MODEL 6
REMARK VINA RESULT:      -7.1      1.977      2.697
REMARK  Name = 
REMARK  6 active torsions:
REMARK  status: ('A' for Active; 'I' for Inactive)
REMARK    1  A    between atoms: C_1  and  O_2
REMARK    2  A    between atoms: O_2  and  C_3
REMARK    3  A    between atoms: C_7  and  C_8
REMARK    4  A    between atoms: C_8  and  C_9
REMARK    5  A    between atoms: C_12  and  C_13
REMARK    6  A    between atoms: C_16  and  O_17
REMARK                            x       y       z     vdW  Elec       q    Type
REMARK                         _______ _______ _______ _____ _____    ______ ____
ROOT
ATOM      1  C   UNL     1       4.994   4.273  18.638  0.00  0.00    +0.000 A 
ATOM      2  N   UNL     1       4.262   5.230  19.256  0.00  0.00    +0.000 NA
ATOM      3  C   UNL     1       3.126   4.604  19.594  0.00  0.00    +0.000 A 
ATOM      4  C   UNL     1       2.023   5.145  20.254  0.00  0.00    +0.000 A 
ATOM      5  C   UNL     1       1.991   6.582  20.681  0.00  0.00    +0.000 C 
ATOM      6  C   UNL     1       0.931   4.286  20.500  0.00  0.00    +0.000 A 
ATOM      7  C   UNL     1       0.969   2.937  20.078  0.00  0.00    +0.000 A 
ATOM      8  C   UNL     1       2.102   2.427  19.404  0.00  0.00    +0.000 A 
ATOM      9  C   UNL     1       3.171   3.301  19.186  0.00  0.00    +0.000 A 
ATOM     10  N   UNL     1       4.349   3.078  18.577  0.00  0.00    +0.000 N 
ATOM     11  H   UNL     1       4.686   2.188  18.144  0.00  0.00    +0.000 HD
ENDROOT
BRANCH   8  12
ATOM     12  O   UNL     1       2.153   1.147  18.985  0.00  0.00    +0.000 OA
ATOM     13  H   UNL     1       1.624   0.453  19.407  0.00  0.00    +0.000 HD
ENDBRANCH   8  12
BRANCH   1  14
ATOM     14  C   UNL     1       6.347   4.552  18.045  0.00  0.00    +0.000 C 
BRANCH  14  19
ATOM     15  C   UNL     1       7.483   5.095  14.422  0.00  0.00    +0.000 A 
ATOM     16  C   UNL     1       6.466   4.445  13.715  0.00  0.00    +0.000 A 
ATOM     17  C   UNL     1       5.411   3.834  14.395  0.00  0.00    +0.000 A 
ATOM     18  C   UNL     1       5.362   3.865  15.791  0.00  0.00    +0.000 A 
ATOM     19  C   UNL     1       6.366   4.523  16.528  0.00  0.00    +0.000 A 
ATOM     20  C   UNL     1       7.424   5.133  15.833  0.00  0.00    +0.000 A 
BRANCH  15  22
ATOM     21  C   UNL     1       8.445   6.012  12.383  0.00  0.00    +0.000 C 
ATOM     22  O   UNL     1       8.494   5.666  13.718  0.00  0.00    +0.000 OA
ENDBRANCH  15  22
ENDBRANCH  14  19
ENDBRANCH   1  14
TORSDOF 4
ENDMDL
MODEL 7
REMARK VINA RESULT:      -7.1      2.222      3.279
REMARK  Name = 
REMARK  6 active torsions:
REMARK  status: ('A' for Active; 'I' for Inactive)
REMARK    1  A    between atoms: C_1  and  O_2
REMARK    2  A    between atoms: O_2  and  C_3
REMARK    3  A    between atoms: C_7  and  C_8
REMARK    4  A    between atoms: C_8  and  C_9
REMARK    5  A    between atoms: C_12  and  C_13
REMARK    6  A    between atoms: C_16  and  O_17
REMARK                            x       y       z     vdW  Elec       q    Type
REMARK                         _______ _______ _______ _____ _____    ______ ____
ROOT
ATOM      1  C   UNL     1       6.926   4.771  14.594  0.00  0.00    +0.000 A 
ATOM      2  N   UNL     1       7.390   5.731  15.428  0.00  0.00    +0.000 NA
ATOM      3  C   UNL     1       6.819   5.443  16.606  0.00  0.00    +0.000 A 
ATOM      4  C   UNL     1       6.962   6.132  17.810  0.00  0.00    +0.000 A 
ATOM      5  C   UNL     1       7.828   7.352  17.918  0.00  0.00    +0.000 C 
ATOM      6  C   UNL     1       6.254   5.639  18.926  0.00  0.00    +0.000 A 
ATOM      7  C   UNL     1       5.429   4.496  18.806  0.00  0.00    +0.000 A 
ATOM      8  C   UNL     1       5.303   3.829  17.567  0.00  0.00    +0.000 A 
ATOM      9  C   UNL     1       6.027   4.337  16.484  0.00  0.00    +0.000 A 
ATOM     10  N   UNL     1       6.084   3.901  15.213  0.00  0.00    +0.000 N 
ATOM     11  H   UNL     1       5.583   3.084  14.794  0.00  0.00    +0.000 HD
ENDROOT
BRANCH   8  12
ATOM     12  O   UNL     1       4.514   2.744  17.430  0.00  0.00    +0.000 OA
ATOM     13  H   UNL     1       3.549   2.821  17.383  0.00  0.00    +0.000 HD
ENDBRANCH   8  12
BRANCH   1  14
ATOM     14  C   UNL     1       7.280   4.734  13.134  0.00  0.00    +0.000 C 
BRANCH  14  19
ATOM     15  C   UNL     1       4.498   2.927  11.208  0.00  0.00    +0.000 A 
ATOM     16  C   UNL     1       5.138   1.735  10.855  0.00  0.00    +0.000 A 
ATOM     17  C   UNL     1       6.461   1.503  11.235  0.00  0.00    +0.000 A 
ATOM     18  C   UNL     1       7.160   2.463  11.972  0.00  0.00    +0.000 A 
ATOM     19  C   UNL     1       6.536   3.667  12.352  0.00  0.00    +0.000 A 
ATOM     20  C   UNL     1       5.204   3.890  11.961  0.00  0.00    +0.000 A 
BRANCH  15  22
ATOM     21  C   UNL     1       2.814   3.881   9.731  0.00  0.00    +0.000 C 
ATOM     22  O   UNL     1       3.214   3.113  10.806  0.00  0.00    +0.000 OA
ENDBRANCH  15  22
ENDBRANCH  14  19
ENDBRANCH   1  14
TORSDOF 4
ENDMDL
MODEL 8
REMARK VINA RESULT:      -7.0      4.578      7.446
REMARK  Name = 
REMARK  6 active torsions:
REMARK  status: ('A' for Active; 'I' for Inactive)
REMARK    1  A    between atoms: C_1  and  O_2
REMARK    2  A    between atoms: O_2  and  C_3
REMARK    3  A    between atoms: C_7  and  C_8
REMARK    4  A    between atoms: C_8  and  C_9
REMARK    5  A    between atoms: C_12  and  C_13
REMARK    6  A    between atoms: C_16  and  O_17
REMARK                            x       y       z     vdW  Elec       q    Type
REMARK                         _______ _______ _______ _____ _____    ______ ____
ROOT
ATOM      1  C   UNL     1       3.060   6.668  18.399  0.00  0.00    +0.000 A 
ATOM      2  N   UNL     1       2.108   5.880  18.950  0.00  0.00    +0.000 NA
ATOM      3  C   UNL     1       2.757   4.747  19.253  0.00  0.00    +0.000 A 
ATOM      4  C   UNL     1       2.230   3.598  19.843  0.00  0.00    +0.000 A 
ATOM      5  C   UNL     1       0.782   3.504  20.221  0.00  0.00    +0.000 C 
ATOM      6  C   UNL     1       3.113   2.521  20.063  0.00  0.00    +0.000 A 
ATOM      7  C   UNL     1       4.473   2.618  19.686  0.00  0.00    +0.000 A 
ATOM      8  C   UNL     1       4.968   3.796  19.084  0.00  0.00    +0.000 A 
ATOM      9  C   UNL     1       4.069   4.849  18.890  0.00  0.00    +0.000 A 
ATOM     10  N   UNL     1       4.276   6.061  18.345  0.00  0.00    +0.000 N 
ATOM     11  H   UNL     1       5.168   6.444  17.957  0.00  0.00    +0.000 HD
ENDROOT
BRANCH   8  12
ATOM     12  O   UNL     1       6.259   3.904  18.709  0.00  0.00    +0.000 OA
ATOM     13  H   UNL     1       6.735   3.161  18.307  0.00  0.00    +0.000 HD
ENDBRANCH   8  12
BRANCH   1  14
ATOM     14  C   UNL     1       2.759   8.039  17.862  0.00  0.00    +0.000 C 
BRANCH  14  19
ATOM     15  C   UNL     1      -0.244  10.287  18.665  0.00  0.00    +0.000 A 
ATOM     16  C   UNL     1      -0.344  10.127  20.052  0.00  0.00    +0.000 A 
ATOM     17  C   UNL     1       0.551   9.302  20.735  0.00  0.00    +0.000 A 
ATOM     18  C   UNL     1       1.558   8.626  20.038  0.00  0.00    +0.000 A 
ATOM     19  C   UNL     1       1.689   8.779  18.644  0.00  0.00    +0.000 A 
ATOM     20  C   UNL     1       0.780   9.610  17.967  0.00  0.00    +0.000 A 
BRANCH  15  22
ATOM     21  C   UNL     1      -2.219  11.709  18.648  0.00  0.00    +0.000 C 
ATOM     22  O   UNL     1      -1.144  11.091  18.043  0.00  0.00    +0.000 OA
ENDBRANCH  15  22
ENDBRANCH  14  19
ENDBRANCH   1  14
TORSDOF 4
ENDMDL
MODEL 9
REMARK VINA RESULT:      -6.9      1.712      6.487
REMARK  Name = 
REMARK  6 active torsions:
REMARK  status: ('A' for Active; 'I' for Inactive)
REMARK    1  A    between atoms: C_1  and  O_2
REMARK    2  A    between atoms: O_2  and  C_3
REMARK    3  A    between atoms: C_7  and  C_8
REMARK    4  A    between atoms: C_8  and  C_9
REMARK    5  A    between atoms: C_12  and  C_13
REMARK    6  A    between atoms: C_16  and  O_17
REMARK                            x       y       z     vdW  Elec       q    Type
REMARK                         _______ _______ _______ _____ _____    ______ ____
ROOT
ATOM      1  C   UNL     1       6.432   4.431  15.864  0.00  0.00    +0.000 A 
ATOM      2  N   UNL     1       5.732   3.788  14.900  0.00  0.00    +0.000 NA
ATOM      3  C   UNL     1       6.352   4.129  13.762  0.00  0.00    +0.000 A 
ATOM      4  C   UNL     1       6.024   3.736  12.465  0.00  0.00    +0.000 A 
ATOM      5  C   UNL     1       4.861   2.831  12.191  0.00  0.00    +0.000 C 
ATOM      6  C   UNL     1       6.827   4.231  11.416  0.00  0.00    +0.000 A 
ATOM      7  C   UNL     1       7.912   5.097  11.689  0.00  0.00    +0.000 A 
ATOM      8  C   UNL     1       8.209   5.479  13.017  0.00  0.00    +0.000 A 
ATOM      9  C   UNL     1       7.400   4.963  14.033  0.00  0.00    +0.000 A 
ATOM     10  N   UNL     1       7.462   5.164  15.362  0.00  0.00    +0.000 N 
ATOM     11  H   UNL     1       8.141   5.760  15.887  0.00  0.00    +0.000 HD
ENDROOT
BRANCH   8  12
ATOM     12  O   UNL     1       9.232   6.312  13.295  0.00  0.00    +0.000 OA
ATOM     13  H   UNL     1       9.364   6.675  14.184  0.00  0.00    +0.000 HD
ENDBRANCH   8  12
BRANCH   1  14
ATOM     14  C   UNL     1       6.050   4.367  17.316  0.00  0.00    +0.000 C 
BRANCH  14  19
ATOM     15  C   UNL     1       2.331   3.612  17.878  0.00  0.00    +0.000 A 
ATOM     16  C   UNL     1       1.818   4.897  18.081  0.00  0.00    +0.000 A 
ATOM     17  C   UNL     1       2.659   6.010  18.036  0.00  0.00    +0.000 A 
ATOM     18  C   UNL     1       4.025   5.850  17.787  0.00  0.00    +0.000 A 
ATOM     19  C   UNL     1       4.566   4.569  17.566  0.00  0.00    +0.000 A 
ATOM     20  C   UNL     1       3.710   3.455  17.617  0.00  0.00    +0.000 A 
BRANCH  15  22
ATOM     21  C   UNL     1       0.600   2.300  18.976  0.00  0.00    +0.000 C 
ATOM     22  O   UNL     1       1.476   2.558  17.942  0.00  0.00    +0.000 OA
ENDBRANCH  15  22
ENDBRANCH  14  19
ENDBRANCH   1  14
TORSDOF 4
ENDMDL
