MODEL 1
REMARK VINA RESULT:      -7.6      0.000      0.000
REMARK  Name = 
REMARK  4 active torsions:
REMARK  status: ('A' for Active; 'I' for Inactive)
REMARK    1  A    between atoms: O_1  and  C_2
REMARK    2  A    between atoms: C_2  and  C_3
REMARK    3  A    between atoms: C_2  and  C_10
REMARK    4  A    between atoms: C_2  and  C_17
REMARK                            x       y       z     vdW  Elec       q    Type
REMARK                         _______ _______ _______ _____ _____    ______ ____
ROOT
ATOM      1  C   UNL     1       3.550   5.435  18.791  0.00  0.00    +0.000 C 
ENDROOT
BRANCH   1   2
ATOM      2  C   UNL     1       2.781   6.779  18.862  0.00  0.00    +0.000 A 
ATOM      3  C   UNL     1       2.122   7.188  20.043  0.00  0.00    +0.000 A 
ATOM      4  C   UNL     1       1.469   8.423  20.129  0.00  0.00    +0.000 A 
ATOM      5  C   UNL     1       1.404   9.247  19.014  0.00  0.00    +0.000 A 
ATOM      6 CL   UNL     1       0.625  10.775  19.123  0.00  0.00    +0.000 Cl
ATOM      7  C   UNL     1       1.960   8.834  17.808  0.00  0.00    +0.000 A 
ATOM      8  C   UNL     1       2.633   7.606  17.730  0.00  0.00    +0.000 A 
ENDBRANCH   1   2
BRANCH   1   9
ATOM      9  C   UNL     1       4.564   5.310  17.629  0.00  0.00    +0.000 A 
ATOM     10  C   UNL     1       5.719   6.115  17.595  0.00  0.00    +0.000 A 
ATOM     11  C   UNL     1       6.620   6.042  16.528  0.00  0.00    +0.000 A 
ATOM     12  C   UNL     1       6.385   5.154  15.482  0.00  0.00    +0.000 A 
ATOM     13 CL   UNL     1       7.463   5.098  14.145  0.00  0.00    +0.000 Cl
ATOM     14  C   UNL     1       5.281   4.308  15.516  0.00  0.00    +0.000 A 
ATOM     15  C   UNL     1       4.395   4.367  16.595  0.00  0.00    +0.000 A 
ENDBRANCH   1   9
BRANCH   1  16
ATOM     16  C   UNL     1       2.669   4.197  18.840  0.00  0.00    +0.000 A 
ATOM     17  C   UNL     1       1.464   3.943  18.201  0.00  0.00    +0.000 A 
ATOM     18  N   UNL     1       0.865   2.729  18.472  0.00  0.00    +0.000 NA
ATOM     19  C   UNL     1       1.601   2.064  19.328  0.00  0.00    +0.000 A 
ATOM     20  S   UNL     1       3.063   2.820  19.819  0.00  0.00    +0.000 S 
ENDBRANCH   1  16
BRANCH   1  21
ATOM     21  O   UNL     1       4.313   5.404  20.016  0.00  0.00    +0.000 OA
ATOM     22  H   UNL     1       3.782   5.875  20.682  0.00  0.00    +0.000 HD
ENDBRANCH   1  21
TORSDOF 4
ENDMDL
MODEL 2
REMARK VINA RESULT:      -7.6      0.132      1.058
REMARK  Name = 
REMARK  4 active torsions:
REMARK  status: ('A' for Active; 'I' for Inactive)
REMARK    1  A    between atoms: O_1  and  C_2
REMARK    2  A    between atoms: C_2  and  C_3
REMARK    3  A    between atoms: C_2  and  C_10
REMARK    4  A    between atoms: C_2  and  C_17
REMARK                            x       y       z     vdW  Elec       q    Type
REMARK                         _______ _______ _______ _____ _____    ______ ____
ROOT
ATOM      1  C   UNL     1       3.606   5.461  18.807  0.00  0.00    +0.000 C 
ENDROOT
BRANCH   1   2
ATOM      2  C   UNL     1       2.820   6.797  18.854  0.00  0.00    +0.000 A 
ATOM      3  C   UNL     1       2.790   7.672  17.746  0.00  0.00    +0.000 A 
ATOM      4  C   UNL     1       2.042   8.855  17.766  0.00  0.00    +0.000 A 
ATOM      5  C   UNL     1       1.360   9.220  18.918  0.00  0.00    +0.000 A 
ATOM      6 CL   UNL     1       0.420  10.659  18.937  0.00  0.00    +0.000 Cl
ATOM      7  C   UNL     1       1.445   8.430  20.059  0.00  0.00    +0.000 A 
ATOM      8  C   UNL     1       2.179   7.234  20.031  0.00  0.00    +0.000 A 
ENDBRANCH   1   2
BRANCH   1   9
ATOM      9  C   UNL     1       4.600   5.316  17.629  0.00  0.00    +0.000 A 
ATOM     10  C   UNL     1       5.803   6.048  17.612  0.00  0.00    +0.000 A 
ATOM     11  C   UNL     1       6.688   5.957  16.533  0.00  0.00    +0.000 A 
ATOM     12  C   UNL     1       6.388   5.126  15.458  0.00  0.00    +0.000 A 
ATOM     13 CL   UNL     1       7.449   5.052  14.107  0.00  0.00    +0.000 Cl
ATOM     14  C   UNL     1       5.233   4.350  15.473  0.00  0.00    +0.000 A 
ATOM     15  C   UNL     1       4.362   4.425  16.563  0.00  0.00    +0.000 A 
ENDBRANCH   1   9
BRANCH   1  16
ATOM     16  C   UNL     1       2.742   4.213  18.907  0.00  0.00    +0.000 A 
ATOM     17  C   UNL     1       1.480   3.967  18.387  0.00  0.00    +0.000 A 
ATOM     18  N   UNL     1       0.920   2.740  18.681  0.00  0.00    +0.000 NA
ATOM     19  C   UNL     1       1.744   2.057  19.436  0.00  0.00    +0.000 A 
ATOM     20  S   UNL     1       3.244   2.811  19.797  0.00  0.00    +0.000 S 
ENDBRANCH   1  16
BRANCH   1  21
ATOM     21  O   UNL     1       4.391   5.475  20.017  0.00  0.00    +0.000 OA
ATOM     22  H   UNL     1       4.107   6.258  20.520  0.00  0.00    +0.000 HD
ENDBRANCH   1  21
TORSDOF 4
ENDMDL
MODEL 3
REMARK VINA RESULT:      -7.5      0.159      1.064
REMARK  Name = 
REMARK  4 active torsions:
REMARK  status: ('A' for Active; 'I' for Inactive)
REMARK    1  A    between atoms: O_1  and  C_2
REMARK    2  A    between atoms: C_2  and  C_3
REMARK    3  A    between atoms: C_2  and  C_10
REMARK    4  A    between atoms: C_2  and  C_17
REMARK                            x       y       z     vdW  Elec       q    Type
REMARK                         _______ _______ _______ _____ _____    ______ ____
ROOT
ATOM      1  C   UNL     1       3.532   5.502  18.854  0.00  0.00    +0.000 C 
ENDROOT
BRANCH   1   2
ATOM      2  C   UNL     1       2.722   6.820  18.950  0.00  0.00    +0.000 A 
ATOM      3  C   UNL     1       2.095   7.213  20.153  0.00  0.00    +0.000 A 
ATOM      4  C   UNL     1       1.405   8.426  20.259  0.00  0.00    +0.000 A 
ATOM      5  C   UNL     1       1.271   9.242  19.145  0.00  0.00    +0.000 A 
ATOM      6 CL   UNL     1       0.446  10.744  19.278  0.00  0.00    +0.000 Cl
ATOM      7  C   UNL     1       1.795   8.843  17.920  0.00  0.00    +0.000 A 
ATOM      8  C   UNL     1       2.504   7.636  17.821  0.00  0.00    +0.000 A 
ENDBRANCH   1   2
BRANCH   1   9
ATOM      9  C   UNL     1       4.504   5.405  17.654  0.00  0.00    +0.000 A 
ATOM     10  C   UNL     1       4.276   4.478  16.618  0.00  0.00    +0.000 A 
ATOM     11  C   UNL     1       5.170   4.353  15.551  0.00  0.00    +0.000 A 
ATOM     12  C   UNL     1       6.303   5.159  15.497  0.00  0.00    +0.000 A 
ATOM     13 CL   UNL     1       7.431   4.971  14.213  0.00  0.00    +0.000 Cl
ATOM     14  C   UNL     1       6.526   6.120  16.478  0.00  0.00    +0.000 A 
ATOM     15  C   UNL     1       5.619   6.260  17.531  0.00  0.00    +0.000 A 
ENDBRANCH   1   9
BRANCH   1  16
ATOM     16  C   UNL     1       2.694   4.236  18.941  0.00  0.00    +0.000 A 
ATOM     17  C   UNL     1       1.442   3.965  18.409  0.00  0.00    +0.000 A 
ATOM     18  N   UNL     1       0.906   2.724  18.692  0.00  0.00    +0.000 NA
ATOM     19  C   UNL     1       1.739   2.055  19.450  0.00  0.00    +0.000 A 
ATOM     20  S   UNL     1       3.219   2.840  19.828  0.00  0.00    +0.000 S 
ENDBRANCH   1  16
BRANCH   1  21
ATOM     21  O   UNL     1       4.342   5.502  20.049  0.00  0.00    +0.000 OA
ATOM     22  H   UNL     1       4.322   6.412  20.393  0.00  0.00    +0.000 HD
ENDBRANCH   1  21
TORSDOF 4
ENDMDL
MODEL 4
REMARK VINA RESULT:      -7.5      0.141      1.493
REMARK  Name = 
REMARK  4 active torsions:
REMARK  status: ('A' for Active; 'I' for Inactive)
REMARK    1  A    between atoms: O_1  and  C_2
REMARK    2  A    between atoms: C_2  and  C_3
REMARK    3  A    between atoms: C_2  and  C_10
REMARK    4  A    between atoms: C_2  and  C_17
REMARK                            x       y       z     vdW  Elec       q    Type
REMARK                         _______ _______ _______ _____ _____    ______ ____
ROOT
ATOM      1  C   UNL     1       3.582   5.508  18.816  0.00  0.00    +0.000 C 
ENDROOT
BRANCH   1   2
ATOM      2  C   UNL     1       2.788   6.838  18.891  0.00  0.00    +0.000 A 
ATOM      3  C   UNL     1       2.699   7.705  17.779  0.00  0.00    +0.000 A 
ATOM      4  C   UNL     1       1.943   8.882  17.825  0.00  0.00    +0.000 A 
ATOM      5  C   UNL     1       1.314   9.250  19.006  0.00  0.00    +0.000 A 
ATOM      6 CL   UNL     1       0.364  10.682  19.059  0.00  0.00    +0.000 Cl
ATOM      7  C   UNL     1       1.458   8.469  20.147  0.00  0.00    +0.000 A 
ATOM      8  C   UNL     1       2.199   7.279  20.093  0.00  0.00    +0.000 A 
ENDBRANCH   1   2
BRANCH   1   9
ATOM      9  C   UNL     1       4.570   5.390  17.631  0.00  0.00    +0.000 A 
ATOM     10  C   UNL     1       4.296   4.527  16.551  0.00  0.00    +0.000 A 
ATOM     11  C   UNL     1       5.202   4.381  15.496  0.00  0.00    +0.000 A 
ATOM     12  C   UNL     1       6.392   5.102  15.499  0.00  0.00    +0.000 A 
ATOM     13 CL   UNL     1       7.531   4.884  14.230  0.00  0.00    +0.000 Cl
ATOM     14  C   UNL     1       6.664   6.001  16.525  0.00  0.00    +0.000 A 
ATOM     15  C   UNL     1       5.747   6.163  17.566  0.00  0.00    +0.000 A 
ENDBRANCH   1   9
BRANCH   1  16
ATOM     16  C   UNL     1       2.726   4.254  18.899  0.00  0.00    +0.000 A 
ATOM     17  C   UNL     1       1.466   4.007  18.375  0.00  0.00    +0.000 A 
ATOM     18  N   UNL     1       0.913   2.772  18.652  0.00  0.00    +0.000 NA
ATOM     19  C   UNL     1       1.741   2.084  19.398  0.00  0.00    +0.000 A 
ATOM     20  S   UNL     1       3.236   2.843  19.771  0.00  0.00    +0.000 S 
ENDBRANCH   1  16
BRANCH   1  21
ATOM     21  O   UNL     1       4.373   5.506  20.023  0.00  0.00    +0.000 OA
ATOM     22  H   UNL     1       3.764   5.717  20.751  0.00  0.00    +0.000 HD
ENDBRANCH   1  21
TORSDOF 4
ENDMDL
MODEL 5
REMARK VINA RESULT:      -7.1      0.989      1.054
REMARK  Name = 
REMARK  4 active torsions:
REMARK  status: ('A' for Active; 'I' for Inactive)
REMARK    1  A    between atoms: O_1  and  C_2
REMARK    2  A    between atoms: C_2  and  C_3
REMARK    3  A    between atoms: C_2  and  C_10
REMARK    4  A    between atoms: C_2  and  C_17
REMARK                            x       y       z     vdW  Elec       q    Type
REMARK                         _______ _______ _______ _____ _____    ______ ____
ROOT
ATOM      1  C   UNL     1       3.354   5.577  18.927  0.00  0.00    +0.000 C 
ENDROOT
BRANCH   1   2
ATOM      2  C   UNL     1       2.586   6.923  18.983  0.00  0.00    +0.000 A 
ATOM      3  C   UNL     1       2.024   7.400  20.188  0.00  0.00    +0.000 A 
ATOM      4  C   UNL     1       1.374   8.637  20.255  0.00  0.00    +0.000 A 
ATOM      5  C   UNL     1       1.213   9.394  19.104  0.00  0.00    +0.000 A 
ATOM      6 CL   UNL     1       0.436  10.926  19.187  0.00  0.00    +0.000 Cl
ATOM      7  C   UNL     1       1.669   8.912  17.882  0.00  0.00    +0.000 A 
ATOM      8  C   UNL     1       2.340   7.682  17.820  0.00  0.00    +0.000 A 
ENDBRANCH   1   2
BRANCH   1   9
ATOM      9  C   UNL     1       4.262   5.382  17.689  0.00  0.00    +0.000 A 
ATOM     10  C   UNL     1       4.692   6.489  16.932  0.00  0.00    +0.000 A 
ATOM     11  C   UNL     1       5.477   6.321  15.788  0.00  0.00    +0.000 A 
ATOM     12  C   UNL     1       5.853   5.042  15.386  0.00  0.00    +0.000 A 
ATOM     13 CL   UNL     1       6.774   4.829  13.951  0.00  0.00    +0.000 Cl
ATOM     14  C   UNL     1       5.488   3.935  16.144  0.00  0.00    +0.000 A 
ATOM     15  C   UNL     1       4.723   4.107  17.301  0.00  0.00    +0.000 A 
ENDBRANCH   1   9
BRANCH   1  16
ATOM     16  C   UNL     1       2.488   4.344  19.130  0.00  0.00    +0.000 A 
ATOM     17  C   UNL     1       2.481   3.431  20.173  0.00  0.00    +0.000 A 
ATOM     18  N   UNL     1       1.599   2.373  20.062  0.00  0.00    +0.000 NA
ATOM     19  C   UNL     1       0.947   2.470  18.930  0.00  0.00    +0.000 A 
ATOM     20  S   UNL     1       1.308   3.842  17.962  0.00  0.00    +0.000 S 
ENDBRANCH   1  16
BRANCH   1  21
ATOM     21  O   UNL     1       4.222   5.623  20.079  0.00  0.00    +0.000 OA
ATOM     22  H   UNL     1       3.714   5.252  20.821  0.00  0.00    +0.000 HD
ENDBRANCH   1  21
TORSDOF 4
ENDMDL
MODEL 6
REMARK VINA RESULT:      -7.0      0.969      1.708
REMARK  Name = 
REMARK  4 active torsions:
REMARK  status: ('A' for Active; 'I' for Inactive)
REMARK    1  A    between atoms: O_1  and  C_2
REMARK    2  A    between atoms: C_2  and  C_3
REMARK    3  A    between atoms: C_2  and  C_10
REMARK    4  A    between atoms: C_2  and  C_17
REMARK                            x       y       z     vdW  Elec       q    Type
REMARK                         _______ _______ _______ _____ _____    ______ ____
ROOT
ATOM      1  C   UNL     1       3.479   5.565  18.814  0.00  0.00    +0.000 C 
ENDROOT
BRANCH   1   2
ATOM      2  C   UNL     1       2.696   6.900  18.903  0.00  0.00    +0.000 A 
ATOM      3  C   UNL     1       2.634   7.791  17.809  0.00  0.00    +0.000 A 
ATOM      4  C   UNL     1       1.887   8.973  17.866  0.00  0.00    +0.000 A 
ATOM      5  C   UNL     1       1.241   9.323  19.043  0.00  0.00    +0.000 A 
ATOM      6 CL   UNL     1       0.303  10.762  19.110  0.00  0.00    +0.000 Cl
ATOM      7  C   UNL     1       1.359   8.517  20.170  0.00  0.00    +0.000 A 
ATOM      8  C   UNL     1       2.090   7.322  20.104  0.00  0.00    +0.000 A 
ENDBRANCH   1   2
BRANCH   1   9
ATOM      9  C   UNL     1       4.328   5.376  17.534  0.00  0.00    +0.000 A 
ATOM     10  C   UNL     1       4.704   4.089  17.105  0.00  0.00    +0.000 A 
ATOM     11  C   UNL     1       5.507   3.910  15.974  0.00  0.00    +0.000 A 
ATOM     12  C   UNL     1       5.938   5.016  15.248  0.00  0.00    +0.000 A 
ATOM     13 CL   UNL     1       6.967   4.802  13.888  0.00  0.00    +0.000 Cl
ATOM     14  C   UNL     1       5.538   6.296  15.617  0.00  0.00    +0.000 A 
ATOM     15  C   UNL     1       4.716   6.470  16.734  0.00  0.00    +0.000 A 
ENDBRANCH   1   9
BRANCH   1  16
ATOM     16  C   UNL     1       2.640   4.321  19.063  0.00  0.00    +0.000 A 
ATOM     17  C   UNL     1       2.774   3.345  20.039  0.00  0.00    +0.000 A 
ATOM     18  N   UNL     1       1.877   2.296  19.990  0.00  0.00    +0.000 NA
ATOM     19  C   UNL     1       1.071   2.462  18.971  0.00  0.00    +0.000 A 
ATOM     20  S   UNL     1       1.302   3.891  18.047  0.00  0.00    +0.000 S 
ENDBRANCH   1  16
BRANCH   1  21
ATOM     21  O   UNL     1       4.401   5.627  19.922  0.00  0.00    +0.000 OA
ATOM     22  H   UNL     1       4.968   6.402  19.765  0.00  0.00    +0.000 HD
ENDBRANCH   1  21
TORSDOF 4
ENDMDL
MODEL 7
REMARK VINA RESULT:      -7.0      3.622      4.982
REMARK  Name = 
REMARK  4 active torsions:
REMARK  status: ('A' for Active; 'I' for Inactive)
REMARK    1  A    between atoms: O_1  and  C_2
REMARK    2  A    between atoms: C_2  and  C_3
REMARK    3  A    between atoms: C_2  and  C_10
REMARK    4  A    between atoms: C_2  and  C_17
REMARK                            x       y       z     vdW  Elec       q    Type
REMARK                         _______ _______ _______ _____ _____    ______ ____
ROOT
ATOM      1  C   UNL     1       5.168   5.450  16.588  0.00  0.00    +0.000 C 
ENDROOT
BRANCH   1   2
ATOM      2  C   UNL     1       3.997   4.653  17.219  0.00  0.00    +0.000 A 
ATOM      3  C   UNL     1       2.887   5.308  17.796  0.00  0.00    +0.000 A 
ATOM      4  C   UNL     1       1.805   4.594  18.321  0.00  0.00    +0.000 A 
ATOM      5  C   UNL     1       1.839   3.207  18.341  0.00  0.00    +0.000 A 
ATOM      6 CL   UNL     1       0.500   2.325  18.962  0.00  0.00    +0.000 Cl
ATOM      7  C   UNL     1       2.958   2.530  17.867  0.00  0.00    +0.000 A 
ATOM      8  C   UNL     1       4.033   3.247  17.322  0.00  0.00    +0.000 A 
ENDBRANCH   1   2
BRANCH   1   9
ATOM      9  C   UNL     1       5.696   4.901  15.241  0.00  0.00    +0.000 A 
ATOM     10  C   UNL     1       4.830   4.245  14.345  0.00  0.00    +0.000 A 
ATOM     11  C   UNL     1       5.305   3.708  13.144  0.00  0.00    +0.000 A 
ATOM     12  C   UNL     1       6.652   3.827  12.816  0.00  0.00    +0.000 A 
ATOM     13 CL   UNL     1       7.249   3.122  11.366  0.00  0.00    +0.000 Cl
ATOM     14  C   UNL     1       7.520   4.517  13.657  0.00  0.00    +0.000 A 
ATOM     15  C   UNL     1       7.038   5.074  14.845  0.00  0.00    +0.000 A 
ENDBRANCH   1   9
BRANCH   1  16
ATOM     16  C   UNL     1       6.334   5.715  17.528  0.00  0.00    +0.000 A 
ATOM     17  C   UNL     1       6.885   4.899  18.505  0.00  0.00    +0.000 A 
ATOM     18  N   UNL     1       7.926   5.433  19.240  0.00  0.00    +0.000 NA
ATOM     19  C   UNL     1       8.157   6.657  18.837  0.00  0.00    +0.000 A 
ATOM     20  S   UNL     1       7.189   7.224  17.536  0.00  0.00    +0.000 S 
ENDBRANCH   1  16
BRANCH   1  21
ATOM     21  O   UNL     1       4.599   6.749  16.317  0.00  0.00    +0.000 OA
ATOM     22  H   UNL     1       5.283   7.401  16.544  0.00  0.00    +0.000 HD
ENDBRANCH   1  21
TORSDOF 4
ENDMDL
MODEL 8
REMARK VINA RESULT:      -6.9      1.153      1.649
REMARK  Name = 
REMARK  4 active torsions:
REMARK  status: ('A' for Active; 'I' for Inactive)
REMARK    1  A    between atoms: O_1  and  C_2
REMARK    2  A    between atoms: C_2  and  C_3
REMARK    3  A    between atoms: C_2  and  C_10
REMARK    4  A    between atoms: C_2  and  C_17
REMARK                            x       y       z     vdW  Elec       q    Type
REMARK                         _______ _______ _______ _____ _____    ______ ____
ROOT
ATOM      1  C   UNL     1       4.570   4.929  18.219  0.00  0.00    +0.000 C 
ENDROOT
BRANCH   1   2
ATOM      2  C   UNL     1       3.670   6.175  18.428  0.00  0.00    +0.000 A 
ATOM      3  C   UNL     1       3.655   7.236  17.496  0.00  0.00    +0.000 A 
ATOM      4  C   UNL     1       2.809   8.339  17.653  0.00  0.00    +0.000 A 
ATOM      5  C   UNL     1       2.006   8.436  18.782  0.00  0.00    +0.000 A 
ATOM      6 CL   UNL     1       0.947   9.778  18.966  0.00  0.00    +0.000 Cl
ATOM      7  C   UNL     1       2.065   7.457  19.766  0.00  0.00    +0.000 A 
ATOM      8  C   UNL     1       2.899   6.341  19.597  0.00  0.00    +0.000 A 
ENDBRANCH   1   2
BRANCH   1   9
ATOM      9  C   UNL     1       5.385   4.912  16.904  0.00  0.00    +0.000 A 
ATOM     10  C   UNL     1       6.737   5.308  16.893  0.00  0.00    +0.000 A 
ATOM     11  C   UNL     1       7.471   5.337  15.704  0.00  0.00    +0.000 A 
ATOM     12  C   UNL     1       6.868   4.960  14.507  0.00  0.00    +0.000 A 
ATOM     13 CL   UNL     1       7.753   5.044  13.036  0.00  0.00    +0.000 Cl
ATOM     14  C   UNL     1       5.551   4.513  14.497  0.00  0.00    +0.000 A 
ATOM     15  C   UNL     1       4.826   4.462  15.691  0.00  0.00    +0.000 A 
ENDBRANCH   1   9
BRANCH   1  16
ATOM     16  C   UNL     1       3.860   3.597  18.403  0.00  0.00    +0.000 A 
ATOM     17  C   UNL     1       2.818   3.042  17.674  0.00  0.00    +0.000 A 
ATOM     18  N   UNL     1       2.345   1.819  18.106  0.00  0.00    +0.000 NA
ATOM     19  C   UNL     1       3.012   1.448  19.170  0.00  0.00    +0.000 A 
ATOM     20  S   UNL     1       4.265   2.503  19.687  0.00  0.00    +0.000 S 
ENDBRANCH   1  16
BRANCH   1  21
ATOM     21  O   UNL     1       5.522   5.002  19.302  0.00  0.00    +0.000 OA
ATOM     22  H   UNL     1       5.424   5.887  19.694  0.00  0.00    +0.000 HD
ENDBRANCH   1  21
TORSDOF 4
ENDMDL
MODEL 9
REMARK VINA RESULT:      -6.9      1.546      5.464
REMARK  Name = 
REMARK  4 active torsions:
REMARK  status: ('A' for Active; 'I' for Inactive)
REMARK    1  A    between atoms: O_1  and  C_2
REMARK    2  A    between atoms: C_2  and  C_3
REMARK    3  A    between atoms: C_2  and  C_10
REMARK    4  A    between atoms: C_2  and  C_17
REMARK                            x       y       z     vdW  Elec       q    Type
REMARK                         _______ _______ _______ _____ _____    ______ ____
ROOT
ATOM      1  C   UNL     1       2.520   5.196  18.427  0.00  0.00    +0.000 C 
ENDROOT
BRANCH   1   2
ATOM      2  C   UNL     1       3.801   5.118  17.556  0.00  0.00    +0.000 A 
ATOM      3  C   UNL     1       4.076   3.991  16.751  0.00  0.00    +0.000 A 
ATOM      4  C   UNL     1       5.205   3.936  15.925  0.00  0.00    +0.000 A 
ATOM      5  C   UNL     1       6.118   4.981  15.937  0.00  0.00    +0.000 A 
ATOM      6 CL   UNL     1       7.492   4.929  14.906  0.00  0.00    +0.000 Cl
ATOM      7  C   UNL     1       5.927   6.064  16.788  0.00  0.00    +0.000 A 
ATOM      8  C   UNL     1       4.785   6.127  17.599  0.00  0.00    +0.000 A 
ENDBRANCH   1   2
BRANCH   1   9
ATOM      9  C   UNL     1       2.133   6.613  18.914  0.00  0.00    +0.000 A 
ATOM     10  C   UNL     1       1.917   6.867  20.282  0.00  0.00    +0.000 A 
ATOM     11  C   UNL     1       1.525   8.133  20.729  0.00  0.00    +0.000 A 
ATOM     12  C   UNL     1       1.352   9.167  19.814  0.00  0.00    +0.000 A 
ATOM     13 CL   UNL     1       0.821  10.710  20.354  0.00  0.00    +0.000 Cl
ATOM     14  C   UNL     1       1.611   8.959  18.464  0.00  0.00    +0.000 A 
ATOM     15  C   UNL     1       2.025   7.700  18.023  0.00  0.00    +0.000 A 
ENDBRANCH   1   9
BRANCH   1  16
ATOM     16  C   UNL     1       2.488   4.223  19.595  0.00  0.00    +0.000 A 
ATOM     17  C   UNL     1       3.537   3.632  20.283  0.00  0.00    +0.000 A 
ATOM     18  N   UNL     1       3.196   2.746  21.286  0.00  0.00    +0.000 NA
ATOM     19  C   UNL     1       1.892   2.648  21.354  0.00  0.00    +0.000 A 
ATOM     20  S   UNL     1       1.000   3.635  20.267  0.00  0.00    +0.000 S 
ENDBRANCH   1  16
BRANCH   1  21
ATOM     21  O   UNL     1       1.469   4.756  17.540  0.00  0.00    +0.000 OA
ATOM     22  H   UNL     1       1.796   3.950  17.105  0.00  0.00    +0.000 HD
ENDBRANCH   1  21
TORSDOF 4
ENDMDL
