MODEL 1
REMARK VINA RESULT:      -8.8      0.000      0.000
REMARK  Name = 
REMARK  5 active torsions:
REMARK  status: ('A' for Active; 'I' for Inactive)
REMARK    1  A    between atoms: C_1  and  C_2
REMARK    2  A    between atoms: C_2  and  N_3
REMARK    3  A    between atoms: C_2  and  C_22
REMARK    4  A    between atoms: N_12  and  C_13
REMARK    5  A    between atoms: C_18  and  C_19
REMARK                            x       y       z     vdW  Elec       q    Type
REMARK                         _______ _______ _______ _____ _____    ______ ____
ROOT
ATOM      1  N   UNL     1       1.698   7.933  19.943  0.00  0.00    +0.000 N 
ATOM      2  C   UNL     1       2.076   6.593  20.079  0.00  0.00    +0.000 A 
ATOM      3  C   UNL     1       3.102   6.188  19.238  0.00  0.00    +0.000 A 
ATOM      4  C   UNL     1       3.603   4.887  19.370  0.00  0.00    +0.000 A 
ATOM      5  C   UNL     1       3.044   4.020  20.303  0.00  0.00    +0.000 A 
ATOM      6  C   UNL     1       1.988   4.481  21.098  0.00  0.00    +0.000 A 
ATOM      7  N   UNL     1       1.542   5.770  20.996  0.00  0.00    +0.000 NA
ATOM      8  C   UNL     1       3.770   2.829  20.139  0.00  0.00    +0.000 A 
ATOM      9  N   UNL     1       4.746   2.929  19.236  0.00  0.00    +0.000 NA
ATOM     10  N   UNL     1       4.559   4.149  18.673  0.00  0.00    +0.000 N 
ATOM     11  H   UNL     1       1.493   8.161  18.976  0.00  0.00    +0.000 HD
ENDROOT
BRANCH  10  12
ATOM     12  C   UNL     1       5.333   4.584  17.553  0.00  0.00    +0.000 A 
ATOM     13  C   UNL     1       4.909   4.189  16.265  0.00  0.00    +0.000 A 
ATOM     14  C   UNL     1       5.667   4.461  15.130  0.00  0.00    +0.000 A 
ATOM     15  C   UNL     1       6.822   5.214  15.246  0.00  0.00    +0.000 A 
ATOM     16  C   UNL     1       7.230   5.671  16.507  0.00  0.00    +0.000 A 
ATOM     17  C   UNL     1       6.508   5.358  17.680  0.00  0.00    +0.000 A 
BRANCH  17  18
ATOM     18  C   UNL     1       7.161   5.678  18.988  0.00  0.00    +0.000 C 
ATOM     19  N   UNL     1       8.134   6.642  19.003  0.00  0.00    +0.000 N 
ATOM     20  O   UNL     1       6.940   5.040  20.014  0.00  0.00    +0.000 OA
ATOM     21  H   UNL     1       8.477   7.140  18.192  0.00  0.00    +0.000 HD
ATOM     22  H   UNL     1       8.592   6.810  19.888  0.00  0.00    +0.000 HD
ENDBRANCH  17  18
ENDBRANCH  10  12
BRANCH   1  24
ATOM     23  C   UNL     1       1.761   9.082  22.036  0.00  0.00    +0.000 C 
ATOM     24  C   UNL     1       0.841   8.589  20.911  0.00  0.00    +0.000 C 
BRANCH  24  25
ATOM     25  C   UNL     1       0.084   9.768  20.307  0.00  0.00    +0.000 A 
ATOM     26  C   UNL     1      -0.077   9.850  18.914  0.00  0.00    +0.000 A 
ATOM     27  C   UNL     1      -0.818  10.886  18.337  0.00  0.00    +0.000 A 
ATOM     28  C   UNL     1      -1.412  11.855  19.142  0.00  0.00    +0.000 A 
ATOM     29  C   UNL     1      -1.268  11.787  20.526  0.00  0.00    +0.000 A 
ATOM     30  C   UNL     1      -0.526  10.751  21.103  0.00  0.00    +0.000 A 
ENDBRANCH  24  25
ENDBRANCH   1  24
TORSDOF 4
ENDMDL
MODEL 2
REMARK VINA RESULT:      -8.7      1.443      2.115
REMARK  Name = 
REMARK  5 active torsions:
REMARK  status: ('A' for Active; 'I' for Inactive)
REMARK    1  A    between atoms: C_1  and  C_2
REMARK    2  A    between atoms: C_2  and  N_3
REMARK    3  A    between atoms: C_2  and  C_22
REMARK    4  A    between atoms: N_12  and  C_13
REMARK    5  A    between atoms: C_18  and  C_19
REMARK                            x       y       z     vdW  Elec       q    Type
REMARK                         _______ _______ _______ _____ _____    ______ ____
ROOT
ATOM      1  N   UNL     1       1.998   9.373  18.205  0.00  0.00    +0.000 N 
ATOM      2  C   UNL     1       2.222   8.114  18.772  0.00  0.00    +0.000 A 
ATOM      3  C   UNL     1       3.176   7.344  18.122  0.00  0.00    +0.000 A 
ATOM      4  C   UNL     1       3.526   6.105  18.674  0.00  0.00    +0.000 A 
ATOM      5  C   UNL     1       2.892   5.656  19.827  0.00  0.00    +0.000 A 
ATOM      6  C   UNL     1       1.914   6.467  20.414  0.00  0.00    +0.000 A 
ATOM      7  N   UNL     1       1.617   7.698  19.896  0.00  0.00    +0.000 NA
ATOM      8  C   UNL     1       3.473   4.399  20.067  0.00  0.00    +0.000 A 
ATOM      9  N   UNL     1       4.433   4.089  19.196  0.00  0.00    +0.000 NA
ATOM     10  N   UNL     1       4.376   5.077  18.267  0.00  0.00    +0.000 N 
ATOM     11  H   UNL     1       1.799   9.300  17.213  0.00  0.00    +0.000 HD
ENDROOT
BRANCH  10  12
ATOM     12  C   UNL     1       5.169   5.036  17.079  0.00  0.00    +0.000 A 
ATOM     13  C   UNL     1       4.608   4.432  15.932  0.00  0.00    +0.000 A 
ATOM     14  C   UNL     1       5.351   4.237  14.772  0.00  0.00    +0.000 A 
ATOM     15  C   UNL     1       6.644   4.723  14.700  0.00  0.00    +0.000 A 
ATOM     16  C   UNL     1       7.202   5.381  15.805  0.00  0.00    +0.000 A 
ATOM     17  C   UNL     1       6.487   5.539  17.014  0.00  0.00    +0.000 A 
BRANCH  17  18
ATOM     18  C   UNL     1       7.256   6.026  18.201  0.00  0.00    +0.000 C 
ATOM     19  N   UNL     1       7.291   5.231  19.317  0.00  0.00    +0.000 N 
ATOM     20  O   UNL     1       7.759   7.145  18.253  0.00  0.00    +0.000 OA
ATOM     21  H   UNL     1       6.809   4.348  19.421  0.00  0.00    +0.000 HD
ATOM     22  H   UNL     1       7.779   5.600  20.121  0.00  0.00    +0.000 HD
ENDBRANCH  17  18
ENDBRANCH  10  12
BRANCH   1  24
ATOM     23  C   UNL     1       1.922  11.735  18.557  0.00  0.00    +0.000 C 
ATOM     24  C   UNL     1       1.244  10.400  18.897  0.00  0.00    +0.000 C 
BRANCH  24  25
ATOM     25  C   UNL     1      -0.218  10.438  18.461  0.00  0.00    +0.000 A 
ATOM     26  C   UNL     1      -1.113  11.306  19.107  0.00  0.00    +0.000 A 
ATOM     27  C   UNL     1      -2.444  11.406  18.689  0.00  0.00    +0.000 A 
ATOM     28  C   UNL     1      -2.901  10.643  17.618  0.00  0.00    +0.000 A 
ATOM     29  C   UNL     1      -2.026   9.781  16.961  0.00  0.00    +0.000 A 
ATOM     30  C   UNL     1      -0.695   9.680  17.380  0.00  0.00    +0.000 A 
ENDBRANCH  24  25
ENDBRANCH   1  24
TORSDOF 4
ENDMDL
MODEL 3
REMARK VINA RESULT:      -8.5      2.177      3.075
REMARK  Name = 
REMARK  5 active torsions:
REMARK  status: ('A' for Active; 'I' for Inactive)
REMARK    1  A    between atoms: C_1  and  C_2
REMARK    2  A    between atoms: C_2  and  N_3
REMARK    3  A    between atoms: C_2  and  C_22
REMARK    4  A    between atoms: N_12  and  C_13
REMARK    5  A    between atoms: C_18  and  C_19
REMARK                            x       y       z     vdW  Elec       q    Type
REMARK                         _______ _______ _______ _____ _____    ______ ____
ROOT
ATOM      1  N   UNL     1       1.337  10.011  18.513  0.00  0.00    +0.000 N 
ATOM      2  C   UNL     1       1.490   8.801  19.197  0.00  0.00    +0.000 A 
ATOM      3  C   UNL     1       2.362   7.901  18.601  0.00  0.00    +0.000 A 
ATOM      4  C   UNL     1       2.641   6.699  19.265  0.00  0.00    +0.000 A 
ATOM      5  C   UNL     1       2.019   6.415  20.476  0.00  0.00    +0.000 A 
ATOM      6  C   UNL     1       1.125   7.353  21.006  0.00  0.00    +0.000 A 
ATOM      7  N   UNL     1       0.898   8.545  20.375  0.00  0.00    +0.000 NA
ATOM      8  C   UNL     1       2.516   5.148  20.825  0.00  0.00    +0.000 A 
ATOM      9  N   UNL     1       3.419   4.682  19.962  0.00  0.00    +0.000 NA
ATOM     10  N   UNL     1       3.399   5.575  18.940  0.00  0.00    +0.000 N 
ATOM     11  H   UNL     1       1.097   9.856  17.539  0.00  0.00    +0.000 HD
ENDROOT
BRANCH  10  12
ATOM     12  C   UNL     1       4.143   5.356  17.740  0.00  0.00    +0.000 A 
ATOM     13  C   UNL     1       4.839   6.452  17.185  0.00  0.00    +0.000 A 
ATOM     14  C   UNL     1       5.485   6.362  15.957  0.00  0.00    +0.000 A 
ATOM     15  C   UNL     1       5.528   5.148  15.296  0.00  0.00    +0.000 A 
ATOM     16  C   UNL     1       4.897   4.028  15.857  0.00  0.00    +0.000 A 
ATOM     17  C   UNL     1       4.185   4.110  17.075  0.00  0.00    +0.000 A 
BRANCH  17  18
ATOM     18  C   UNL     1       3.344   2.931  17.453  0.00  0.00    +0.000 C 
ATOM     19  N   UNL     1       3.944   1.904  18.132  0.00  0.00    +0.000 N 
ATOM     20  O   UNL     1       2.180   2.802  17.085  0.00  0.00    +0.000 OA
ATOM     21  H   UNL     1       4.925   1.857  18.376  0.00  0.00    +0.000 HD
ATOM     22  H   UNL     1       3.368   1.100  18.338  0.00  0.00    +0.000 HD
ENDBRANCH  17  18
ENDBRANCH  10  12
BRANCH   1  24
ATOM     23  C   UNL     1       1.411  12.398  18.582  0.00  0.00    +0.000 C 
ATOM     24  C   UNL     1       0.686  11.156  19.118  0.00  0.00    +0.000 C 
BRANCH  24  25
ATOM     25  C   UNL     1      -0.797  11.231  18.765  0.00  0.00    +0.000 A 
ATOM     26  C   UNL     1      -1.321  10.375  17.782  0.00  0.00    +0.000 A 
ATOM     27  C   UNL     1      -2.686  10.379  17.480  0.00  0.00    +0.000 A 
ATOM     28  C   UNL     1      -3.550  11.236  18.157  0.00  0.00    +0.000 A 
ATOM     29  C   UNL     1      -3.050  12.087  19.139  0.00  0.00    +0.000 A 
ATOM     30  C   UNL     1      -1.684  12.085  19.440  0.00  0.00    +0.000 A 
ENDBRANCH  24  25
ENDBRANCH   1  24
TORSDOF 4
ENDMDL
MODEL 4
REMARK VINA RESULT:      -8.3      0.925      1.114
REMARK  Name = 
REMARK  5 active torsions:
REMARK  status: ('A' for Active; 'I' for Inactive)
REMARK    1  A    between atoms: C_1  and  C_2
REMARK    2  A    between atoms: C_2  and  N_3
REMARK    3  A    between atoms: C_2  and  C_22
REMARK    4  A    between atoms: N_12  and  C_13
REMARK    5  A    between atoms: C_18  and  C_19
REMARK                            x       y       z     vdW  Elec       q    Type
REMARK                         _______ _______ _______ _____ _____    ______ ____
ROOT
ATOM      1  N   UNL     1       1.717   8.729  19.089  0.00  0.00    +0.000 N 
ATOM      2  C   UNL     1       1.996   7.412  19.465  0.00  0.00    +0.000 A 
ATOM      3  C   UNL     1       3.025   6.808  18.756  0.00  0.00    +0.000 A 
ATOM      4  C   UNL     1       3.429   5.519  19.128  0.00  0.00    +0.000 A 
ATOM      5  C   UNL     1       2.775   4.859  20.162  0.00  0.00    +0.000 A 
ATOM      6  C   UNL     1       1.723   5.512  20.815  0.00  0.00    +0.000 A 
ATOM      7  N   UNL     1       1.371   6.790  20.478  0.00  0.00    +0.000 NA
ATOM      8  C   UNL     1       3.424   3.615  20.236  0.00  0.00    +0.000 A 
ATOM      9  N   UNL     1       4.439   3.501  19.380  0.00  0.00    +0.000 NA
ATOM     10  N   UNL     1       4.359   4.618  18.613  0.00  0.00    +0.000 N 
ATOM     11  H   UNL     1       1.567   8.803  18.088  0.00  0.00    +0.000 HD
ENDROOT
BRANCH  10  12
ATOM     12  C   UNL     1       5.205   4.808  17.476  0.00  0.00    +0.000 A 
ATOM     13  C   UNL     1       4.756   4.319  16.230  0.00  0.00    +0.000 A 
ATOM     14  C   UNL     1       5.564   4.350  15.098  0.00  0.00    +0.000 A 
ATOM     15  C   UNL     1       6.807   4.953  15.164  0.00  0.00    +0.000 A 
ATOM     16  C   UNL     1       7.250   5.503  16.376  0.00  0.00    +0.000 A 
ATOM     17  C   UNL     1       6.470   5.431  17.552  0.00  0.00    +0.000 A 
BRANCH  17  18
ATOM     18  C   UNL     1       7.137   5.819  18.835  0.00  0.00    +0.000 C 
ATOM     19  N   UNL     1       8.051   6.838  18.803  0.00  0.00    +0.000 N 
ATOM     20  O   UNL     1       6.979   5.193  19.880  0.00  0.00    +0.000 OA
ATOM     21  H   UNL     1       8.343   7.336  17.972  0.00  0.00    +0.000 HD
ATOM     22  H   UNL     1       8.521   7.053  19.672  0.00  0.00    +0.000 HD
ENDBRANCH  17  18
ENDBRANCH  10  12
BRANCH   1  24
ATOM     23  C   UNL     1       1.759  10.748  20.366  0.00  0.00    +0.000 C 
ATOM     24  C   UNL     1       0.870   9.591  19.889  0.00  0.00    +0.000 C 
BRANCH  24  25
ATOM     25  C   UNL     1      -0.312  10.141  19.095  0.00  0.00    +0.000 A 
ATOM     26  C   UNL     1      -0.614   9.597  17.835  0.00  0.00    +0.000 A 
ATOM     27  C   UNL     1      -1.726  10.039  17.112  0.00  0.00    +0.000 A 
ATOM     28  C   UNL     1      -2.555  11.028  17.635  0.00  0.00    +0.000 A 
ATOM     29  C   UNL     1      -2.274  11.575  18.885  0.00  0.00    +0.000 A 
ATOM     30  C   UNL     1      -1.161  11.134  19.609  0.00  0.00    +0.000 A 
ENDBRANCH  24  25
ENDBRANCH   1  24
TORSDOF 4
ENDMDL
MODEL 5
REMARK VINA RESULT:      -7.9      1.324      1.585
REMARK  Name = 
REMARK  5 active torsions:
REMARK  status: ('A' for Active; 'I' for Inactive)
REMARK    1  A    between atoms: C_1  and  C_2
REMARK    2  A    between atoms: C_2  and  N_3
REMARK    3  A    between atoms: C_2  and  C_22
REMARK    4  A    between atoms: N_12  and  C_13
REMARK    5  A    between atoms: C_18  and  C_19
REMARK                            x       y       z     vdW  Elec       q    Type
REMARK                         _______ _______ _______ _____ _____    ______ ____
ROOT
ATOM      1  N   UNL     1       1.830   8.334  19.188  0.00  0.00    +0.000 N 
ATOM      2  C   UNL     1       2.197   7.024  19.511  0.00  0.00    +0.000 A 
ATOM      3  C   UNL     1       3.210   6.492  18.726  0.00  0.00    +0.000 A 
ATOM      4  C   UNL     1       3.700   5.217  19.038  0.00  0.00    +0.000 A 
ATOM      5  C   UNL     1       3.143   4.499  20.092  0.00  0.00    +0.000 A 
ATOM      6  C   UNL     1       2.101   5.081  20.823  0.00  0.00    +0.000 A 
ATOM      7  N   UNL     1       1.666   6.347  20.542  0.00  0.00    +0.000 NA
ATOM      8  C   UNL     1       3.857   3.289  20.093  0.00  0.00    +0.000 A 
ATOM      9  N   UNL     1       4.823   3.248  19.175  0.00  0.00    +0.000 NA
ATOM     10  N   UNL     1       4.641   4.377  18.445  0.00  0.00    +0.000 N 
ATOM     11  H   UNL     1       1.616   8.424  18.201  0.00  0.00    +0.000 HD
ENDROOT
BRANCH  10  12
ATOM     12  C   UNL     1       5.406   4.639  17.266  0.00  0.00    +0.000 A 
ATOM     13  C   UNL     1       4.945   4.096  16.047  0.00  0.00    +0.000 A 
ATOM     14  C   UNL     1       5.688   4.195  14.875  0.00  0.00    +0.000 A 
ATOM     15  C   UNL     1       6.868   4.917  14.875  0.00  0.00    +0.000 A 
ATOM     16  C   UNL     1       7.315   5.519  16.060  0.00  0.00    +0.000 A 
ATOM     17  C   UNL     1       6.606   5.382  17.275  0.00  0.00    +0.000 A 
BRANCH  17  18
ATOM     18  C   UNL     1       7.295   5.845  18.520  0.00  0.00    +0.000 C 
ATOM     19  N   UNL     1       7.175   5.075  19.647  0.00  0.00    +0.000 N 
ATOM     20  O   UNL     1       7.864   6.931  18.599  0.00  0.00    +0.000 OA
ATOM     21  H   UNL     1       6.628   4.228  19.721  0.00  0.00    +0.000 HD
ATOM     22  H   UNL     1       7.611   5.430  20.487  0.00  0.00    +0.000 HD
ENDBRANCH  17  18
ENDBRANCH  10  12
BRANCH   1  24
ATOM     23  C   UNL     1       1.543   8.943  21.480  0.00  0.00    +0.000 C 
ATOM     24  C   UNL     1       0.990   9.132  20.061  0.00  0.00    +0.000 C 
BRANCH  24  25
ATOM     25  C   UNL     1       1.012  10.612  19.690  0.00  0.00    +0.000 A 
ATOM     26  C   UNL     1       0.312  11.536  20.483  0.00  0.00    +0.000 A 
ATOM     27  C   UNL     1       0.363  12.905  20.204  0.00  0.00    +0.000 A 
ATOM     28  C   UNL     1       1.115  13.373  19.130  0.00  0.00    +0.000 A 
ATOM     29  C   UNL     1       1.820  12.472  18.335  0.00  0.00    +0.000 A 
ATOM     30  C   UNL     1       1.768  11.102  18.614  0.00  0.00    +0.000 A 
ENDBRANCH  24  25
ENDBRANCH   1  24
TORSDOF 4
ENDMDL
MODEL 6
REMARK VINA RESULT:      -7.8      1.341      2.074
REMARK  Name = 
REMARK  5 active torsions:
REMARK  status: ('A' for Active; 'I' for Inactive)
REMARK    1  A    between atoms: C_1  and  C_2
REMARK    2  A    between atoms: C_2  and  N_3
REMARK    3  A    between atoms: C_2  and  C_22
REMARK    4  A    between atoms: N_12  and  C_13
REMARK    5  A    between atoms: C_18  and  C_19
REMARK                            x       y       z     vdW  Elec       q    Type
REMARK                         _______ _______ _______ _____ _____    ______ ____
ROOT
ATOM      1  N   UNL     1       1.627   8.069  20.292  0.00  0.00    +0.000 N 
ATOM      2  C   UNL     1       1.922   6.702  20.274  0.00  0.00    +0.000 A 
ATOM      3  C   UNL     1       3.153   6.379  19.721  0.00  0.00    +0.000 A 
ATOM      4  C   UNL     1       3.567   5.040  19.743  0.00  0.00    +0.000 A 
ATOM      5  C   UNL     1       2.731   4.065  20.276  0.00  0.00    +0.000 A 
ATOM      6  C   UNL     1       1.487   4.455  20.787  0.00  0.00    +0.000 A 
ATOM      7  N   UNL     1       1.116   5.770  20.807  0.00  0.00    +0.000 NA
ATOM      8  C   UNL     1       3.453   2.871  20.112  0.00  0.00    +0.000 A 
ATOM      9  N   UNL     1       4.663   3.058  19.585  0.00  0.00    +0.000 NA
ATOM     10  N   UNL     1       4.681   4.370  19.240  0.00  0.00    +0.000 N 
ATOM     11  H   UNL     1       1.738   8.482  19.372  0.00  0.00    +0.000 HD
ENDROOT
BRANCH  10  12
ATOM     12  C   UNL     1       5.772   4.939  18.514  0.00  0.00    +0.000 A 
ATOM     13  C   UNL     1       6.734   5.678  19.237  0.00  0.00    +0.000 A 
ATOM     14  C   UNL     1       7.758   6.368  18.598  0.00  0.00    +0.000 A 
ATOM     15  C   UNL     1       7.898   6.263  17.226  0.00  0.00    +0.000 A 
ATOM     16  C   UNL     1       6.993   5.485  16.491  0.00  0.00    +0.000 A 
ATOM     17  C   UNL     1       5.910   4.822  17.113  0.00  0.00    +0.000 A 
BRANCH  17  18
ATOM     18  C   UNL     1       4.868   4.233  16.215  0.00  0.00    +0.000 C 
ATOM     19  N   UNL     1       5.166   4.095  14.885  0.00  0.00    +0.000 N 
ATOM     20  O   UNL     1       3.730   3.974  16.600  0.00  0.00    +0.000 OA
ATOM     21  H   UNL     1       6.028   4.390  14.445  0.00  0.00    +0.000 HD
ATOM     22  H   UNL     1       4.432   3.736  14.291  0.00  0.00    +0.000 HD
ENDBRANCH  17  18
ENDBRANCH  10  12
BRANCH   1  24
ATOM     23  C   UNL     1       1.109   9.040  22.412  0.00  0.00    +0.000 C 
ATOM     24  C   UNL     1       0.522   8.603  21.062  0.00  0.00    +0.000 C 
BRANCH  24  25
ATOM     25  C   UNL     1      -0.139   9.795  20.376  0.00  0.00    +0.000 A 
ATOM     26  C   UNL     1      -0.331   9.777  18.985  0.00  0.00    +0.000 A 
ATOM     27  C   UNL     1      -0.988  10.827  18.337  0.00  0.00    +0.000 A 
ATOM     28  C   UNL     1      -1.466  11.912  19.068  0.00  0.00    +0.000 A 
ATOM     29  C   UNL     1      -1.289  11.945  20.449  0.00  0.00    +0.000 A 
ATOM     30  C   UNL     1      -0.631  10.895  21.097  0.00  0.00    +0.000 A 
ENDBRANCH  24  25
ENDBRANCH   1  24
TORSDOF 4
ENDMDL
MODEL 7
REMARK VINA RESULT:      -7.7      5.682     11.237
REMARK  Name = 
REMARK  5 active torsions:
REMARK  status: ('A' for Active; 'I' for Inactive)
REMARK    1  A    between atoms: C_1  and  C_2
REMARK    2  A    between atoms: C_2  and  N_3
REMARK    3  A    between atoms: C_2  and  C_22
REMARK    4  A    between atoms: N_12  and  C_13
REMARK    5  A    between atoms: C_18  and  C_19
REMARK                            x       y       z     vdW  Elec       q    Type
REMARK                         _______ _______ _______ _____ _____    ______ ____
ROOT
ATOM      1  N   UNL     1      -0.902  11.522  19.852  0.00  0.00    +0.000 N 
ATOM      2  C   UNL     1      -1.957  11.467  18.936  0.00  0.00    +0.000 A 
ATOM      3  C   UNL     1      -3.201  11.789  19.460  0.00  0.00    +0.000 A 
ATOM      4  C   UNL     1      -4.299  11.844  18.592  0.00  0.00    +0.000 A 
ATOM      5  C   UNL     1      -4.134  11.541  17.245  0.00  0.00    +0.000 A 
ATOM      6  C   UNL     1      -2.858  11.191  16.788  0.00  0.00    +0.000 A 
ATOM      7  N   UNL     1      -1.784  11.190  17.634  0.00  0.00    +0.000 NA
ATOM      8  C   UNL     1      -5.424  11.679  16.704  0.00  0.00    +0.000 A 
ATOM      9  N   UNL     1      -6.325  12.094  17.595  0.00  0.00    +0.000 NA
ATOM     10  N   UNL     1      -5.662  12.069  18.779  0.00  0.00    +0.000 N 
ATOM     11  H   UNL     1      -1.105  10.975  20.682  0.00  0.00    +0.000 HD
ENDROOT
BRANCH  10  12
ATOM     12  C   UNL     1      -6.330  12.323  20.017  0.00  0.00    +0.000 A 
ATOM     13  C   UNL     1      -6.138  13.582  20.626  0.00  0.00    +0.000 A 
ATOM     14  C   UNL     1      -6.648  13.870  21.888  0.00  0.00    +0.000 A 
ATOM     15  C   UNL     1      -7.438  12.936  22.533  0.00  0.00    +0.000 A 
ATOM     16  C   UNL     1      -7.696  11.701  21.921  0.00  0.00    +0.000 A 
ATOM     17  C   UNL     1      -7.141  11.365  20.666  0.00  0.00    +0.000 A 
BRANCH  17  18
ATOM     18  C   UNL     1      -7.270   9.941  20.224  0.00  0.00    +0.000 C 
ATOM     19  N   UNL     1      -7.432   9.694  18.886  0.00  0.00    +0.000 N 
ATOM     20  O   UNL     1      -7.347   9.005  21.016  0.00  0.00    +0.000 OA
ATOM     21  H   UNL     1      -7.505  10.399  18.165  0.00  0.00    +0.000 HD
ATOM     22  H   UNL     1      -7.561   8.728  18.616  0.00  0.00    +0.000 HD
ENDBRANCH  17  18
ENDBRANCH  10  12
BRANCH   1  24
ATOM     23  C   UNL     1       1.272  12.320  20.443  0.00  0.00    +0.000 C 
ATOM     24  C   UNL     1       0.484  11.480  19.428  0.00  0.00    +0.000 C 
BRANCH  24  25
ATOM     25  C   UNL     1       1.035  10.057  19.395  0.00  0.00    +0.000 A 
ATOM     26  C   UNL     1       1.639   9.574  18.222  0.00  0.00    +0.000 A 
ATOM     27  C   UNL     1       2.207   8.297  18.182  0.00  0.00    +0.000 A 
ATOM     28  C   UNL     1       2.184   7.484  19.312  0.00  0.00    +0.000 A 
ATOM     29  C   UNL     1       1.595   7.949  20.486  0.00  0.00    +0.000 A 
ATOM     30  C   UNL     1       1.026   9.225  20.526  0.00  0.00    +0.000 A 
ENDBRANCH  24  25
ENDBRANCH   1  24
TORSDOF 4
ENDMDL
MODEL 8
REMARK VINA RESULT:      -7.6      3.142      8.227
REMARK  Name = 
REMARK  5 active torsions:
REMARK  status: ('A' for Active; 'I' for Inactive)
REMARK    1  A    between atoms: C_1  and  C_2
REMARK    2  A    between atoms: C_2  and  N_3
REMARK    3  A    between atoms: C_2  and  C_22
REMARK    4  A    between atoms: N_12  and  C_13
REMARK    5  A    between atoms: C_18  and  C_19
REMARK                            x       y       z     vdW  Elec       q    Type
REMARK                         _______ _______ _______ _____ _____    ______ ____
ROOT
ATOM      1  N   UNL     1       2.927   6.976  18.406  0.00  0.00    +0.000 N 
ATOM      2  C   UNL     1       2.158   7.415  19.489  0.00  0.00    +0.000 A 
ATOM      3  C   UNL     1       1.751   8.740  19.416  0.00  0.00    +0.000 A 
ATOM      4  C   UNL     1       0.905   9.237  20.415  0.00  0.00    +0.000 A 
ATOM      5  C   UNL     1       0.523   8.417  21.471  0.00  0.00    +0.000 A 
ATOM      6  C   UNL     1       0.996   7.100  21.502  0.00  0.00    +0.000 A 
ATOM      7  N   UNL     1       1.780   6.610  20.495  0.00  0.00    +0.000 NA
ATOM      8  C   UNL     1      -0.290   9.243  22.267  0.00  0.00    +0.000 A 
ATOM      9  N   UNL     1      -0.470  10.458  21.748  0.00  0.00    +0.000 NA
ATOM     10  N   UNL     1       0.366  10.496  20.680  0.00  0.00    +0.000 N 
ATOM     11  H   UNL     1       3.714   7.594  18.238  0.00  0.00    +0.000 HD
ENDROOT
BRANCH  10  12
ATOM     12  C   UNL     1       0.566  11.693  19.926  0.00  0.00    +0.000 A 
ATOM     13  C   UNL     1       1.556  12.596  20.371  0.00  0.00    +0.000 A 
ATOM     14  C   UNL     1       1.734  13.839  19.773  0.00  0.00    +0.000 A 
ATOM     15  C   UNL     1       0.986  14.173  18.659  0.00  0.00    +0.000 A 
ATOM     16  C   UNL     1       0.038  13.268  18.160  0.00  0.00    +0.000 A 
ATOM     17  C   UNL     1      -0.200  12.023  18.786  0.00  0.00    +0.000 A 
BRANCH  17  18
ATOM     18  C   UNL     1      -1.396  11.249  18.329  0.00  0.00    +0.000 C 
ATOM     19  N   UNL     1      -1.209  10.271  17.388  0.00  0.00    +0.000 N 
ATOM     20  O   UNL     1      -2.540  11.529  18.678  0.00  0.00    +0.000 OA
ATOM     21  H   UNL     1      -0.328  10.045  16.946  0.00  0.00    +0.000 HD
ATOM     22  H   UNL     1      -2.037   9.792  17.061  0.00  0.00    +0.000 HD
ENDBRANCH  17  18
ENDBRANCH  10  12
BRANCH   1  24
ATOM     23  C   UNL     1       1.883   4.930  17.749  0.00  0.00    +0.000 C 
ATOM     24  C   UNL     1       3.208   5.571  18.187  0.00  0.00    +0.000 C 
BRANCH  24  25
ATOM     25  C   UNL     1       4.268   5.354  17.111  0.00  0.00    +0.000 A 
ATOM     26  C   UNL     1       4.679   4.048  16.795  0.00  0.00    +0.000 A 
ATOM     27  C   UNL     1       5.603   3.814  15.773  0.00  0.00    +0.000 A 
ATOM     28  C   UNL     1       6.130   4.880  15.048  0.00  0.00    +0.000 A 
ATOM     29  C   UNL     1       5.730   6.181  15.343  0.00  0.00    +0.000 A 
ATOM     30  C   UNL     1       4.807   6.415  16.367  0.00  0.00    +0.000 A 
ENDBRANCH  24  25
ENDBRANCH   1  24
TORSDOF 4
ENDMDL
MODEL 9
REMARK VINA RESULT:      -7.5      3.660      8.476
REMARK  Name = 
REMARK  5 active torsions:
REMARK  status: ('A' for Active; 'I' for Inactive)
REMARK    1  A    between atoms: C_1  and  C_2
REMARK    2  A    between atoms: C_2  and  N_3
REMARK    3  A    between atoms: C_2  and  C_22
REMARK    4  A    between atoms: N_12  and  C_13
REMARK    5  A    between atoms: C_18  and  C_19
REMARK                            x       y       z     vdW  Elec       q    Type
REMARK                         _______ _______ _______ _____ _____    ______ ____
ROOT
ATOM      1  N   UNL     1       5.403   4.728  14.198  0.00  0.00    +0.000 N 
ATOM      2  C   UNL     1       5.903   5.045  15.464  0.00  0.00    +0.000 A 
ATOM      3  C   UNL     1       5.074   4.700  16.522  0.00  0.00    +0.000 A 
ATOM      4  C   UNL     1       5.535   4.901  17.829  0.00  0.00    +0.000 A 
ATOM      5  C   UNL     1       6.785   5.472  18.043  0.00  0.00    +0.000 A 
ATOM      6  C   UNL     1       7.558   5.828  16.931  0.00  0.00    +0.000 A 
ATOM      7  N   UNL     1       7.119   5.579  15.660  0.00  0.00    +0.000 NA
ATOM      8  C   UNL     1       6.896   5.535  19.442  0.00  0.00    +0.000 A 
ATOM      9  N   UNL     1       5.852   5.000  20.076  0.00  0.00    +0.000 NA
ATOM     10  N   UNL     1       4.961   4.730  19.088  0.00  0.00    +0.000 N 
ATOM     11  H   UNL     1       4.468   5.099  14.068  0.00  0.00    +0.000 HD
ENDROOT
BRANCH  10  12
ATOM     12  C   UNL     1       3.641   4.264  19.376  0.00  0.00    +0.000 A 
ATOM     13  C   UNL     1       2.625   5.227  19.554  0.00  0.00    +0.000 A 
ATOM     14  C   UNL     1       1.342   4.871  19.958  0.00  0.00    +0.000 A 
ATOM     15  C   UNL     1       1.021   3.534  20.106  0.00  0.00    +0.000 A 
ATOM     16  C   UNL     1       1.997   2.554  19.874  0.00  0.00    +0.000 A 
ATOM     17  C   UNL     1       3.322   2.895  19.520  0.00  0.00    +0.000 A 
BRANCH  17  18
ATOM     18  C   UNL     1       4.337   1.796  19.544  0.00  0.00    +0.000 C 
ATOM     19  N   UNL     1       4.273   0.839  18.566  0.00  0.00    +0.000 N 
ATOM     20  O   UNL     1       5.146   1.660  20.458  0.00  0.00    +0.000 OA
ATOM     21  H   UNL     1       3.571   0.791  17.839  0.00  0.00    +0.000 HD
ATOM     22  H   UNL     1       4.940   0.083  18.627  0.00  0.00    +0.000 HD
ENDBRANCH  17  18
ENDBRANCH  10  12
BRANCH   1  24
ATOM     23  C   UNL     1       7.661   5.076  13.499  0.00  0.00    +0.000 C 
ATOM     24  C   UNL     1       6.237   4.770  13.013  0.00  0.00    +0.000 C 
BRANCH  24  25
ATOM     25  C   UNL     1       6.225   3.449  12.249  0.00  0.00    +0.000 A 
ATOM     26  C   UNL     1       4.998   2.872  11.880  0.00  0.00    +0.000 A 
ATOM     27  C   UNL     1       4.957   1.694  11.127  0.00  0.00    +0.000 A 
ATOM     28  C   UNL     1       6.139   1.075  10.730  0.00  0.00    +0.000 A 
ATOM     29  C   UNL     1       7.365   1.635  11.082  0.00  0.00    +0.000 A 
ATOM     30  C   UNL     1       7.406   2.813  11.836  0.00  0.00    +0.000 A 
ENDBRANCH  24  25
ENDBRANCH   1  24
TORSDOF 4
ENDMDL
