MODEL 1
REMARK VINA RESULT:      -9.0      0.000      0.000
REMARK  Name = 
REMARK  5 active torsions:
REMARK  status: ('A' for Active; 'I' for Inactive)
REMARK    1  A    between atoms: C_2  and  C_3
REMARK    2  A    between atoms: C_3  and  N_4
REMARK    3  A    between atoms: N_18  and  C_19
REMARK    4  A    between atoms: C_22  and  O_23
REMARK    5  A    between atoms: O_23  and  C_24
REMARK                            x       y       z     vdW  Elec       q    Type
REMARK                         _______ _______ _______ _____ _____    ______ ____
ROOT
ATOM      1  O   UNL     1       8.452   7.264  18.911  0.00  0.00    +0.000 OA
ATOM      2  C   UNL     1       7.984   7.673  17.847  0.00  0.00    +0.000 C 
ATOM      3  N   UNL     1       7.922   8.995  17.439  0.00  0.00    +0.000 N 
ATOM      4  H   UNL     1       7.241   9.220  16.713  0.00  0.00    +0.000 HD
ENDROOT
BRANCH   3   5
ATOM      5  C   UNL     1       8.513  10.089  18.112  0.00  0.00    +0.000 A 
ATOM      6  C   UNL     1       9.200   9.957  19.320  0.00  0.00    +0.000 A 
ATOM      7  C   UNL     1       9.679  11.087  19.989  0.00  0.00    +0.000 A 
ATOM      8  C   UNL     1       9.509  12.366  19.459  0.00  0.00    +0.000 A 
ATOM      9  C   UNL     1       8.859  12.501  18.234  0.00  0.00    +0.000 A 
ATOM     10  C   UNL     1       8.387  11.365  17.552  0.00  0.00    +0.000 A 
BRANCH   8  11
ATOM     11  O   UNL     1       9.952  13.364  20.266  0.00  0.00    +0.000 OA
BRANCH  11  12
ATOM     12  C   UNL     1      11.144  14.068  19.968  0.00  0.00    +0.000 C 
ATOM     13  F   UNL     1      11.461  15.029  20.862  0.00  0.00    +0.000 F 
ATOM     14  F   UNL     1      12.173  13.197  19.884  0.00  0.00    +0.000 F 
ATOM     15  F   UNL     1      10.996  14.660  18.762  0.00  0.00    +0.000 F 
ENDBRANCH  11  12
ENDBRANCH   8  11
ENDBRANCH   3   5
BRANCH   2  16
ATOM     16  C   UNL     1       7.303   6.689  16.902  0.00  0.00    +0.000 C 
BRANCH  16  17
ATOM     17  N   UNL     1       6.135   6.114  17.547  0.00  0.00    +0.000 N 
ATOM     18  C   UNL     1       4.896   6.740  17.446  0.00  0.00    +0.000 A 
ATOM     19  N   UNL     1       3.775   6.366  17.995  0.00  0.00    +0.000 NA
ATOM     20  C   UNL     1       3.907   5.197  18.756  0.00  0.00    +0.000 A 
ATOM     21  C   UNL     1       5.083   4.517  18.878  0.00  0.00    +0.000 A 
ATOM     22  O   UNL     1       4.939   3.431  19.679  0.00  0.00    +0.000 OA
ATOM     23  C   UNL     1       3.621   3.423  20.058  0.00  0.00    +0.000 A 
ATOM     24  C   UNL     1       3.028   2.469  20.884  0.00  0.00    +0.000 A 
ATOM     25  C   UNL     1       1.659   2.619  21.132  0.00  0.00    +0.000 A 
ATOM     26  C   UNL     1       0.933   3.678  20.581  0.00  0.00    +0.000 A 
ATOM     27  C   UNL     1       1.556   4.634  19.763  0.00  0.00    +0.000 A 
ATOM     28  C   UNL     1       2.931   4.501  19.497  0.00  0.00    +0.000 A 
ATOM     29  C   UNL     1       6.298   4.910  18.240  0.00  0.00    +0.000 A 
ATOM     30  O   UNL     1       7.359   4.294  18.254  0.00  0.00    +0.000 OA
ENDBRANCH  16  17
ENDBRANCH   2  16
TORSDOF 5
ENDMDL
MODEL 2
REMARK VINA RESULT:      -8.8      0.824      1.378
REMARK  Name = 
REMARK  5 active torsions:
REMARK  status: ('A' for Active; 'I' for Inactive)
REMARK    1  A    between atoms: C_2  and  C_3
REMARK    2  A    between atoms: C_3  and  N_4
REMARK    3  A    between atoms: N_18  and  C_19
REMARK    4  A    between atoms: C_22  and  O_23
REMARK    5  A    between atoms: O_23  and  C_24
REMARK                            x       y       z     vdW  Elec       q    Type
REMARK                         _______ _______ _______ _____ _____    ______ ____
ROOT
ATOM      1  O   UNL     1       8.451   7.351  18.918  0.00  0.00    +0.000 OA
ATOM      2  C   UNL     1       7.993   7.771  17.854  0.00  0.00    +0.000 C 
ATOM      3  N   UNL     1       7.941   9.096  17.456  0.00  0.00    +0.000 N 
ATOM      4  H   UNL     1       7.267   9.332  16.728  0.00  0.00    +0.000 HD
ENDROOT
BRANCH   3   5
ATOM      5  C   UNL     1       8.534  10.182  18.142  0.00  0.00    +0.000 A 
ATOM      6  C   UNL     1       8.485  11.495  17.672  0.00  0.00    +0.000 A 
ATOM      7  C   UNL     1       9.172  12.512  18.342  0.00  0.00    +0.000 A 
ATOM      8  C   UNL     1       9.896  12.250  19.504  0.00  0.00    +0.000 A 
ATOM      9  C   UNL     1       9.917  10.949  20.001  0.00  0.00    +0.000 A 
ATOM     10  C   UNL     1       9.216   9.925  19.336  0.00  0.00    +0.000 A 
BRANCH   8  11
ATOM     11  O   UNL     1      10.575  13.323  19.987  0.00  0.00    +0.000 OA
BRANCH  11  12
ATOM     12  C   UNL     1      10.070  14.078  21.073  0.00  0.00    +0.000 C 
ATOM     13  F   UNL     1      10.928  15.000  21.556  0.00  0.00    +0.000 F 
ATOM     14  F   UNL     1       8.930  14.699  20.697  0.00  0.00    +0.000 F 
ATOM     15  F   UNL     1       9.770  13.226  22.078  0.00  0.00    +0.000 F 
ENDBRANCH  11  12
ENDBRANCH   8  11
ENDBRANCH   3   5
BRANCH   2  16
ATOM     16  C   UNL     1       7.312   6.799  16.896  0.00  0.00    +0.000 C 
BRANCH  16  17
ATOM     17  N   UNL     1       6.151   6.205  17.538  0.00  0.00    +0.000 N 
ATOM     18  C   UNL     1       4.911   6.831  17.464  0.00  0.00    +0.000 A 
ATOM     19  N   UNL     1       3.796   6.440  18.015  0.00  0.00    +0.000 NA
ATOM     20  C   UNL     1       3.937   5.253  18.746  0.00  0.00    +0.000 A 
ATOM     21  C   UNL     1       5.117   4.574  18.839  0.00  0.00    +0.000 A 
ATOM     22  O   UNL     1       4.982   3.468  19.615  0.00  0.00    +0.000 OA
ATOM     23  C   UNL     1       3.668   3.448  20.006  0.00  0.00    +0.000 A 
ATOM     24  C   UNL     1       3.085   2.472  20.813  0.00  0.00    +0.000 A 
ATOM     25  C   UNL     1       1.718   2.612  21.079  0.00  0.00    +0.000 A 
ATOM     26  C   UNL     1       0.985   3.684  20.561  0.00  0.00    +0.000 A 
ATOM     27  C   UNL     1       1.598   4.660  19.760  0.00  0.00    +0.000 A 
ATOM     28  C   UNL     1       2.970   4.538  19.478  0.00  0.00    +0.000 A 
ATOM     29  C   UNL     1       6.324   4.985  18.200  0.00  0.00    +0.000 A 
ATOM     30  O   UNL     1       7.387   4.371  18.187  0.00  0.00    +0.000 OA
ENDBRANCH  16  17
ENDBRANCH   2  16
TORSDOF 5
ENDMDL
MODEL 3
REMARK VINA RESULT:      -8.8      0.893      1.109
REMARK  Name = 
REMARK  5 active torsions:
REMARK  status: ('A' for Active; 'I' for Inactive)
REMARK    1  A    between atoms: C_2  and  C_3
REMARK    2  A    between atoms: C_3  and  N_4
REMARK    3  A    between atoms: N_18  and  C_19
REMARK    4  A    between atoms: C_22  and  O_23
REMARK    5  A    between atoms: O_23  and  C_24
REMARK                            x       y       z     vdW  Elec       q    Type
REMARK                         _______ _______ _______ _____ _____    ______ ____
ROOT
ATOM      1  O   UNL     1       8.517   7.160  18.980  0.00  0.00    +0.000 OA
ATOM      2  C   UNL     1       8.090   7.737  17.978  0.00  0.00    +0.000 C 
ATOM      3  N   UNL     1       8.195   9.091  17.711  0.00  0.00    +0.000 N 
ATOM      4  H   UNL     1       7.538   9.479  17.033  0.00  0.00    +0.000 HD
ENDROOT
BRANCH   3   5
ATOM      5  C   UNL     1       8.935  10.023  18.476  0.00  0.00    +0.000 A 
ATOM      6  C   UNL     1       8.907  10.054  19.871  0.00  0.00    +0.000 A 
ATOM      7  C   UNL     1       9.581  11.058  20.571  0.00  0.00    +0.000 A 
ATOM      8  C   UNL     1      10.318  12.034  19.901  0.00  0.00    +0.000 A 
ATOM      9  C   UNL     1      10.383  11.986  18.510  0.00  0.00    +0.000 A 
ATOM     10  C   UNL     1       9.716  10.969  17.803  0.00  0.00    +0.000 A 
BRANCH   8  11
ATOM     11  O   UNL     1      10.843  12.987  20.713  0.00  0.00    +0.000 OA
BRANCH  11  12
ATOM     12  C   UNL     1      10.099  14.140  21.061  0.00  0.00    +0.000 C 
ATOM     13  F   UNL     1       9.003  14.345  20.300  0.00  0.00    +0.000 F 
ATOM     14  F   UNL     1       9.720  14.058  22.355  0.00  0.00    +0.000 F 
ATOM     15  F   UNL     1      10.901  15.219  20.927  0.00  0.00    +0.000 F 
ENDBRANCH  11  12
ENDBRANCH   8  11
ENDBRANCH   3   5
BRANCH   2  16
ATOM     16  C   UNL     1       7.270   6.955  16.957  0.00  0.00    +0.000 C 
BRANCH  16  17
ATOM     17  N   UNL     1       6.126   6.340  17.609  0.00  0.00    +0.000 N 
ATOM     18  C   UNL     1       4.898   6.995  17.638  0.00  0.00    +0.000 A 
ATOM     19  N   UNL     1       3.801   6.589  18.211  0.00  0.00    +0.000 NA
ATOM     20  C   UNL     1       3.947   5.350  18.849  0.00  0.00    +0.000 A 
ATOM     21  C   UNL     1       5.113   4.642  18.840  0.00  0.00    +0.000 A 
ATOM     22  O   UNL     1       4.987   3.487  19.541  0.00  0.00    +0.000 OA
ATOM     23  C   UNL     1       3.692   3.465  19.990  0.00  0.00    +0.000 A 
ATOM     24  C   UNL     1       3.124   2.446  20.754  0.00  0.00    +0.000 A 
ATOM     25  C   UNL     1       1.774   2.595  21.092  0.00  0.00    +0.000 A 
ATOM     26  C   UNL     1       1.043   3.715  20.686  0.00  0.00    +0.000 A 
ATOM     27  C   UNL     1       1.643   4.734  19.928  0.00  0.00    +0.000 A 
ATOM     28  C   UNL     1       2.997   4.604  19.574  0.00  0.00    +0.000 A 
ATOM     29  C   UNL     1       6.299   5.073  18.175  0.00  0.00    +0.000 A 
ATOM     30  O   UNL     1       7.346   4.440  18.069  0.00  0.00    +0.000 OA
ENDBRANCH  16  17
ENDBRANCH   2  16
TORSDOF 5
ENDMDL
MODEL 4
REMARK VINA RESULT:      -8.7      6.328      8.154
REMARK  Name = 
REMARK  5 active torsions:
REMARK  status: ('A' for Active; 'I' for Inactive)
REMARK    1  A    between atoms: C_2  and  C_3
REMARK    2  A    between atoms: C_3  and  N_4
REMARK    3  A    between atoms: N_18  and  C_19
REMARK    4  A    between atoms: C_22  and  O_23
REMARK    5  A    between atoms: O_23  and  C_24
REMARK                            x       y       z     vdW  Elec       q    Type
REMARK                         _______ _______ _______ _____ _____    ______ ____
ROOT
ATOM      1  O   UNL     1       2.385   5.279  20.522  0.00  0.00    +0.000 OA
ATOM      2  C   UNL     1       3.307   5.569  19.758  0.00  0.00    +0.000 C 
ATOM      3  N   UNL     1       3.360   6.675  18.927  0.00  0.00    +0.000 N 
ATOM      4  H   UNL     1       4.003   6.626  18.137  0.00  0.00    +0.000 HD
ENDROOT
BRANCH   3   5
ATOM      5  C   UNL     1       2.427   7.738  18.917  0.00  0.00    +0.000 A 
ATOM      6  C   UNL     1       2.109   8.458  17.764  0.00  0.00    +0.000 A 
ATOM      7  C   UNL     1       1.253   9.561  17.832  0.00  0.00    +0.000 A 
ATOM      8  C   UNL     1       0.676   9.953  19.040  0.00  0.00    +0.000 A 
ATOM      9  C   UNL     1       0.958   9.214  20.187  0.00  0.00    +0.000 A 
ATOM     10  C   UNL     1       1.809   8.096  20.119  0.00  0.00    +0.000 A 
BRANCH   8  11
ATOM     11  O   UNL     1      -0.062  11.090  18.958  0.00  0.00    +0.000 OA
BRANCH  11  12
ATOM     12  C   UNL     1      -1.474  11.039  18.867  0.00  0.00    +0.000 C 
ATOM     13  F   UNL     1      -1.999  11.838  17.914  0.00  0.00    +0.000 F 
ATOM     14  F   UNL     1      -1.864   9.767  18.632  0.00  0.00    +0.000 F 
ATOM     15  F   UNL     1      -1.989  11.422  20.056  0.00  0.00    +0.000 F 
ENDBRANCH  11  12
ENDBRANCH   8  11
ENDBRANCH   3   5
BRANCH   2  16
ATOM     16  C   UNL     1       4.475   4.601  19.594  0.00  0.00    +0.000 C 
BRANCH  16  17
ATOM     17  N   UNL     1       4.826   4.485  18.189  0.00  0.00    +0.000 N 
ATOM     18  C   UNL     1       4.084   3.664  17.344  0.00  0.00    +0.000 A 
ATOM     19  N   UNL     1       4.299   3.433  16.080  0.00  0.00    +0.000 NA
ATOM     20  C   UNL     1       5.415   4.120  15.584  0.00  0.00    +0.000 A 
ATOM     21  C   UNL     1       6.171   4.960  16.347  0.00  0.00    +0.000 A 
ATOM     22  O   UNL     1       7.196   5.484  15.628  0.00  0.00    +0.000 OA
ATOM     23  C   UNL     1       7.064   4.966  14.365  0.00  0.00    +0.000 A 
ATOM     24  C   UNL     1       7.907   5.245  13.291  0.00  0.00    +0.000 A 
ATOM     25  C   UNL     1       7.591   4.637  12.070  0.00  0.00    +0.000 A 
ATOM     26  C   UNL     1       6.486   3.789  11.948  0.00  0.00    +0.000 A 
ATOM     27  C   UNL     1       5.661   3.513  13.049  0.00  0.00    +0.000 A 
ATOM     28  C   UNL     1       5.958   4.115  14.284  0.00  0.00    +0.000 A 
ATOM     29  C   UNL     1       5.906   5.240  17.721  0.00  0.00    +0.000 A 
ATOM     30  O   UNL     1       6.505   6.045  18.429  0.00  0.00    +0.000 OA
ENDBRANCH  16  17
ENDBRANCH   2  16
TORSDOF 5
ENDMDL
MODEL 5
REMARK VINA RESULT:      -8.7      6.364      8.250
REMARK  Name = 
REMARK  5 active torsions:
REMARK  status: ('A' for Active; 'I' for Inactive)
REMARK    1  A    between atoms: C_2  and  C_3
REMARK    2  A    between atoms: C_3  and  N_4
REMARK    3  A    between atoms: N_18  and  C_19
REMARK    4  A    between atoms: C_22  and  O_23
REMARK    5  A    between atoms: O_23  and  C_24
REMARK                            x       y       z     vdW  Elec       q    Type
REMARK                         _______ _______ _______ _____ _____    ______ ____
ROOT
ATOM      1  O   UNL     1       1.744   5.129  20.346  0.00  0.00    +0.000 OA
ATOM      2  C   UNL     1       2.827   5.536  19.922  0.00  0.00    +0.000 C 
ATOM      3  N   UNL     1       3.082   6.802  19.423  0.00  0.00    +0.000 N 
ATOM      4  H   UNL     1       3.901   6.904  18.824  0.00  0.00    +0.000 HD
ENDROOT
BRANCH   3   5
ATOM      5  C   UNL     1       2.179   7.890  19.447  0.00  0.00    +0.000 A 
ATOM      6  C   UNL     1       1.492   8.283  20.597  0.00  0.00    +0.000 A 
ATOM      7  C   UNL     1       0.539   9.303  20.539  0.00  0.00    +0.000 A 
ATOM      8  C   UNL     1       0.269   9.971  19.345  0.00  0.00    +0.000 A 
ATOM      9  C   UNL     1       0.979   9.611  18.201  0.00  0.00    +0.000 A 
ATOM     10  C   UNL     1       1.949   8.593  18.260  0.00  0.00    +0.000 A 
BRANCH   8  11
ATOM     11  O   UNL     1      -0.741  10.875  19.432  0.00  0.00    +0.000 OA
BRANCH  11  12
ATOM     12  C   UNL     1      -1.845  10.823  18.548  0.00  0.00    +0.000 C 
ATOM     13  F   UNL     1      -1.622  11.392  17.344  0.00  0.00    +0.000 F 
ATOM     14  F   UNL     1      -2.210   9.535  18.359  0.00  0.00    +0.000 F 
ATOM     15  F   UNL     1      -2.881  11.471  19.124  0.00  0.00    +0.000 F 
ENDBRANCH  11  12
ENDBRANCH   8  11
ENDBRANCH   3   5
BRANCH   2  16
ATOM     16  C   UNL     1       4.000   4.568  19.813  0.00  0.00    +0.000 C 
BRANCH  16  17
ATOM     17  N   UNL     1       4.430   4.466  18.429  0.00  0.00    +0.000 N 
ATOM     18  C   UNL     1       3.697   3.708  17.520  0.00  0.00    +0.000 A 
ATOM     19  N   UNL     1       3.976   3.496  16.265  0.00  0.00    +0.000 NA
ATOM     20  C   UNL     1       5.155   4.130  15.854  0.00  0.00    +0.000 A 
ATOM     21  C   UNL     1       5.909   4.907  16.684  0.00  0.00    +0.000 A 
ATOM     22  O   UNL     1       7.003   5.389  16.042  0.00  0.00    +0.000 OA
ATOM     23  C   UNL     1       6.920   4.909  14.760  0.00  0.00    +0.000 A 
ATOM     24  C   UNL     1       7.841   5.166  13.745  0.00  0.00    +0.000 A 
ATOM     25  C   UNL     1       7.567   4.607  12.492  0.00  0.00    +0.000 A 
ATOM     26  C   UNL     1       6.427   3.825  12.281  0.00  0.00    +0.000 A 
ATOM     27  C   UNL     1       5.522   3.570  13.324  0.00  0.00    +0.000 A 
ATOM     28  C   UNL     1       5.776   4.125  14.590  0.00  0.00    +0.000 A 
ATOM     29  C   UNL     1       5.576   5.169  18.047  0.00  0.00    +0.000 A 
ATOM     30  O   UNL     1       6.175   5.922  18.811  0.00  0.00    +0.000 OA
ENDBRANCH  16  17
ENDBRANCH   2  16
TORSDOF 5
ENDMDL
MODEL 6
REMARK VINA RESULT:      -8.7      1.175      1.806
REMARK  Name = 
REMARK  5 active torsions:
REMARK  status: ('A' for Active; 'I' for Inactive)
REMARK    1  A    between atoms: C_2  and  C_3
REMARK    2  A    between atoms: C_3  and  N_4
REMARK    3  A    between atoms: N_18  and  C_19
REMARK    4  A    between atoms: C_22  and  O_23
REMARK    5  A    between atoms: O_23  and  C_24
REMARK                            x       y       z     vdW  Elec       q    Type
REMARK                         _______ _______ _______ _____ _____    ______ ____
ROOT
ATOM      1  O   UNL     1       8.424   7.233  18.837  0.00  0.00    +0.000 OA
ATOM      2  C   UNL     1       7.860   7.651  17.825  0.00  0.00    +0.000 C 
ATOM      3  N   UNL     1       7.759   8.976  17.437  0.00  0.00    +0.000 N 
ATOM      4  H   UNL     1       7.013   9.207  16.780  0.00  0.00    +0.000 HD
ENDROOT
BRANCH   3   5
ATOM      5  C   UNL     1       8.408  10.066  18.063  0.00  0.00    +0.000 A 
ATOM      6  C   UNL     1       9.176   9.929  19.220  0.00  0.00    +0.000 A 
ATOM      7  C   UNL     1       9.714  11.055  19.850  0.00  0.00    +0.000 A 
ATOM      8  C   UNL     1       9.523  12.334  19.328  0.00  0.00    +0.000 A 
ATOM      9  C   UNL     1       8.791  12.474  18.150  0.00  0.00    +0.000 A 
ATOM     10  C   UNL     1       8.259  11.341  17.508  0.00  0.00    +0.000 A 
BRANCH   8  11
ATOM     11  O   UNL     1      10.034  13.329  20.098  0.00  0.00    +0.000 OA
BRANCH  11  12
ATOM     12  C   UNL     1      11.292  13.907  19.802  0.00  0.00    +0.000 C 
ATOM     13  F   UNL     1      12.333  13.052  19.894  0.00  0.00    +0.000 F 
ATOM     14  F   UNL     1      11.267  14.428  18.556  0.00  0.00    +0.000 F 
ATOM     15  F   UNL     1      11.511  14.917  20.673  0.00  0.00    +0.000 F 
ENDBRANCH  11  12
ENDBRANCH   8  11
ENDBRANCH   3   5
BRANCH   2  16
ATOM     16  C   UNL     1       7.094   6.675  16.938  0.00  0.00    +0.000 C 
BRANCH  16  17
ATOM     17  N   UNL     1       6.155   5.910  17.741  0.00  0.00    +0.000 N 
ATOM     18  C   UNL     1       6.590   4.806  18.469  0.00  0.00    +0.000 A 
ATOM     19  N   UNL     1       5.864   4.008  19.200  0.00  0.00    +0.000 NA
ATOM     20  C   UNL     1       4.508   4.360  19.208  0.00  0.00    +0.000 A 
ATOM     21  C   UNL     1       4.017   5.443  18.538  0.00  0.00    +0.000 A 
ATOM     22  O   UNL     1       2.674   5.548  18.700  0.00  0.00    +0.000 OA
ATOM     23  C   UNL     1       2.315   4.504  19.514  0.00  0.00    +0.000 A 
ATOM     24  C   UNL     1       1.019   4.233  19.948  0.00  0.00    +0.000 A 
ATOM     25  C   UNL     1       0.860   3.133  20.799  0.00  0.00    +0.000 A 
ATOM     26  C   UNL     1       1.952   2.350  21.183  0.00  0.00    +0.000 A 
ATOM     27  C   UNL     1       3.246   2.636  20.721  0.00  0.00    +0.000 A 
ATOM     28  C   UNL     1       3.430   3.738  19.868  0.00  0.00    +0.000 A 
ATOM     29  C   UNL     1       4.824   6.337  17.772  0.00  0.00    +0.000 A 
ATOM     30  O   UNL     1       4.446   7.365  17.218  0.00  0.00    +0.000 OA
ENDBRANCH  16  17
ENDBRANCH   2  16
TORSDOF 5
ENDMDL
MODEL 7
REMARK VINA RESULT:      -8.6      5.616      7.837
REMARK  Name = 
REMARK  5 active torsions:
REMARK  status: ('A' for Active; 'I' for Inactive)
REMARK    1  A    between atoms: C_2  and  C_3
REMARK    2  A    between atoms: C_3  and  N_4
REMARK    3  A    between atoms: N_18  and  C_19
REMARK    4  A    between atoms: C_22  and  O_23
REMARK    5  A    between atoms: O_23  and  C_24
REMARK                            x       y       z     vdW  Elec       q    Type
REMARK                         _______ _______ _______ _____ _____    ______ ____
ROOT
ATOM      1  O   UNL     1       2.407   5.142  20.134  0.00  0.00    +0.000 OA
ATOM      2  C   UNL     1       3.371   5.735  19.645  0.00  0.00    +0.000 C 
ATOM      3  N   UNL     1       3.354   7.009  19.104  0.00  0.00    +0.000 N 
ATOM      4  H   UNL     1       4.110   7.246  18.462  0.00  0.00    +0.000 HD
ENDROOT
BRANCH   3   5
ATOM      5  C   UNL     1       2.259   7.903  19.146  0.00  0.00    +0.000 A 
ATOM      6  C   UNL     1       1.795   8.590  18.024  0.00  0.00    +0.000 A 
ATOM      7  C   UNL     1       0.772   9.535  18.144  0.00  0.00    +0.000 A 
ATOM      8  C   UNL     1       0.172   9.796  19.376  0.00  0.00    +0.000 A 
ATOM      9  C   UNL     1       0.603   9.085  20.494  0.00  0.00    +0.000 A 
ATOM     10  C   UNL     1       1.624   8.124  20.373  0.00  0.00    +0.000 A 
BRANCH   8  11
ATOM     11  O   UNL     1      -0.744  10.798  19.345  0.00  0.00    +0.000 OA
BRANCH  11  12
ATOM     12  C   UNL     1      -0.344  12.154  19.405  0.00  0.00    +0.000 C 
ATOM     13  F   UNL     1      -1.200  12.958  20.069  0.00  0.00    +0.000 F 
ATOM     14  F   UNL     1       0.873  12.239  19.987  0.00  0.00    +0.000 F 
ATOM     15  F   UNL     1      -0.236  12.621  18.141  0.00  0.00    +0.000 F 
ENDBRANCH  11  12
ENDBRANCH   8  11
ENDBRANCH   3   5
BRANCH   2  16
ATOM     16  C   UNL     1       4.704   5.007  19.502  0.00  0.00    +0.000 C 
BRANCH  16  17
ATOM     17  N   UNL     1       4.999   4.790  18.095  0.00  0.00    +0.000 N 
ATOM     18  C   UNL     1       4.213   3.925  17.338  0.00  0.00    +0.000 A 
ATOM     19  N   UNL     1       4.376   3.605  16.086  0.00  0.00    +0.000 NA
ATOM     20  C   UNL     1       5.481   4.238  15.501  0.00  0.00    +0.000 A 
ATOM     21  C   UNL     1       6.278   5.116  16.176  0.00  0.00    +0.000 A 
ATOM     22  O   UNL     1       7.281   5.573  15.384  0.00  0.00    +0.000 OA
ATOM     23  C   UNL     1       7.093   4.971  14.166  0.00  0.00    +0.000 A 
ATOM     24  C   UNL     1       7.898   5.163  13.044  0.00  0.00    +0.000 A 
ATOM     25  C   UNL     1       7.526   4.479  11.881  0.00  0.00    +0.000 A 
ATOM     26  C   UNL     1       6.406   3.642  11.859  0.00  0.00    +0.000 A 
ATOM     27  C   UNL     1       5.620   3.455  13.007  0.00  0.00    +0.000 A 
ATOM     28  C   UNL     1       5.973   4.136  14.186  0.00  0.00    +0.000 A 
ATOM     29  C   UNL     1       6.070   5.494  17.537  0.00  0.00    +0.000 A 
ATOM     30  O   UNL     1       6.707   6.335  18.164  0.00  0.00    +0.000 OA
ENDBRANCH  16  17
ENDBRANCH   2  16
TORSDOF 5
ENDMDL
MODEL 8
REMARK VINA RESULT:      -8.6      5.784      7.994
REMARK  Name = 
REMARK  5 active torsions:
REMARK  status: ('A' for Active; 'I' for Inactive)
REMARK    1  A    between atoms: C_2  and  C_3
REMARK    2  A    between atoms: C_3  and  N_4
REMARK    3  A    between atoms: N_18  and  C_19
REMARK    4  A    between atoms: C_22  and  O_23
REMARK    5  A    between atoms: O_23  and  C_24
REMARK                            x       y       z     vdW  Elec       q    Type
REMARK                         _______ _______ _______ _____ _____    ______ ____
ROOT
ATOM      1  O   UNL     1       2.028   5.064  19.994  0.00  0.00    +0.000 OA
ATOM      2  C   UNL     1       3.087   5.629  19.712  0.00  0.00    +0.000 C 
ATOM      3  N   UNL     1       3.233   6.964  19.374  0.00  0.00    +0.000 N 
ATOM      4  H   UNL     1       4.079   7.218  18.864  0.00  0.00    +0.000 HD
ENDROOT
BRANCH   3   5
ATOM      5  C   UNL     1       2.212   7.941  19.431  0.00  0.00    +0.000 A 
ATOM      6  C   UNL     1       1.495   8.223  20.594  0.00  0.00    +0.000 A 
ATOM      7  C   UNL     1       0.431   9.129  20.568  0.00  0.00    +0.000 A 
ATOM      8  C   UNL     1       0.077   9.792  19.393  0.00  0.00    +0.000 A 
ATOM      9  C   UNL     1       0.814   9.544  18.237  0.00  0.00    +0.000 A 
ATOM     10  C   UNL     1       1.893   8.642  18.264  0.00  0.00    +0.000 A 
BRANCH   8  11
ATOM     11  O   UNL     1      -1.028  10.573  19.509  0.00  0.00    +0.000 OA
BRANCH  11  12
ATOM     12  C   UNL     1      -0.934  11.903  19.985  0.00  0.00    +0.000 C 
ATOM     13  F   UNL     1       0.319  12.403  19.995  0.00  0.00    +0.000 F 
ATOM     14  F   UNL     1      -1.717  12.707  19.233  0.00  0.00    +0.000 F 
ATOM     15  F   UNL     1      -1.400  11.933  21.254  0.00  0.00    +0.000 F 
ENDBRANCH  11  12
ENDBRANCH   8  11
ENDBRANCH   3   5
BRANCH   2  16
ATOM     16  C   UNL     1       4.368   4.808  19.608  0.00  0.00    +0.000 C 
BRANCH  16  17
ATOM     17  N   UNL     1       4.738   4.645  18.212  0.00  0.00    +0.000 N 
ATOM     18  C   UNL     1       4.015   3.786  17.390  0.00  0.00    +0.000 A 
ATOM     19  N   UNL     1       4.248   3.512  16.137  0.00  0.00    +0.000 NA
ATOM     20  C   UNL     1       5.362   4.192  15.630  0.00  0.00    +0.000 A 
ATOM     21  C   UNL     1       6.101   5.067  16.371  0.00  0.00    +0.000 A 
ATOM     22  O   UNL     1       7.129   5.575  15.645  0.00  0.00    +0.000 OA
ATOM     23  C   UNL     1       7.018   5.010  14.400  0.00  0.00    +0.000 A 
ATOM     24  C   UNL     1       7.871   5.259  13.327  0.00  0.00    +0.000 A 
ATOM     25  C   UNL     1       7.576   4.604  12.126  0.00  0.00    +0.000 A 
ATOM     26  C   UNL     1       6.481   3.740  12.021  0.00  0.00    +0.000 A 
ATOM     27  C   UNL     1       5.645   3.495  13.122  0.00  0.00    +0.000 A 
ATOM     28  C   UNL     1       5.921   4.145  14.337  0.00  0.00    +0.000 A 
ATOM     29  C   UNL     1       5.816   5.394  17.731  0.00  0.00    +0.000 A 
ATOM     30  O   UNL     1       6.398   6.230  18.415  0.00  0.00    +0.000 OA
ENDBRANCH  16  17
ENDBRANCH   2  16
TORSDOF 5
ENDMDL
MODEL 9
REMARK VINA RESULT:      -8.5      8.630     10.801
REMARK  Name = 
REMARK  5 active torsions:
REMARK  status: ('A' for Active; 'I' for Inactive)
REMARK    1  A    between atoms: C_2  and  C_3
REMARK    2  A    between atoms: C_3  and  N_4
REMARK    3  A    between atoms: N_18  and  C_19
REMARK    4  A    between atoms: C_22  and  O_23
REMARK    5  A    between atoms: O_23  and  C_24
REMARK                            x       y       z     vdW  Elec       q    Type
REMARK                         _______ _______ _______ _____ _____    ______ ____
ROOT
ATOM      1  O   UNL     1       0.461   9.509  17.933  0.00  0.00    +0.000 OA
ATOM      2  C   UNL     1       1.120   9.842  18.920  0.00  0.00    +0.000 C 
ATOM      3  N   UNL     1       1.806   8.988  19.767  0.00  0.00    +0.000 N 
ATOM      4  H   UNL     1       2.029   9.344  20.697  0.00  0.00    +0.000 HD
ENDROOT
BRANCH   3   5
ATOM      5  C   UNL     1       1.984   7.600  19.563  0.00  0.00    +0.000 A 
ATOM      6  C   UNL     1       1.656   6.642  20.523  0.00  0.00    +0.000 A 
ATOM      7  C   UNL     1       1.944   5.292  20.305  0.00  0.00    +0.000 A 
ATOM      8  C   UNL     1       2.539   4.864  19.119  0.00  0.00    +0.000 A 
ATOM      9  C   UNL     1       2.835   5.810  18.139  0.00  0.00    +0.000 A 
ATOM     10  C   UNL     1       2.533   7.168  18.351  0.00  0.00    +0.000 A 
BRANCH   8  11
ATOM     11  O   UNL     1       2.833   3.538  19.094  0.00  0.00    +0.000 OA
BRANCH  11  12
ATOM     12  C   UNL     1       1.920   2.599  18.556  0.00  0.00    +0.000 C 
ATOM     13  F   UNL     1       0.743   3.131  18.162  0.00  0.00    +0.000 F 
ATOM     14  F   UNL     1       2.488   1.972  17.502  0.00  0.00    +0.000 F 
ATOM     15  F   UNL     1       1.657   1.673  19.503  0.00  0.00    +0.000 F 
ENDBRANCH  11  12
ENDBRANCH   8  11
ENDBRANCH   3   5
BRANCH   2  16
ATOM     16  C   UNL     1       1.128  11.303  19.357  0.00  0.00    +0.000 C 
BRANCH  16  17
ATOM     17  N   UNL     1      -0.131  11.633  20.002  0.00  0.00    +0.000 N 
ATOM     18  C   UNL     1      -1.190  12.143  19.257  0.00  0.00    +0.000 A 
ATOM     19  N   UNL     1      -2.358  12.516  19.698  0.00  0.00    +0.000 NA
ATOM     20  C   UNL     1      -2.492  12.357  21.084  0.00  0.00    +0.000 A 
ATOM     21  C   UNL     1      -1.505  11.840  21.871  0.00  0.00    +0.000 A 
ATOM     22  O   UNL     1      -1.887  11.808  23.173  0.00  0.00    +0.000 OA
ATOM     23  C   UNL     1      -3.164  12.308  23.197  0.00  0.00    +0.000 A 
ATOM     24  C   UNL     1      -3.949  12.449  24.340  0.00  0.00    +0.000 A 
ATOM     25  C   UNL     1      -5.241  12.955  24.154  0.00  0.00    +0.000 A 
ATOM     26  C   UNL     1      -5.708  13.304  22.883  0.00  0.00    +0.000 A 
ATOM     27  C   UNL     1      -4.891  13.164  21.750  0.00  0.00    +0.000 A 
ATOM     28  C   UNL     1      -3.591  12.655  21.913  0.00  0.00    +0.000 A 
ATOM     29  C   UNL     1      -0.243  11.396  21.375  0.00  0.00    +0.000 A 
ATOM     30  O   UNL     1       0.645  10.852  22.027  0.00  0.00    +0.000 OA
ENDBRANCH  16  17
ENDBRANCH   2  16
TORSDOF 5
ENDMDL
