MODEL 1
REMARK VINA RESULT:      -7.7      0.000      0.000
REMARK  Name = 
REMARK  4 active torsions:
REMARK  status: ('A' for Active; 'I' for Inactive)
REMARK    1  A    between atoms: C_1  and  C_2
REMARK    2  A    between atoms: C_2  and  O_3
REMARK    3  A    between atoms: O_3  and  C_4
REMARK    4  A    between atoms: C_8  and  C_10
REMARK                            x       y       z     vdW  Elec       q    Type
REMARK                         _______ _______ _______ _____ _____    ______ ____
ROOT
ATOM      1  C   UNL     1       6.482   6.694  16.535  0.00  0.00    +0.000 C 
ATOM      2  C   UNL     1       5.500   6.642  17.692  0.00  0.00    +0.000 C 
ATOM      3  C   UNL     1       4.195   6.033  17.249  0.00  0.00    +0.000 C 
ATOM      4  N   UNL     1       4.386   4.656  16.755  0.00  0.00    +0.000 N 
ATOM      5  C   UNL     1       3.783   3.492  17.279  0.00  0.00    +0.000 C 
ATOM      6  O   UNL     1       3.952   2.373  16.783  0.00  0.00    +0.000 OA
ATOM      7  C   UNL     1       5.311   4.591  15.646  0.00  0.00    +0.000 A 
ATOM      8  C   UNL     1       5.236   3.598  14.659  0.00  0.00    +0.000 A 
ATOM      9  C   UNL     1       6.125   3.574  13.578  0.00  0.00    +0.000 A 
ATOM     10  C   UNL     1       7.106   4.549  13.459  0.00  0.00    +0.000 A 
ATOM     11  C   UNL     1       7.199   5.548  14.423  0.00  0.00    +0.000 A 
ATOM     12  C   UNL     1       6.319   5.576  15.523  0.00  0.00    +0.000 A 
ENDROOT
BRANCH   5  13
ATOM     13  C   UNL     1       2.958   3.563  18.593  0.00  0.00    +0.000 C 
ATOM     14  C   UNL     1       1.649   4.379  18.446  0.00  0.00    +0.000 C 
ATOM     15  C   UNL     1       0.942   4.511  19.800  0.00  0.00    +0.000 C 
ATOM     16  C   UNL     1       0.477   3.112  20.225  0.00  0.00    +0.000 C 
ATOM     17  C   UNL     1       1.694   2.180  20.355  0.00  0.00    +0.000 C 
ATOM     18  C   UNL     1       2.607   2.733  21.458  0.00  0.00    +0.000 C 
ATOM     19  C   UNL     1       3.103   4.130  21.066  0.00  0.00    +0.000 C 
ATOM     20  C   UNL     1       1.912   5.081  20.853  0.00  0.00    +0.000 C 
ATOM     21  C   UNL     1       3.880   4.031  19.751  0.00  0.00    +0.000 C 
ATOM     22  C   UNL     1       2.473   2.131  19.019  0.00  0.00    +0.000 C 
ENDBRANCH   5  13
BRANCH   1  23
ATOM     23  O   UNL     1       7.831   6.848  17.004  0.00  0.00    +0.000 OA
BRANCH  23  25
ATOM     24  C   UNL     1       8.195   9.020  17.934  0.00  0.00    +0.000 C 
ATOM     25  C   UNL     1       7.979   7.553  18.238  0.00  0.00    +0.000 C 
ENDBRANCH  23  25
ENDBRANCH   1  23
TORSDOF 3
ENDMDL
MODEL 2
REMARK VINA RESULT:      -7.5      0.085      1.500
REMARK  Name = 
REMARK  4 active torsions:
REMARK  status: ('A' for Active; 'I' for Inactive)
REMARK    1  A    between atoms: C_1  and  C_2
REMARK    2  A    between atoms: C_2  and  O_3
REMARK    3  A    between atoms: O_3  and  C_4
REMARK    4  A    between atoms: C_8  and  C_10
REMARK                            x       y       z     vdW  Elec       q    Type
REMARK                         _______ _______ _______ _____ _____    ______ ____
ROOT
ATOM      1  C   UNL     1       6.485   6.718  16.488  0.00  0.00    +0.000 C 
ATOM      2  C   UNL     1       5.521   6.666  17.660  0.00  0.00    +0.000 C 
ATOM      3  C   UNL     1       4.220   6.028  17.244  0.00  0.00    +0.000 C 
ATOM      4  N   UNL     1       4.429   4.647  16.769  0.00  0.00    +0.000 N 
ATOM      5  C   UNL     1       3.854   3.481  17.318  0.00  0.00    +0.000 C 
ATOM      6  O   UNL     1       4.036   2.358  16.838  0.00  0.00    +0.000 OA
ATOM      7  C   UNL     1       5.340   4.581  15.647  0.00  0.00    +0.000 A 
ATOM      8  C   UNL     1       5.269   3.571  14.677  0.00  0.00    +0.000 A 
ATOM      9  C   UNL     1       6.143   3.546  13.585  0.00  0.00    +0.000 A 
ATOM     10  C   UNL     1       7.105   4.537  13.437  0.00  0.00    +0.000 A 
ATOM     11  C   UNL     1       7.193   5.551  14.384  0.00  0.00    +0.000 A 
ATOM     12  C   UNL     1       6.328   5.581  15.495  0.00  0.00    +0.000 A 
ENDROOT
BRANCH   5  13
ATOM     13  C   UNL     1       3.046   3.558  18.642  0.00  0.00    +0.000 C 
ATOM     14  C   UNL     1       3.825   4.245  19.792  0.00  0.00    +0.000 C 
ATOM     15  C   UNL     1       3.023   4.183  21.097  0.00  0.00    +0.000 C 
ATOM     16  C   UNL     1       1.766   5.044  20.917  0.00  0.00    +0.000 C 
ATOM     17  C   UNL     1       0.923   4.491  19.756  0.00  0.00    +0.000 C 
ATOM     18  C   UNL     1       0.477   3.068  20.120  0.00  0.00    +0.000 C 
ATOM     19  C   UNL     1       1.708   2.171  20.300  0.00  0.00    +0.000 C 
ATOM     20  C   UNL     1       2.620   2.729  21.407  0.00  0.00    +0.000 C 
ATOM     21  C   UNL     1       2.500   2.146  18.991  0.00  0.00    +0.000 C 
ATOM     22  C   UNL     1       1.765   4.449  18.459  0.00  0.00    +0.000 C 
ENDBRANCH   5  13
BRANCH   1  23
ATOM     23  O   UNL     1       7.838   6.902  16.935  0.00  0.00    +0.000 OA
BRANCH  23  25
ATOM     24  C   UNL     1       8.227   9.030  17.954  0.00  0.00    +0.000 C 
ATOM     25  C   UNL     1       7.986   7.555  18.198  0.00  0.00    +0.000 C 
ENDBRANCH  23  25
ENDBRANCH   1  23
TORSDOF 3
ENDMDL
MODEL 3
REMARK VINA RESULT:      -7.5      0.080      1.502
REMARK  Name = 
REMARK  4 active torsions:
REMARK  status: ('A' for Active; 'I' for Inactive)
REMARK    1  A    between atoms: C_1  and  C_2
REMARK    2  A    between atoms: C_2  and  O_3
REMARK    3  A    between atoms: O_3  and  C_4
REMARK    4  A    between atoms: C_8  and  C_10
REMARK                            x       y       z     vdW  Elec       q    Type
REMARK                         _______ _______ _______ _____ _____    ______ ____
ROOT
ATOM      1  C   UNL     1       6.475   6.663  16.551  0.00  0.00    +0.000 C 
ATOM      2  C   UNL     1       5.505   6.592  17.717  0.00  0.00    +0.000 C 
ATOM      3  C   UNL     1       4.199   5.981  17.278  0.00  0.00    +0.000 C 
ATOM      4  N   UNL     1       4.392   4.611  16.766  0.00  0.00    +0.000 N 
ATOM      5  C   UNL     1       3.800   3.438  17.280  0.00  0.00    +0.000 C 
ATOM      6  O   UNL     1       3.970   2.326  16.770  0.00  0.00    +0.000 OA
ATOM      7  C   UNL     1       5.308   4.565  15.647  0.00  0.00    +0.000 A 
ATOM      8  C   UNL     1       5.229   3.583  14.649  0.00  0.00    +0.000 A 
ATOM      9  C   UNL     1       6.109   3.577  13.561  0.00  0.00    +0.000 A 
ATOM     10  C   UNL     1       7.083   4.559  13.445  0.00  0.00    +0.000 A 
ATOM     11  C   UNL     1       7.180   5.546  14.419  0.00  0.00    +0.000 A 
ATOM     12  C   UNL     1       6.309   5.557  15.527  0.00  0.00    +0.000 A 
ENDROOT
BRANCH   5  13
ATOM     13  C   UNL     1       2.987   3.489  18.602  0.00  0.00    +0.000 C 
ATOM     14  C   UNL     1       2.546   2.089  19.099  0.00  0.00    +0.000 C 
ATOM     15  C   UNL     1       1.650   2.215  20.337  0.00  0.00    +0.000 C 
ATOM     16  C   UNL     1       2.506   2.776  21.480  0.00  0.00    +0.000 C 
ATOM     17  C   UNL     1       3.054   4.158  21.085  0.00  0.00    +0.000 C 
ATOM     18  C   UNL     1       1.864   5.104  20.872  0.00  0.00    +0.000 C 
ATOM     19  C   UNL     1       0.987   4.582  19.728  0.00  0.00    +0.000 C 
ATOM     20  C   UNL     1       0.474   3.167  20.049  0.00  0.00    +0.000 C 
ATOM     21  C   UNL     1       1.827   4.511  18.451  0.00  0.00    +0.000 C 
ATOM     22  C   UNL     1       3.868   4.053  19.774  0.00  0.00    +0.000 C 
ENDBRANCH   5  13
BRANCH   1  23
ATOM     23  O   UNL     1       7.828   6.818  17.010  0.00  0.00    +0.000 OA
BRANCH  23  25
ATOM     24  C   UNL     1       8.168   9.007  17.911  0.00  0.00    +0.000 C 
ATOM     25  C   UNL     1       7.986   7.539  18.234  0.00  0.00    +0.000 C 
ENDBRANCH  23  25
ENDBRANCH   1  23
TORSDOF 3
ENDMDL
MODEL 4
REMARK VINA RESULT:      -7.5      4.199      6.917
REMARK  Name = 
REMARK  4 active torsions:
REMARK  status: ('A' for Active; 'I' for Inactive)
REMARK    1  A    between atoms: C_1  and  C_2
REMARK    2  A    between atoms: C_2  and  O_3
REMARK    3  A    between atoms: O_3  and  C_4
REMARK    4  A    between atoms: C_8  and  C_10
REMARK                            x       y       z     vdW  Elec       q    Type
REMARK                         _______ _______ _______ _____ _____    ______ ____
ROOT
ATOM      1  C   UNL     1       0.911   9.831  18.251  0.00  0.00    +0.000 C 
ATOM      2  C   UNL     1       1.653   8.666  17.621  0.00  0.00    +0.000 C 
ATOM      3  C   UNL     1       2.642   8.082  18.596  0.00  0.00    +0.000 C 
ATOM      4  N   UNL     1       1.967   7.584  19.810  0.00  0.00    +0.000 N 
ATOM      5  C   UNL     1       1.987   6.257  20.289  0.00  0.00    +0.000 C 
ATOM      6  O   UNL     1       1.436   5.920  21.343  0.00  0.00    +0.000 OA
ATOM      7  C   UNL     1       1.223   8.620  20.491  0.00  0.00    +0.000 A 
ATOM      8  C   UNL     1       0.999   8.601  21.876  0.00  0.00    +0.000 A 
ATOM      9  C   UNL     1       0.301   9.631  22.516  0.00  0.00    +0.000 A 
ATOM     10  C   UNL     1      -0.183  10.707  21.785  0.00  0.00    +0.000 A 
ATOM     11  C   UNL     1       0.029  10.752  20.411  0.00  0.00    +0.000 A 
ATOM     12  C   UNL     1       0.719   9.715  19.751  0.00  0.00    +0.000 A 
ENDROOT
BRANCH   5  13
ATOM     13  C   UNL     1       2.620   5.126  19.433  0.00  0.00    +0.000 C 
ATOM     14  C   UNL     1       4.158   5.252  19.300  0.00  0.00    +0.000 C 
ATOM     15  C   UNL     1       4.706   4.180  18.350  0.00  0.00    +0.000 C 
ATOM     16  C   UNL     1       4.488   2.813  19.011  0.00  0.00    +0.000 C 
ATOM     17  C   UNL     1       2.986   2.587  19.249  0.00  0.00    +0.000 C 
ATOM     18  C   UNL     1       2.280   2.574  17.886  0.00  0.00    +0.000 C 
ATOM     19  C   UNL     1       2.466   3.931  17.196  0.00  0.00    +0.000 C 
ATOM     20  C   UNL     1       3.962   4.233  17.002  0.00  0.00    +0.000 C 
ATOM     21  C   UNL     1       1.864   5.025  18.080  0.00  0.00    +0.000 C 
ATOM     22  C   UNL     1       2.406   3.728  20.117  0.00  0.00    +0.000 C 
ENDBRANCH   5  13
BRANCH   1  23
ATOM     23  O   UNL     1      -0.305  10.119  17.541  0.00  0.00    +0.000 OA
BRANCH  23  25
ATOM     24  C   UNL     1      -2.670   9.951  17.234  0.00  0.00    +0.000 C 
ATOM     25  C   UNL     1      -1.501   9.612  18.135  0.00  0.00    +0.000 C 
ENDBRANCH  23  25
ENDBRANCH   1  23
TORSDOF 3
ENDMDL
MODEL 5
REMARK VINA RESULT:      -7.5      4.182      6.873
REMARK  Name = 
REMARK  4 active torsions:
REMARK  status: ('A' for Active; 'I' for Inactive)
REMARK    1  A    between atoms: C_1  and  C_2
REMARK    2  A    between atoms: C_2  and  O_3
REMARK    3  A    between atoms: O_3  and  C_4
REMARK    4  A    between atoms: C_8  and  C_10
REMARK                            x       y       z     vdW  Elec       q    Type
REMARK                         _______ _______ _______ _____ _____    ______ ____
ROOT
ATOM      1  C   UNL     1       0.972   9.865  18.310  0.00  0.00    +0.000 C 
ATOM      2  C   UNL     1       1.668   8.684  17.655  0.00  0.00    +0.000 C 
ATOM      3  C   UNL     1       2.636   8.044  18.617  0.00  0.00    +0.000 C 
ATOM      4  N   UNL     1       1.944   7.550  19.823  0.00  0.00    +0.000 N 
ATOM      5  C   UNL     1       1.915   6.215  20.278  0.00  0.00    +0.000 C 
ATOM      6  O   UNL     1       1.354   5.879  21.326  0.00  0.00    +0.000 OA
ATOM      7  C   UNL     1       1.242   8.601  20.526  0.00  0.00    +0.000 A 
ATOM      8  C   UNL     1       1.019   8.564  21.910  0.00  0.00    +0.000 A 
ATOM      9  C   UNL     1       0.362   9.608  22.572  0.00  0.00    +0.000 A 
ATOM     10  C   UNL     1      -0.082  10.715  21.861  0.00  0.00    +0.000 A 
ATOM     11  C   UNL     1       0.130  10.777  20.488  0.00  0.00    +0.000 A 
ATOM     12  C   UNL     1       0.778   9.728  19.808  0.00  0.00    +0.000 A 
ENDROOT
BRANCH   5  13
ATOM     13  C   UNL     1       2.503   5.077  19.399  0.00  0.00    +0.000 C 
ATOM     14  C   UNL     1       1.937   5.067  17.957  0.00  0.00    +0.000 C 
ATOM     15  C   UNL     1       2.464   3.855  17.180  0.00  0.00    +0.000 C 
ATOM     16  C   UNL     1       3.976   4.037  16.998  0.00  0.00    +0.000 C 
ATOM     17  C   UNL     1       4.657   4.115  18.374  0.00  0.00    +0.000 C 
ATOM     18  C   UNL     1       4.422   2.785  19.104  0.00  0.00    +0.000 C 
ATOM     19  C   UNL     1       2.919   2.571  19.315  0.00  0.00    +0.000 C 
ATOM     20  C   UNL     1       2.184   2.558  17.963  0.00  0.00    +0.000 C 
ATOM     21  C   UNL     1       2.365   3.725  20.152  0.00  0.00    +0.000 C 
ATOM     22  C   UNL     1       4.049   5.271  19.204  0.00  0.00    +0.000 C 
ENDBRANCH   5  13
BRANCH   1  23
ATOM     23  O   UNL     1      -0.233  10.212  17.607  0.00  0.00    +0.000 OA
BRANCH  23  25
ATOM     24  C   UNL     1      -2.565   9.942  17.148  0.00  0.00    +0.000 C 
ATOM     25  C   UNL     1      -1.424   9.572  18.072  0.00  0.00    +0.000 C 
ENDBRANCH  23  25
ENDBRANCH   1  23
TORSDOF 3
ENDMDL
MODEL 6
REMARK VINA RESULT:      -7.3      4.106      6.772
REMARK  Name = 
REMARK  4 active torsions:
REMARK  status: ('A' for Active; 'I' for Inactive)
REMARK    1  A    between atoms: C_1  and  C_2
REMARK    2  A    between atoms: C_2  and  O_3
REMARK    3  A    between atoms: O_3  and  C_4
REMARK    4  A    between atoms: C_8  and  C_10
REMARK                            x       y       z     vdW  Elec       q    Type
REMARK                         _______ _______ _______ _____ _____    ______ ____
ROOT
ATOM      1  C   UNL     1       1.136   9.754  18.234  0.00  0.00    +0.000 C 
ATOM      2  C   UNL     1       1.827   8.553  17.613  0.00  0.00    +0.000 C 
ATOM      3  C   UNL     1       2.761   7.911  18.607  0.00  0.00    +0.000 C 
ATOM      4  N   UNL     1       2.033   7.445  19.803  0.00  0.00    +0.000 N 
ATOM      5  C   UNL     1       1.970   6.117  20.275  0.00  0.00    +0.000 C 
ATOM      6  O   UNL     1       1.379   5.805  21.314  0.00  0.00    +0.000 OA
ATOM      7  C   UNL     1       1.331   8.517  20.474  0.00  0.00    +0.000 A 
ATOM      8  C   UNL     1       1.076   8.504  21.853  0.00  0.00    +0.000 A 
ATOM      9  C   UNL     1       0.421   9.567  22.484  0.00  0.00    +0.000 A 
ATOM     10  C   UNL     1       0.013  10.671  21.748  0.00  0.00    +0.000 A 
ATOM     11  C   UNL     1       0.258  10.711  20.380  0.00  0.00    +0.000 A 
ATOM     12  C   UNL     1       0.905   9.641  19.729  0.00  0.00    +0.000 A 
ENDROOT
BRANCH   5  13
ATOM     13  C   UNL     1       2.559   4.957  19.426  0.00  0.00    +0.000 C 
ATOM     14  C   UNL     1       2.238   3.556  20.004  0.00  0.00    +0.000 C 
ATOM     15  C   UNL     1       2.943   2.464  19.192  0.00  0.00    +0.000 C 
ATOM     16  C   UNL     1       2.326   2.450  17.787  0.00  0.00    +0.000 C 
ATOM     17  C   UNL     1       2.533   3.820  17.119  0.00  0.00    +0.000 C 
ATOM     18  C   UNL     1       4.043   4.060  16.973  0.00  0.00    +0.000 C 
ATOM     19  C   UNL     1       4.697   4.090  18.359  0.00  0.00    +0.000 C 
ATOM     20  C   UNL     1       4.452   2.762  19.096  0.00  0.00    +0.000 C 
ATOM     21  C   UNL     1       4.070   5.219  19.180  0.00  0.00    +0.000 C 
ATOM     22  C   UNL     1       1.917   4.938  17.993  0.00  0.00    +0.000 C 
ENDBRANCH   5  13
BRANCH   1  23
ATOM     23  O   UNL     1      -0.046  10.111  17.499  0.00  0.00    +0.000 OA
BRANCH  23  25
ATOM     24  C   UNL     1      -2.393   9.958  17.064  0.00  0.00    +0.000 C 
ATOM     25  C   UNL     1      -1.274   9.597  18.019  0.00  0.00    +0.000 C 
ENDBRANCH  23  25
ENDBRANCH   1  23
TORSDOF 3
ENDMDL
MODEL 7
REMARK VINA RESULT:      -7.1      4.470      6.823
REMARK  Name = 
REMARK  4 active torsions:
REMARK  status: ('A' for Active; 'I' for Inactive)
REMARK    1  A    between atoms: C_1  and  C_2
REMARK    2  A    between atoms: C_2  and  O_3
REMARK    3  A    between atoms: O_3  and  C_4
REMARK    4  A    between atoms: C_8  and  C_10
REMARK                            x       y       z     vdW  Elec       q    Type
REMARK                         _______ _______ _______ _____ _____    ______ ____
ROOT
ATOM      1  C   UNL     1       2.016   4.842  19.842  0.00  0.00    +0.000 C 
ATOM      2  C   UNL     1       1.280   6.045  20.405  0.00  0.00    +0.000 C 
ATOM      3  C   UNL     1       2.135   7.281  20.302  0.00  0.00    +0.000 C 
ATOM      4  N   UNL     1       2.481   7.578  18.900  0.00  0.00    +0.000 N 
ATOM      5  C   UNL     1       2.165   8.760  18.196  0.00  0.00    +0.000 C 
ATOM      6  O   UNL     1       2.530   8.962  17.033  0.00  0.00    +0.000 OA
ATOM      7  C   UNL     1       3.188   6.489  18.263  0.00  0.00    +0.000 A 
ATOM      8  C   UNL     1       4.103   6.692  17.219  0.00  0.00    +0.000 A 
ATOM      9  C   UNL     1       4.796   5.624  16.639  0.00  0.00    +0.000 A 
ATOM     10  C   UNL     1       4.594   4.329  17.097  0.00  0.00    +0.000 A 
ATOM     11  C   UNL     1       3.695   4.102  18.133  0.00  0.00    +0.000 A 
ATOM     12  C   UNL     1       2.980   5.166  18.717  0.00  0.00    +0.000 A 
ENDROOT
BRANCH   5  13
ATOM     13  C   UNL     1       1.232   9.825  18.836  0.00  0.00    +0.000 C 
ATOM     14  C   UNL     1       1.160   9.721  20.380  0.00  0.00    +0.000 C 
ATOM     15  C   UNL     1       0.136  10.717  20.939  0.00  0.00    +0.000 C 
ATOM     16  C   UNL     1       0.665  12.132  20.673  0.00  0.00    +0.000 C 
ATOM     17  C   UNL     1       0.833  12.345  19.160  0.00  0.00    +0.000 C 
ATOM     18  C   UNL     1      -0.547  12.221  18.499  0.00  0.00    +0.000 C 
ATOM     19  C   UNL     1      -1.107  10.813  18.734  0.00  0.00    +0.000 C 
ATOM     20  C   UNL     1      -1.225  10.528  20.242  0.00  0.00    +0.000 C 
ATOM     21  C   UNL     1      -0.148   9.789  18.124  0.00  0.00    +0.000 C 
ATOM     22  C   UNL     1       1.782  11.273  18.573  0.00  0.00    +0.000 C 
ENDBRANCH   5  13
BRANCH   1  23
ATOM     23  O   UNL     1       1.104   3.777  19.523  0.00  0.00    +0.000 OA
BRANCH  23  25
ATOM     24  C   UNL     1       2.019   2.891  21.548  0.00  0.00    +0.000 C 
ATOM     25  C   UNL     1       1.287   2.568  20.262  0.00  0.00    +0.000 C 
ENDBRANCH  23  25
ENDBRANCH   1  23
TORSDOF 3
ENDMDL
MODEL 8
REMARK VINA RESULT:      -7.0      4.681      6.896
REMARK  Name = 
REMARK  4 active torsions:
REMARK  status: ('A' for Active; 'I' for Inactive)
REMARK    1  A    between atoms: C_1  and  C_2
REMARK    2  A    between atoms: C_2  and  O_3
REMARK    3  A    between atoms: O_3  and  C_4
REMARK    4  A    between atoms: C_8  and  C_10
REMARK                            x       y       z     vdW  Elec       q    Type
REMARK                         _______ _______ _______ _____ _____    ______ ____
ROOT
ATOM      1  C   UNL     1       1.865   5.137  20.091  0.00  0.00    +0.000 C 
ATOM      2  C   UNL     1       1.139   6.363  20.617  0.00  0.00    +0.000 C 
ATOM      3  C   UNL     1       1.993   7.593  20.452  0.00  0.00    +0.000 C 
ATOM      4  N   UNL     1       2.317   7.834  19.033  0.00  0.00    +0.000 N 
ATOM      5  C   UNL     1       1.991   8.988  18.289  0.00  0.00    +0.000 C 
ATOM      6  O   UNL     1       2.337   9.143  17.113  0.00  0.00    +0.000 OA
ATOM      7  C   UNL     1       3.013   6.720  18.429  0.00  0.00    +0.000 A 
ATOM      8  C   UNL     1       3.911   6.880  17.363  0.00  0.00    +0.000 A 
ATOM      9  C   UNL     1       4.594   5.789  16.815  0.00  0.00    +0.000 A 
ATOM     10  C   UNL     1       4.398   4.513  17.327  0.00  0.00    +0.000 A 
ATOM     11  C   UNL     1       3.516   4.328  18.385  0.00  0.00    +0.000 A 
ATOM     12  C   UNL     1       2.812   5.416  18.939  0.00  0.00    +0.000 A 
ENDROOT
BRANCH   5  13
ATOM     13  C   UNL     1       1.069  10.078  18.901  0.00  0.00    +0.000 C 
ATOM     14  C   UNL     1      -0.422   9.898  18.519  0.00  0.00    +0.000 C 
ATOM     15  C   UNL     1      -1.259  11.066  19.053  0.00  0.00    +0.000 C 
ATOM     16  C   UNL     1      -1.243  10.993  20.585  0.00  0.00    +0.000 C 
ATOM     17  C   UNL     1       0.204  11.108  21.094  0.00  0.00    +0.000 C 
ATOM     18  C   UNL     1       0.753  12.479  20.677  0.00  0.00    +0.000 C 
ATOM     19  C   UNL     1       0.763  12.589  19.148  0.00  0.00    +0.000 C 
ATOM     20  C   UNL     1      -0.659  12.407  18.588  0.00  0.00    +0.000 C 
ATOM     21  C   UNL     1       1.650  11.481  18.576  0.00  0.00    +0.000 C 
ATOM     22  C   UNL     1       1.077   9.993  20.469  0.00  0.00    +0.000 C 
ENDBRANCH   5  13
BRANCH   1  23
ATOM     23  O   UNL     1       0.948   4.062  19.829  0.00  0.00    +0.000 OA
BRANCH  23  25
ATOM     24  C   UNL     1       2.126   3.205  21.726  0.00  0.00    +0.000 C 
ATOM     25  C   UNL     1       1.117   2.897  20.639  0.00  0.00    +0.000 C 
ENDBRANCH  23  25
ENDBRANCH   1  23
TORSDOF 3
ENDMDL
MODEL 9
REMARK VINA RESULT:      -6.9      4.423      6.647
REMARK  Name = 
REMARK  4 active torsions:
REMARK  status: ('A' for Active; 'I' for Inactive)
REMARK    1  A    between atoms: C_1  and  C_2
REMARK    2  A    between atoms: C_2  and  O_3
REMARK    3  A    between atoms: O_3  and  C_4
REMARK    4  A    between atoms: C_8  and  C_10
REMARK                            x       y       z     vdW  Elec       q    Type
REMARK                         _______ _______ _______ _____ _____    ______ ____
ROOT
ATOM      1  C   UNL     1       2.070   4.866  19.917  0.00  0.00    +0.000 C 
ATOM      2  C   UNL     1       1.348   6.090  20.453  0.00  0.00    +0.000 C 
ATOM      3  C   UNL     1       2.205   7.320  20.292  0.00  0.00    +0.000 C 
ATOM      4  N   UNL     1       2.524   7.568  18.873  0.00  0.00    +0.000 N 
ATOM      5  C   UNL     1       2.197   8.727  18.136  0.00  0.00    +0.000 C 
ATOM      6  O   UNL     1       2.539   8.888  16.960  0.00  0.00    +0.000 OA
ATOM      7  C   UNL     1       3.216   6.456  18.260  0.00  0.00    +0.000 A 
ATOM      8  C   UNL     1       4.110   6.620  17.192  0.00  0.00    +0.000 A 
ATOM      9  C   UNL     1       4.789   5.531  16.636  0.00  0.00    +0.000 A 
ATOM     10  C   UNL     1       4.593   4.253  17.141  0.00  0.00    +0.000 A 
ATOM     11  C   UNL     1       3.714   4.064  18.202  0.00  0.00    +0.000 A 
ATOM     12  C   UNL     1       3.013   5.149  18.764  0.00  0.00    +0.000 A 
ENDROOT
BRANCH   5  13
ATOM     13  C   UNL     1       1.280   9.815  18.757  0.00  0.00    +0.000 C 
ATOM     14  C   UNL     1       1.774  11.257  18.481  0.00  0.00    +0.000 C 
ATOM     15  C   UNL     1       0.896  12.277  19.217  0.00  0.00    +0.000 C 
ATOM     16  C   UNL     1      -0.506  12.225  18.594  0.00  0.00    +0.000 C 
ATOM     17  C   UNL     1      -1.092  10.812  18.757  0.00  0.00    +0.000 C 
ATOM     18  C   UNL     1      -1.226  10.517  20.258  0.00  0.00    +0.000 C 
ATOM     19  C   UNL     1       0.158  10.550  20.916  0.00  0.00    +0.000 C 
ATOM     20  C   UNL     1       0.815  11.927  20.715  0.00  0.00    +0.000 C 
ATOM     21  C   UNL     1       1.047   9.492  20.259  0.00  0.00    +0.000 C 
ATOM     22  C   UNL     1      -0.151   9.768  18.110  0.00  0.00    +0.000 C 
ENDBRANCH   5  13
BRANCH   1  23
ATOM     23  O   UNL     1       1.150   3.794  19.653  0.00  0.00    +0.000 OA
BRANCH  23  25
ATOM     24  C   UNL     1       2.357   2.853  21.490  0.00  0.00    +0.000 C 
ATOM     25  C   UNL     1       1.108   2.761  20.639  0.00  0.00    +0.000 C 
ENDBRANCH  23  25
ENDBRANCH   1  23
TORSDOF 3
ENDMDL
