MODEL 1
REMARK VINA RESULT:      -7.5      0.000      0.000
REMARK  Name = 
REMARK  5 active torsions:
REMARK  status: ('A' for Active; 'I' for Inactive)
REMARK    1  A    between atoms: C_1  and  C_2
REMARK    2  A    between atoms: C_7  and  C_8
REMARK    3  A    between atoms: C_12  and  S_13
REMARK    4  A    between atoms: S_13  and  N_16
REMARK    5  A    between atoms: N_16  and  C_17
REMARK                            x       y       z     vdW  Elec       q    Type
REMARK                         _______ _______ _______ _____ _____    ______ ____
ROOT
ATOM      1  C   UNL     1       3.719   7.654  17.269  0.00  0.00    +0.000 C 
ATOM      2  C   UNL     1       3.897   6.346  17.997  0.00  0.00    +0.000 A 
ATOM      3  N   UNL     1       2.702   5.880  18.513  0.00  0.00    +0.000 NA
ATOM      4  C   UNL     1       2.744   4.784  19.182  0.00  0.00    +0.000 A 
ATOM      5  S   UNL     1       1.335   4.048  19.919  0.00  0.00    +0.000 S 
ATOM      6  C   UNL     1       2.302   2.727  20.492  0.00  0.00    +0.000 A 
ATOM      7  C   UNL     1       3.595   2.854  20.146  0.00  0.00    +0.000 A 
ATOM      8  C   UNL     1       4.649   1.865  20.513  0.00  0.00    +0.000 C 
ATOM      9  N   UNL     1       3.859   4.014  19.416  0.00  0.00    +0.000 N 
ATOM     10  C   UNL     1       5.070   4.387  18.860  0.00  0.00    +0.000 A 
ATOM     11  O   UNL     1       6.078   3.681  18.852  0.00  0.00    +0.000 OA
ATOM     12  C   UNL     1       5.065   5.688  18.143  0.00  0.00    +0.000 A 
ENDROOT
BRANCH  12  13
ATOM     13  S   UNL     1       6.588   6.263  17.538  0.00  0.00    +0.000 S 
ATOM     14  O   UNL     1       6.410   7.298  16.539  0.00  0.00    +0.000 OA
ATOM     15  O   UNL     1       7.439   6.550  18.676  0.00  0.00    +0.000 OA
BRANCH  13  16
ATOM     16  N   UNL     1       7.341   4.948  16.736  0.00  0.00    +0.000 N 
ATOM     17  H   UNL     1       7.419   4.158  17.383  0.00  0.00    +0.000 HD
BRANCH  16  18
ATOM     18  C   UNL     1       6.862   4.647  15.427  0.00  0.00    +0.000 A 
ATOM     19  C   UNL     1       5.660   3.950  15.277  0.00  0.00    +0.000 A 
ATOM     20  C   UNL     1       5.218   3.585  14.003  0.00  0.00    +0.000 A 
ATOM     21  C   UNL     1       5.996   3.898  12.894  0.00  0.00    +0.000 A 
ATOM     22  F   UNL     1       5.585   3.530  11.673  0.00  0.00    +0.000 F 
ATOM     23  C   UNL     1       7.197   4.584  13.033  0.00  0.00    +0.000 A 
ATOM     24  C   UNL     1       7.629   4.969  14.306  0.00  0.00    +0.000 A 
ENDBRANCH  16  18
ENDBRANCH  13  16
ENDBRANCH  12  13
TORSDOF 3
ENDMDL
MODEL 2
REMARK VINA RESULT:      -7.4      0.915      1.034
REMARK  Name = 
REMARK  5 active torsions:
REMARK  status: ('A' for Active; 'I' for Inactive)
REMARK    1  A    between atoms: C_1  and  C_2
REMARK    2  A    between atoms: C_7  and  C_8
REMARK    3  A    between atoms: C_12  and  S_13
REMARK    4  A    between atoms: S_13  and  N_16
REMARK    5  A    between atoms: N_16  and  C_17
REMARK                            x       y       z     vdW  Elec       q    Type
REMARK                         _______ _______ _______ _____ _____    ______ ____
ROOT
ATOM      1  C   UNL     1       2.948   7.991  17.688  0.00  0.00    +0.000 C 
ATOM      2  C   UNL     1       3.280   6.606  18.181  0.00  0.00    +0.000 A 
ATOM      3  N   UNL     1       2.345   6.147  19.090  0.00  0.00    +0.000 NA
ATOM      4  C   UNL     1       2.549   4.986  19.600  0.00  0.00    +0.000 A 
ATOM      5  S   UNL     1       1.480   4.246  20.775  0.00  0.00    +0.000 S 
ATOM      6  C   UNL     1       2.475   2.826  20.814  0.00  0.00    +0.000 A 
ATOM      7  C   UNL     1       3.537   2.925  19.996  0.00  0.00    +0.000 A 
ATOM      8  C   UNL     1       4.561   1.853  19.837  0.00  0.00    +0.000 C 
ATOM      9  N   UNL     1       3.596   4.142  19.313  0.00  0.00    +0.000 N 
ATOM     10  C   UNL     1       4.522   4.511  18.354  0.00  0.00    +0.000 A 
ATOM     11  O   UNL     1       5.383   3.762  17.894  0.00  0.00    +0.000 OA
ATOM     12  C   UNL     1       4.352   5.880  17.802  0.00  0.00    +0.000 A 
ENDROOT
BRANCH  12  13
ATOM     13  S   UNL     1       5.562   6.440  16.691  0.00  0.00    +0.000 S 
ATOM     14  O   UNL     1       4.975   6.909  15.451  0.00  0.00    +0.000 OA
ATOM     15  O   UNL     1       6.447   7.337  17.410  0.00  0.00    +0.000 OA
BRANCH  13  16
ATOM     16  N   UNL     1       6.534   5.090  16.279  0.00  0.00    +0.000 N 
ATOM     17  H   UNL     1       6.283   4.298  16.877  0.00  0.00    +0.000 HD
BRANCH  16  18
ATOM     18  C   UNL     1       6.671   4.810  14.887  0.00  0.00    +0.000 A 
ATOM     19  C   UNL     1       5.844   3.853  14.292  0.00  0.00    +0.000 A 
ATOM     20  C   UNL     1       6.019   3.517  12.947  0.00  0.00    +0.000 A 
ATOM     21  C   UNL     1       7.035   4.123  12.218  0.00  0.00    +0.000 A 
ATOM     22  F   UNL     1       7.218   3.787  10.934  0.00  0.00    +0.000 F 
ATOM     23  C   UNL     1       7.868   5.070  12.802  0.00  0.00    +0.000 A 
ATOM     24  C   UNL     1       7.680   5.423  14.142  0.00  0.00    +0.000 A 
ENDBRANCH  16  18
ENDBRANCH  13  16
ENDBRANCH  12  13
TORSDOF 3
ENDMDL
MODEL 3
REMARK VINA RESULT:      -7.4      1.233      1.653
REMARK  Name = 
REMARK  5 active torsions:
REMARK  status: ('A' for Active; 'I' for Inactive)
REMARK    1  A    between atoms: C_1  and  C_2
REMARK    2  A    between atoms: C_7  and  C_8
REMARK    3  A    between atoms: C_12  and  S_13
REMARK    4  A    between atoms: S_13  and  N_16
REMARK    5  A    between atoms: N_16  and  C_17
REMARK                            x       y       z     vdW  Elec       q    Type
REMARK                         _______ _______ _______ _____ _____    ______ ____
ROOT
ATOM      1  C   UNL     1       3.124   7.963  17.900  0.00  0.00    +0.000 C 
ATOM      2  C   UNL     1       3.215   6.470  18.080  0.00  0.00    +0.000 A 
ATOM      3  N   UNL     1       2.200   5.987  18.885  0.00  0.00    +0.000 NA
ATOM      4  C   UNL     1       2.200   4.726  19.131  0.00  0.00    +0.000 A 
ATOM      5  S   UNL     1       1.002   3.939  20.139  0.00  0.00    +0.000 S 
ATOM      6  C   UNL     1       1.749   2.400  19.856  0.00  0.00    +0.000 A 
ATOM      7  C   UNL     1       2.828   2.495  19.060  0.00  0.00    +0.000 A 
ATOM      8  C   UNL     1       3.664   1.328  18.658  0.00  0.00    +0.000 C 
ATOM      9  N   UNL     1       3.099   3.803  18.653  0.00  0.00    +0.000 N 
ATOM     10  C   UNL     1       4.091   4.211  17.779  0.00  0.00    +0.000 A 
ATOM     11  O   UNL     1       4.825   3.446  17.154  0.00  0.00    +0.000 OA
ATOM     12  C   UNL     1       4.159   5.675  17.536  0.00  0.00    +0.000 A 
ENDROOT
BRANCH  12  13
ATOM     13  S   UNL     1       5.466   6.252  16.549  0.00  0.00    +0.000 S 
ATOM     14  O   UNL     1       4.990   6.774  15.282  0.00  0.00    +0.000 OA
ATOM     15  O   UNL     1       6.299   7.108  17.371  0.00  0.00    +0.000 OA
BRANCH  13  16
ATOM     16  N   UNL     1       6.449   4.900  16.171  0.00  0.00    +0.000 N 
ATOM     17  H   UNL     1       6.116   4.084  16.690  0.00  0.00    +0.000 HD
BRANCH  16  18
ATOM     18  C   UNL     1       6.737   4.693  14.789  0.00  0.00    +0.000 A 
ATOM     19  C   UNL     1       7.732   5.456  14.172  0.00  0.00    +0.000 A 
ATOM     20  C   UNL     1       7.972   5.315  12.802  0.00  0.00    +0.000 A 
ATOM     21  C   UNL     1       7.197   4.431  12.060  0.00  0.00    +0.000 A 
ATOM     22  F   UNL     1       7.411   4.310  10.743  0.00  0.00    +0.000 F 
ATOM     23  C   UNL     1       6.200   3.674  12.664  0.00  0.00    +0.000 A 
ATOM     24  C   UNL     1       5.974   3.798  14.037  0.00  0.00    +0.000 A 
ENDBRANCH  16  18
ENDBRANCH  13  16
ENDBRANCH  12  13
TORSDOF 3
ENDMDL
MODEL 4
REMARK VINA RESULT:      -7.3      0.106      1.013
REMARK  Name = 
REMARK  5 active torsions:
REMARK  status: ('A' for Active; 'I' for Inactive)
REMARK    1  A    between atoms: C_1  and  C_2
REMARK    2  A    between atoms: C_7  and  C_8
REMARK    3  A    between atoms: C_12  and  S_13
REMARK    4  A    between atoms: S_13  and  N_16
REMARK    5  A    between atoms: N_16  and  C_17
REMARK                            x       y       z     vdW  Elec       q    Type
REMARK                         _______ _______ _______ _____ _____    ______ ____
ROOT
ATOM      1  C   UNL     1       3.754   7.640  17.131  0.00  0.00    +0.000 C 
ATOM      2  C   UNL     1       3.917   6.352  17.896  0.00  0.00    +0.000 A 
ATOM      3  N   UNL     1       2.711   5.895  18.395  0.00  0.00    +0.000 NA
ATOM      4  C   UNL     1       2.740   4.817  19.093  0.00  0.00    +0.000 A 
ATOM      5  S   UNL     1       1.314   4.096  19.814  0.00  0.00    +0.000 S 
ATOM      6  C   UNL     1       2.271   2.794  20.445  0.00  0.00    +0.000 A 
ATOM      7  C   UNL     1       3.571   2.916  20.129  0.00  0.00    +0.000 A 
ATOM      8  C   UNL     1       4.620   1.942  20.548  0.00  0.00    +0.000 C 
ATOM      9  N   UNL     1       3.851   4.058  19.375  0.00  0.00    +0.000 N 
ATOM     10  C   UNL     1       5.074   4.420  18.840  0.00  0.00    +0.000 A 
ATOM     11  O   UNL     1       6.084   3.718  18.876  0.00  0.00    +0.000 OA
ATOM     12  C   UNL     1       5.084   5.703  18.090  0.00  0.00    +0.000 A 
ENDROOT
BRANCH  12  13
ATOM     13  S   UNL     1       6.619   6.266  17.507  0.00  0.00    +0.000 S 
ATOM     14  O   UNL     1       6.464   7.260  16.463  0.00  0.00    +0.000 OA
ATOM     15  O   UNL     1       7.434   6.606  18.659  0.00  0.00    +0.000 OA
BRANCH  13  16
ATOM     16  N   UNL     1       7.407   4.928  16.782  0.00  0.00    +0.000 N 
ATOM     17  H   UNL     1       7.507   4.180  17.473  0.00  0.00    +0.000 HD
BRANCH  16  18
ATOM     18  C   UNL     1       6.934   4.538  15.494  0.00  0.00    +0.000 A 
ATOM     19  C   UNL     1       7.618   4.963  14.351  0.00  0.00    +0.000 A 
ATOM     20  C   UNL     1       7.122   4.649  13.083  0.00  0.00    +0.000 A 
ATOM     21  C   UNL     1       5.934   3.936  12.970  0.00  0.00    +0.000 A 
ATOM     22  F   UNL     1       5.446   3.652  11.755  0.00  0.00    +0.000 F 
ATOM     23  C   UNL     1       5.243   3.515  14.101  0.00  0.00    +0.000 A 
ATOM     24  C   UNL     1       5.749   3.810  15.370  0.00  0.00    +0.000 A 
ENDBRANCH  16  18
ENDBRANCH  13  16
ENDBRANCH  12  13
TORSDOF 3
ENDMDL
MODEL 5
REMARK VINA RESULT:      -7.3      1.612      2.570
REMARK  Name = 
REMARK  5 active torsions:
REMARK  status: ('A' for Active; 'I' for Inactive)
REMARK    1  A    between atoms: C_1  and  C_2
REMARK    2  A    between atoms: C_7  and  C_8
REMARK    3  A    between atoms: C_12  and  S_13
REMARK    4  A    between atoms: S_13  and  N_16
REMARK    5  A    between atoms: N_16  and  C_17
REMARK                            x       y       z     vdW  Elec       q    Type
REMARK                         _______ _______ _______ _____ _____    ______ ____
ROOT
ATOM      1  C   UNL     1       7.898   5.060  18.661  0.00  0.00    +0.000 C 
ATOM      2  C   UNL     1       6.411   4.876  18.500  0.00  0.00    +0.000 A 
ATOM      3  N   UNL     1       5.905   3.966  19.409  0.00  0.00    +0.000 NA
ATOM      4  C   UNL     1       4.648   3.710  19.341  0.00  0.00    +0.000 A 
ATOM      5  S   UNL     1       3.834   2.577  20.401  0.00  0.00    +0.000 S 
ATOM      6  C   UNL     1       2.317   2.922  19.634  0.00  0.00    +0.000 A 
ATOM      7  C   UNL     1       2.438   3.826  18.647  0.00  0.00    +0.000 A 
ATOM      8  C   UNL     1       1.295   4.302  17.816  0.00  0.00    +0.000 C 
ATOM      9  N   UNL     1       3.749   4.271  18.464  0.00  0.00    +0.000 N 
ATOM     10  C   UNL     1       4.179   5.246  17.582  0.00  0.00    +0.000 A 
ATOM     11  O   UNL     1       3.432   5.936  16.890  0.00  0.00    +0.000 OA
ATOM     12  C   UNL     1       5.642   5.508  17.590  0.00  0.00    +0.000 A 
ENDROOT
BRANCH  12  13
ATOM     13  S   UNL     1       6.250   6.630  16.412  0.00  0.00    +0.000 S 
ATOM     14  O   UNL     1       5.238   6.982  15.436  0.00  0.00    +0.000 OA
ATOM     15  O   UNL     1       6.916   7.704  17.124  0.00  0.00    +0.000 OA
BRANCH  13  16
ATOM     16  N   UNL     1       7.493   5.829  15.546  0.00  0.00    +0.000 N 
ATOM     17  H   UNL     1       8.164   5.430  16.209  0.00  0.00    +0.000 HD
BRANCH  16  18
ATOM     18  C   UNL     1       7.075   4.975  14.483  0.00  0.00    +0.000 A 
ATOM     19  C   UNL     1       7.640   5.129  13.214  0.00  0.00    +0.000 A 
ATOM     20  C   UNL     1       7.185   4.350  12.147  0.00  0.00    +0.000 A 
ATOM     21  C   UNL     1       6.153   3.442  12.355  0.00  0.00    +0.000 A 
ATOM     22  F   UNL     1       5.701   2.708  11.329  0.00  0.00    +0.000 F 
ATOM     23  C   UNL     1       5.580   3.287  13.612  0.00  0.00    +0.000 A 
ATOM     24  C   UNL     1       6.048   4.051  14.684  0.00  0.00    +0.000 A 
ENDBRANCH  16  18
ENDBRANCH  13  16
ENDBRANCH  12  13
TORSDOF 3
ENDMDL
MODEL 6
REMARK VINA RESULT:      -7.3      1.623      2.409
REMARK  Name = 
REMARK  5 active torsions:
REMARK  status: ('A' for Active; 'I' for Inactive)
REMARK    1  A    between atoms: C_1  and  C_2
REMARK    2  A    between atoms: C_7  and  C_8
REMARK    3  A    between atoms: C_12  and  S_13
REMARK    4  A    between atoms: S_13  and  N_16
REMARK    5  A    between atoms: N_16  and  C_17
REMARK                            x       y       z     vdW  Elec       q    Type
REMARK                         _______ _______ _______ _____ _____    ______ ____
ROOT
ATOM      1  C   UNL     1       7.891   4.826  18.477  0.00  0.00    +0.000 C 
ATOM      2  C   UNL     1       6.389   4.743  18.378  0.00  0.00    +0.000 A 
ATOM      3  N   UNL     1       5.866   3.829  19.274  0.00  0.00    +0.000 NA
ATOM      4  C   UNL     1       4.593   3.655  19.253  0.00  0.00    +0.000 A 
ATOM      5  S   UNL     1       3.755   2.532  20.304  0.00  0.00    +0.000 S 
ATOM      6  C   UNL     1       2.231   3.003  19.622  0.00  0.00    +0.000 A 
ATOM      7  C   UNL     1       2.367   3.938  18.667  0.00  0.00    +0.000 A 
ATOM      8  C   UNL     1       1.222   4.518  17.909  0.00  0.00    +0.000 C 
ATOM      9  N   UNL     1       3.695   4.307  18.442  0.00  0.00    +0.000 N 
ATOM     10  C   UNL     1       4.148   5.289  17.579  0.00  0.00    +0.000 A 
ATOM     11  O   UNL     1       3.417   6.054  16.950  0.00  0.00    +0.000 OA
ATOM     12  C   UNL     1       5.623   5.459  17.530  0.00  0.00    +0.000 A 
ENDROOT
BRANCH  12  13
ATOM     13  S   UNL     1       6.251   6.589  16.370  0.00  0.00    +0.000 S 
ATOM     14  O   UNL     1       5.234   7.005  15.424  0.00  0.00    +0.000 OA
ATOM     15  O   UNL     1       6.970   7.618  17.097  0.00  0.00    +0.000 OA
BRANCH  13  16
ATOM     16  N   UNL     1       7.447   5.767  15.459  0.00  0.00    +0.000 N 
ATOM     17  H   UNL     1       8.092   5.294  16.097  0.00  0.00    +0.000 HD
BRANCH  16  18
ATOM     18  C   UNL     1       6.981   4.999  14.351  0.00  0.00    +0.000 A 
ATOM     19  C   UNL     1       5.937   4.088  14.534  0.00  0.00    +0.000 A 
ATOM     20  C   UNL     1       5.522   3.278  13.474  0.00  0.00    +0.000 A 
ATOM     21  C   UNL     1       6.171   3.370  12.248  0.00  0.00    +0.000 A 
ATOM     22  F   UNL     1       5.789   2.579  11.237  0.00  0.00    +0.000 F 
ATOM     23  C   UNL     1       7.216   4.267  12.058  0.00  0.00    +0.000 A 
ATOM     24  C   UNL     1       7.618   5.093  13.112  0.00  0.00    +0.000 A 
ENDBRANCH  16  18
ENDBRANCH  13  16
ENDBRANCH  12  13
TORSDOF 3
ENDMDL
MODEL 7
REMARK VINA RESULT:      -7.2      3.643      6.367
REMARK  Name = 
REMARK  5 active torsions:
REMARK  status: ('A' for Active; 'I' for Inactive)
REMARK    1  A    between atoms: C_1  and  C_2
REMARK    2  A    between atoms: C_7  and  C_8
REMARK    3  A    between atoms: C_12  and  S_13
REMARK    4  A    between atoms: S_13  and  N_16
REMARK    5  A    between atoms: N_16  and  C_17
REMARK                            x       y       z     vdW  Elec       q    Type
REMARK                         _______ _______ _______ _____ _____    ______ ____
ROOT
ATOM      1  C   UNL     1       1.396   3.622  17.401  0.00  0.00    +0.000 C 
ATOM      2  C   UNL     1       2.822   4.040  17.654  0.00  0.00    +0.000 A 
ATOM      3  N   UNL     1       3.630   3.798  16.559  0.00  0.00    +0.000 NA
ATOM      4  C   UNL     1       4.875   4.089  16.677  0.00  0.00    +0.000 A 
ATOM      5  S   UNL     1       6.051   3.840  15.401  0.00  0.00    +0.000 S 
ATOM      6  C   UNL     1       7.302   4.509  16.399  0.00  0.00    +0.000 A 
ATOM      7  C   UNL     1       6.847   4.881  17.607  0.00  0.00    +0.000 A 
ATOM      8  C   UNL     1       7.708   5.480  18.667  0.00  0.00    +0.000 C 
ATOM      9  N   UNL     1       5.482   4.641  17.781  0.00  0.00    +0.000 N 
ATOM     10  C   UNL     1       4.713   4.978  18.880  0.00  0.00    +0.000 A 
ATOM     11  O   UNL     1       5.119   5.638  19.836  0.00  0.00    +0.000 OA
ATOM     12  C   UNL     1       3.283   4.585  18.799  0.00  0.00    +0.000 A 
ENDROOT
BRANCH  12  13
ATOM     13  S   UNL     1       2.303   4.871  20.204  0.00  0.00    +0.000 S 
ATOM     14  O   UNL     1       0.890   4.864  19.881  0.00  0.00    +0.000 OA
ATOM     15  O   UNL     1       2.769   3.989  21.257  0.00  0.00    +0.000 OA
BRANCH  13  16
ATOM     16  N   UNL     1       2.660   6.454  20.755  0.00  0.00    +0.000 N 
ATOM     17  H   UNL     1       3.673   6.553  20.865  0.00  0.00    +0.000 HD
BRANCH  16  18
ATOM     18  C   UNL     1       1.991   7.522  20.088  0.00  0.00    +0.000 A 
ATOM     19  C   UNL     1       2.261   7.769  18.739  0.00  0.00    +0.000 A 
ATOM     20  C   UNL     1       1.667   8.858  18.096  0.00  0.00    +0.000 A 
ATOM     21  C   UNL     1       0.829   9.703  18.814  0.00  0.00    +0.000 A 
ATOM     22  F   UNL     1       0.275  10.760  18.204  0.00  0.00    +0.000 F 
ATOM     23  C   UNL     1       0.560   9.470  20.158  0.00  0.00    +0.000 A 
ATOM     24  C   UNL     1       1.137   8.369  20.797  0.00  0.00    +0.000 A 
ENDBRANCH  16  18
ENDBRANCH  13  16
ENDBRANCH  12  13
TORSDOF 3
ENDMDL
MODEL 8
REMARK VINA RESULT:      -7.0      2.987      4.775
REMARK  Name = 
REMARK  5 active torsions:
REMARK  status: ('A' for Active; 'I' for Inactive)
REMARK    1  A    between atoms: C_1  and  C_2
REMARK    2  A    between atoms: C_7  and  C_8
REMARK    3  A    between atoms: C_12  and  S_13
REMARK    4  A    between atoms: S_13  and  N_16
REMARK    5  A    between atoms: N_16  and  C_17
REMARK                            x       y       z     vdW  Elec       q    Type
REMARK                         _______ _______ _______ _____ _____    ______ ____
ROOT
ATOM      1  C   UNL     1       2.407   3.218  21.301  0.00  0.00    +0.000 C 
ATOM      2  C   UNL     1       2.390   4.494  20.499  0.00  0.00    +0.000 A 
ATOM      3  N   UNL     1       1.810   5.533  21.202  0.00  0.00    +0.000 NA
ATOM      4  C   UNL     1       1.715   6.664  20.599  0.00  0.00    +0.000 A 
ATOM      5  S   UNL     1       1.000   8.089  21.326  0.00  0.00    +0.000 S 
ATOM      6  C   UNL     1       1.343   9.011  19.897  0.00  0.00    +0.000 A 
ATOM      7  C   UNL     1       1.949   8.277  18.949  0.00  0.00    +0.000 A 
ATOM      8  C   UNL     1       2.352   8.815  17.618  0.00  0.00    +0.000 C 
ATOM      9  N   UNL     1       2.156   6.949  19.328  0.00  0.00    +0.000 N 
ATOM     10  C   UNL     1       2.814   5.972  18.603  0.00  0.00    +0.000 A 
ATOM     11  O   UNL     1       3.405   6.173  17.542  0.00  0.00    +0.000 OA
ATOM     12  C   UNL     1       2.873   4.634  19.247  0.00  0.00    +0.000 A 
ENDROOT
BRANCH  12  13
ATOM     13  S   UNL     1       3.576   3.343  18.325  0.00  0.00    +0.000 S 
ATOM     14  O   UNL     1       3.023   2.056  18.698  0.00  0.00    +0.000 OA
ATOM     15  O   UNL     1       3.537   3.723  16.925  0.00  0.00    +0.000 OA
BRANCH  13  16
ATOM     16  N   UNL     1       5.241   3.283  18.726  0.00  0.00    +0.000 N 
ATOM     17  H   UNL     1       5.603   2.347  18.528  0.00  0.00    +0.000 HD
BRANCH  16  18
ATOM     18  C   UNL     1       6.040   4.376  18.276  0.00  0.00    +0.000 A 
ATOM     19  C   UNL     1       6.478   5.333  19.196  0.00  0.00    +0.000 A 
ATOM     20  C   UNL     1       7.198   6.446  18.756  0.00  0.00    +0.000 A 
ATOM     21  C   UNL     1       7.450   6.605  17.398  0.00  0.00    +0.000 A 
ATOM     22  F   UNL     1       8.122   7.683  16.972  0.00  0.00    +0.000 F 
ATOM     23  C   UNL     1       7.011   5.663  16.475  0.00  0.00    +0.000 A 
ATOM     24  C   UNL     1       6.310   4.538  16.916  0.00  0.00    +0.000 A 
ENDBRANCH  16  18
ENDBRANCH  13  16
ENDBRANCH  12  13
TORSDOF 3
ENDMDL
MODEL 9
REMARK VINA RESULT:      -6.9      3.214      6.684
REMARK  Name = 
REMARK  5 active torsions:
REMARK  status: ('A' for Active; 'I' for Inactive)
REMARK    1  A    between atoms: C_1  and  C_2
REMARK    2  A    between atoms: C_7  and  C_8
REMARK    3  A    between atoms: C_12  and  S_13
REMARK    4  A    between atoms: S_13  and  N_16
REMARK    5  A    between atoms: N_16  and  C_17
REMARK                            x       y       z     vdW  Elec       q    Type
REMARK                         _______ _______ _______ _____ _____    ______ ____
ROOT
ATOM      1  C   UNL     1       7.416   6.557  17.786  0.00  0.00    +0.000 C 
ATOM      2  C   UNL     1       6.849   5.791  16.618  0.00  0.00    +0.000 A 
ATOM      3  N   UNL     1       7.680   5.850  15.514  0.00  0.00    +0.000 NA
ATOM      4  C   UNL     1       7.277   5.256  14.449  0.00  0.00    +0.000 A 
ATOM      5  S   UNL     1       8.189   5.233  12.952  0.00  0.00    +0.000 S 
ATOM      6  C   UNL     1       6.970   4.252  12.204  0.00  0.00    +0.000 A 
ATOM      7  C   UNL     1       5.953   3.977  13.038  0.00  0.00    +0.000 A 
ATOM      8  C   UNL     1       4.767   3.158  12.655  0.00  0.00    +0.000 C 
ATOM      9  N   UNL     1       6.109   4.545  14.304  0.00  0.00    +0.000 N 
ATOM     10  C   UNL     1       5.273   4.384  15.395  0.00  0.00    +0.000 A 
ATOM     11  O   UNL     1       4.307   3.622  15.424  0.00  0.00    +0.000 OA
ATOM     12  C   UNL     1       5.678   5.122  16.619  0.00  0.00    +0.000 A 
ENDROOT
BRANCH  12  13
ATOM     13  S   UNL     1       4.596   5.057  17.975  0.00  0.00    +0.000 S 
ATOM     14  O   UNL     1       5.301   5.224  19.231  0.00  0.00    +0.000 OA
ATOM     15  O   UNL     1       3.479   5.939  17.696  0.00  0.00    +0.000 OA
BRANCH  13  16
ATOM     16  N   UNL     1       3.924   3.481  18.010  0.00  0.00    +0.000 N 
ATOM     17  H   UNL     1       4.652   2.798  17.787  0.00  0.00    +0.000 HD
BRANCH  16  18
ATOM     18  C   UNL     1       3.091   3.173  19.126  0.00  0.00    +0.000 A 
ATOM     19  C   UNL     1       1.729   3.482  19.076  0.00  0.00    +0.000 A 
ATOM     20  C   UNL     1       0.919   3.252  20.191  0.00  0.00    +0.000 A 
ATOM     21  C   UNL     1       1.483   2.740  21.353  0.00  0.00    +0.000 A 
ATOM     22  F   UNL     1       0.712   2.540  22.430  0.00  0.00    +0.000 F 
ATOM     23  C   UNL     1       2.839   2.437  21.416  0.00  0.00    +0.000 A 
ATOM     24  C   UNL     1       3.646   2.645  20.294  0.00  0.00    +0.000 A 
ENDBRANCH  16  18
ENDBRANCH  13  16
ENDBRANCH  12  13
TORSDOF 3
ENDMDL
