MODEL 1
REMARK VINA RESULT:      -7.5      0.000      0.000
REMARK  Name = 
REMARK  15 active torsions:
REMARK  status: ('A' for Active; 'I' for Inactive)
REMARK    1  A    between atoms: C_1  and  O_2
REMARK    2  A    between atoms: O_2  and  C_3
REMARK    3  A    between atoms: C_3  and  C_5
REMARK    4  A    between atoms: C_5  and  C_6
REMARK    5  A    between atoms: C_5  and  C_26
REMARK    6  A    between atoms: C_6  and  C_7
REMARK    7  A    between atoms: C_7  and  S_8
REMARK    8  A    between atoms: S_8  and  C_11
REMARK    9  A    between atoms: C_11  and  C_12
REMARK   10  A    between atoms: C_12  and  C_14
REMARK   11  A    between atoms: N_16  and  C_17
REMARK   12  A    between atoms: C_21  and  C_22
REMARK   13  A    between atoms: C_22  and  C_23
REMARK   14  A    between atoms: C_26  and  O_28
REMARK   15  A    between atoms: O_28  and  C_29
REMARK                            x       y       z     vdW  Elec       q    Type
REMARK                         _______ _______ _______ _____ _____    ______ ____
ROOT
ATOM      1  C   UNL     1       6.627   6.767  17.141  0.00  0.00    +0.000 C 
ENDROOT
BRANCH   1   2
ATOM      2  S   UNL     1       7.079   5.321  16.235  0.00  0.00    +0.000 S 
ATOM      3  O   UNL     1       7.681   4.370  17.148  0.00  0.00    +0.000 OA
ATOM      4  O   UNL     1       7.757   5.753  15.028  0.00  0.00    +0.000 OA
BRANCH   2   5
ATOM      5  C   UNL     1       5.508   4.624  15.746  0.00  0.00    +0.000 C 
BRANCH   5   6
ATOM      6  C   UNL     1       4.402   5.106  16.694  0.00  0.00    +0.000 C 
BRANCH   6   7
ATOM      7  C   UNL     1       3.882   4.062  17.695  0.00  0.00    +0.000 C 
BRANCH   7   8
ATOM      8  C   UNL     1       2.375   3.989  17.689  0.00  0.00    +0.000 C 
ATOM      9  O   UNL     1       1.630   4.960  17.692  0.00  0.00    +0.000 OA
BRANCH   8  11
ATOM     10  C   UNL     1       0.966   2.409  18.670  0.00  0.00    +0.000 C 
ATOM     11  O   UNL     1       1.955   2.694  17.678  0.00  0.00    +0.000 OA
ENDBRANCH   8  11
ENDBRANCH   7   8
BRANCH   7  12
ATOM     12  C   UNL     1       4.416   4.279  19.086  0.00  0.00    +0.000 C 
ATOM     13  O   UNL     1       4.246   5.287  19.755  0.00  0.00    +0.000 OA
BRANCH  12  14
ATOM     14  O   UNL     1       5.113   3.183  19.504  0.00  0.00    +0.000 OA
ATOM     15  C   UNL     1       4.373   2.307  20.360  0.00  0.00    +0.000 C 
ENDBRANCH  12  14
ENDBRANCH   7  12
ENDBRANCH   6   7
ENDBRANCH   5   6
ENDBRANCH   2   5
ENDBRANCH   1   2
BRANCH   1  16
ATOM     16  C   UNL     1       7.696   7.238  18.072  0.00  0.00    +0.000 C 
ATOM     17  O   UNL     1       8.294   6.474  18.826  0.00  0.00    +0.000 OA
BRANCH  16  18
ATOM     18  C   UNL     1       8.071   8.708  18.099  0.00  0.00    +0.000 C 
ATOM     19  O   UNL     1       7.597   9.430  17.238  0.00  0.00    +0.000 OA
ATOM     20  N   UNL     1       8.967   9.018  19.102  0.00  0.00    +0.000 N 
ATOM     21  H   UNL     1       9.426   8.246  19.574  0.00  0.00    +0.000 HD
BRANCH  20  22
ATOM     22  C   UNL     1       9.367  10.318  19.466  0.00  0.00    +0.000 A 
ATOM     23  C   UNL     1       9.240  10.809  20.765  0.00  0.00    +0.000 A 
ATOM     24  C   UNL     1       9.636  12.110  21.070  0.00  0.00    +0.000 A 
ATOM     25  C   UNL     1      10.154  12.941  20.076  0.00  0.00    +0.000 A 
ATOM     26  C   UNL     1      10.300  12.465  18.770  0.00  0.00    +0.000 A 
ATOM     27  C   UNL     1       9.930  11.139  18.481  0.00  0.00    +0.000 A 
BRANCH  26  28
ATOM     28  C   UNL     1      10.810  13.308  17.643  0.00  0.00    +0.000 C 
ATOM     29  C   UNL     1      12.126  13.001  16.968  0.00  0.00    +0.000 C 
ATOM     30  O   UNL     1      10.152  14.283  17.278  0.00  0.00    +0.000 OA
ENDBRANCH  26  28
ENDBRANCH  20  22
ENDBRANCH  16  18
ENDBRANCH   1  16
TORSDOF 12
ENDMDL
MODEL 2
REMARK VINA RESULT:      -7.5      4.065      7.651
REMARK  Name = 
REMARK  15 active torsions:
REMARK  status: ('A' for Active; 'I' for Inactive)
REMARK    1  A    between atoms: C_1  and  O_2
REMARK    2  A    between atoms: O_2  and  C_3
REMARK    3  A    between atoms: C_3  and  C_5
REMARK    4  A    between atoms: C_5  and  C_6
REMARK    5  A    between atoms: C_5  and  C_26
REMARK    6  A    between atoms: C_6  and  C_7
REMARK    7  A    between atoms: C_7  and  S_8
REMARK    8  A    between atoms: S_8  and  C_11
REMARK    9  A    between atoms: C_11  and  C_12
REMARK   10  A    between atoms: C_12  and  C_14
REMARK   11  A    between atoms: N_16  and  C_17
REMARK   12  A    between atoms: C_21  and  C_22
REMARK   13  A    between atoms: C_22  and  C_23
REMARK   14  A    between atoms: C_26  and  O_28
REMARK   15  A    between atoms: O_28  and  C_29
REMARK                            x       y       z     vdW  Elec       q    Type
REMARK                         _______ _______ _______ _____ _____    ______ ____
ROOT
ATOM      1  C   UNL     1       3.768   2.996  20.274  0.00  0.00    +0.000 C 
ENDROOT
BRANCH   1   2
ATOM      2  S   UNL     1       3.214   2.273  18.763  0.00  0.00    +0.000 S 
ATOM      3  O   UNL     1       1.772   2.400  18.689  0.00  0.00    +0.000 OA
ATOM      4  O   UNL     1       3.873   0.989  18.622  0.00  0.00    +0.000 OA
BRANCH   2   5
ATOM      5  C   UNL     1       3.881   3.357  17.509  0.00  0.00    +0.000 C 
BRANCH   5   6
ATOM      6  C   UNL     1       4.796   4.406  18.155  0.00  0.00    +0.000 C 
BRANCH   6   7
ATOM      7  C   UNL     1       6.031   4.808  17.334  0.00  0.00    +0.000 C 
BRANCH   7   8
ATOM      8  C   UNL     1       7.301   4.664  18.135  0.00  0.00    +0.000 C 
ATOM      9  O   UNL     1       8.329   4.142  17.724  0.00  0.00    +0.000 OA
BRANCH   8  11
ATOM     10  C   UNL     1       8.377   5.300  20.105  0.00  0.00    +0.000 C 
ATOM     11  O   UNL     1       7.150   5.196  19.379  0.00  0.00    +0.000 OA
ENDBRANCH   8  11
ENDBRANCH   7   8
BRANCH   7  12
ATOM     12  C   UNL     1       5.909   6.188  16.742  0.00  0.00    +0.000 C 
ATOM     13  O   UNL     1       4.861   6.716  16.403  0.00  0.00    +0.000 OA
BRANCH  12  14
ATOM     14  O   UNL     1       7.137   6.773  16.645  0.00  0.00    +0.000 OA
ATOM     15  C   UNL     1       7.264   7.997  17.375  0.00  0.00    +0.000 C 
ENDBRANCH  12  14
ENDBRANCH   7  12
ENDBRANCH   6   7
ENDBRANCH   5   6
ENDBRANCH   2   5
ENDBRANCH   1   2
BRANCH   1  16
ATOM     16  C   UNL     1       2.659   3.568  21.096  0.00  0.00    +0.000 C 
ATOM     17  O   UNL     1       2.371   3.128  22.208  0.00  0.00    +0.000 OA
BRANCH  16  18
ATOM     18  C   UNL     1       1.850   4.732  20.557  0.00  0.00    +0.000 C 
ATOM     19  O   UNL     1       0.644   4.583  20.447  0.00  0.00    +0.000 OA
ATOM     20  N   UNL     1       2.630   5.817  20.210  0.00  0.00    +0.000 N 
ATOM     21  H   UNL     1       3.633   5.674  20.156  0.00  0.00    +0.000 HD
BRANCH  20  22
ATOM     22  C   UNL     1       2.145   7.085  19.835  0.00  0.00    +0.000 A 
ATOM     23  C   UNL     1       2.370   7.632  18.573  0.00  0.00    +0.000 A 
ATOM     24  C   UNL     1       1.883   8.900  18.256  0.00  0.00    +0.000 A 
ATOM     25  C   UNL     1       1.174   9.640  19.204  0.00  0.00    +0.000 A 
ATOM     26  C   UNL     1       0.929   9.104  20.472  0.00  0.00    +0.000 A 
ATOM     27  C   UNL     1       1.395   7.810  20.768  0.00  0.00    +0.000 A 
BRANCH  26  28
ATOM     28  C   UNL     1       0.212   9.851  21.552  0.00  0.00    +0.000 C 
ATOM     29  C   UNL     1       0.355   9.461  23.004  0.00  0.00    +0.000 C 
ATOM     30  O   UNL     1      -0.527  10.788  21.244  0.00  0.00    +0.000 OA
ENDBRANCH  26  28
ENDBRANCH  20  22
ENDBRANCH  16  18
ENDBRANCH   1  16
TORSDOF 12
ENDMDL
MODEL 3
REMARK VINA RESULT:      -7.4      4.452      7.675
REMARK  Name = 
REMARK  15 active torsions:
REMARK  status: ('A' for Active; 'I' for Inactive)
REMARK    1  A    between atoms: C_1  and  O_2
REMARK    2  A    between atoms: O_2  and  C_3
REMARK    3  A    between atoms: C_3  and  C_5
REMARK    4  A    between atoms: C_5  and  C_6
REMARK    5  A    between atoms: C_5  and  C_26
REMARK    6  A    between atoms: C_6  and  C_7
REMARK    7  A    between atoms: C_7  and  S_8
REMARK    8  A    between atoms: S_8  and  C_11
REMARK    9  A    between atoms: C_11  and  C_12
REMARK   10  A    between atoms: C_12  and  C_14
REMARK   11  A    between atoms: N_16  and  C_17
REMARK   12  A    between atoms: C_21  and  C_22
REMARK   13  A    between atoms: C_22  and  C_23
REMARK   14  A    between atoms: C_26  and  O_28
REMARK   15  A    between atoms: O_28  and  C_29
REMARK                            x       y       z     vdW  Elec       q    Type
REMARK                         _______ _______ _______ _____ _____    ______ ____
ROOT
ATOM      1  C   UNL     1       3.218   3.694  19.555  0.00  0.00    +0.000 C 
ENDROOT
BRANCH   1   2
ATOM      2  S   UNL     1       2.826   3.299  17.880  0.00  0.00    +0.000 S 
ATOM      3  O   UNL     1       2.198   4.452  17.267  0.00  0.00    +0.000 OA
ATOM      4  O   UNL     1       2.196   1.993  17.872  0.00  0.00    +0.000 OA
BRANCH   2   5
ATOM      5  C   UNL     1       4.427   3.125  17.105  0.00  0.00    +0.000 C 
BRANCH   5   6
ATOM      6  C   UNL     1       4.785   4.409  16.344  0.00  0.00    +0.000 C 
BRANCH   6   7
ATOM      7  C   UNL     1       6.283   4.738  16.260  0.00  0.00    +0.000 C 
BRANCH   7   8
ATOM      8  C   UNL     1       6.593   6.080  16.874  0.00  0.00    +0.000 C 
ATOM      9  O   UNL     1       5.831   7.038  16.877  0.00  0.00    +0.000 OA
BRANCH   8  11
ATOM     10  C   UNL     1       7.824   6.175  18.854  0.00  0.00    +0.000 C 
ATOM     11  O   UNL     1       7.837   6.082  17.428  0.00  0.00    +0.000 OA
ENDBRANCH   8  11
ENDBRANCH   7   8
BRANCH   7  12
ATOM     12  C   UNL     1       6.819   4.639  14.856  0.00  0.00    +0.000 C 
ATOM     13  O   UNL     1       7.640   5.398  14.363  0.00  0.00    +0.000 OA
BRANCH  12  14
ATOM     14  O   UNL     1       6.265   3.573  14.210  0.00  0.00    +0.000 OA
ATOM     15  C   UNL     1       6.243   3.696  12.785  0.00  0.00    +0.000 C 
ENDBRANCH  12  14
ENDBRANCH   7  12
ENDBRANCH   6   7
ENDBRANCH   5   6
ENDBRANCH   2   5
ENDBRANCH   1   2
BRANCH   1  16
ATOM     16  C   UNL     1       3.362   5.161  19.798  0.00  0.00    +0.000 C 
ATOM     17  O   UNL     1       4.427   5.753  19.635  0.00  0.00    +0.000 OA
BRANCH  16  18
ATOM     18  C   UNL     1       2.161   5.965  20.260  0.00  0.00    +0.000 C 
ATOM     19  O   UNL     1       1.197   5.350  20.685  0.00  0.00    +0.000 OA
ATOM     20  N   UNL     1       2.320   7.324  20.082  0.00  0.00    +0.000 N 
ATOM     21  H   UNL     1       3.094   7.633  19.502  0.00  0.00    +0.000 HD
BRANCH  20  22
ATOM     22  C   UNL     1       1.445   8.318  20.560  0.00  0.00    +0.000 A 
ATOM     23  C   UNL     1       1.265   8.571  21.919  0.00  0.00    +0.000 A 
ATOM     24  C   UNL     1       0.373   9.556  22.343  0.00  0.00    +0.000 A 
ATOM     25  C   UNL     1      -0.358  10.292  21.409  0.00  0.00    +0.000 A 
ATOM     26  C   UNL     1      -0.184  10.062  20.042  0.00  0.00    +0.000 A 
ATOM     27  C   UNL     1       0.744   9.090  19.626  0.00  0.00    +0.000 A 
BRANCH  26  28
ATOM     28  C   UNL     1      -0.959  10.783  18.984  0.00  0.00    +0.000 C 
ATOM     29  C   UNL     1      -1.597  12.125  19.257  0.00  0.00    +0.000 C 
ATOM     30  O   UNL     1      -1.097  10.258  17.879  0.00  0.00    +0.000 OA
ENDBRANCH  26  28
ENDBRANCH  20  22
ENDBRANCH  16  18
ENDBRANCH   1  16
TORSDOF 12
ENDMDL
MODEL 4
REMARK VINA RESULT:      -7.3      4.656      7.549
REMARK  Name = 
REMARK  15 active torsions:
REMARK  status: ('A' for Active; 'I' for Inactive)
REMARK    1  A    between atoms: C_1  and  O_2
REMARK    2  A    between atoms: O_2  and  C_3
REMARK    3  A    between atoms: C_3  and  C_5
REMARK    4  A    between atoms: C_5  and  C_6
REMARK    5  A    between atoms: C_5  and  C_26
REMARK    6  A    between atoms: C_6  and  C_7
REMARK    7  A    between atoms: C_7  and  S_8
REMARK    8  A    between atoms: S_8  and  C_11
REMARK    9  A    between atoms: C_11  and  C_12
REMARK   10  A    between atoms: C_12  and  C_14
REMARK   11  A    between atoms: N_16  and  C_17
REMARK   12  A    between atoms: C_21  and  C_22
REMARK   13  A    between atoms: C_22  and  C_23
REMARK   14  A    between atoms: C_26  and  O_28
REMARK   15  A    between atoms: O_28  and  C_29
REMARK                            x       y       z     vdW  Elec       q    Type
REMARK                         _______ _______ _______ _____ _____    ______ ____
ROOT
ATOM      1  C   UNL     1       2.953   3.693  19.376  0.00  0.00    +0.000 C 
ENDROOT
BRANCH   1   2
ATOM      2  S   UNL     1       4.715   3.720  19.285  0.00  0.00    +0.000 S 
ATOM      3  O   UNL     1       5.229   2.505  19.884  0.00  0.00    +0.000 OA
ATOM      4  O   UNL     1       5.158   5.030  19.719  0.00  0.00    +0.000 OA
BRANCH   2   5
ATOM      5  C   UNL     1       5.046   3.597  17.533  0.00  0.00    +0.000 C 
BRANCH   5   6
ATOM      6  C   UNL     1       4.978   4.987  16.887  0.00  0.00    +0.000 C 
BRANCH   6   7
ATOM      7  C   UNL     1       6.315   5.559  16.394  0.00  0.00    +0.000 C 
BRANCH   7   8
ATOM      8  C   UNL     1       6.618   5.126  14.981  0.00  0.00    +0.000 C 
ATOM      9  O   UNL     1       7.660   5.367  14.386  0.00  0.00    +0.000 OA
BRANCH   8  11
ATOM     10  C   UNL     1       5.907   3.724  13.257  0.00  0.00    +0.000 C 
ATOM     11  O   UNL     1       5.574   4.427  14.456  0.00  0.00    +0.000 OA
ENDBRANCH   8  11
ENDBRANCH   7   8
BRANCH   7  12
ATOM     12  C   UNL     1       7.458   5.241  17.322  0.00  0.00    +0.000 C 
ATOM     13  O   UNL     1       8.121   4.215  17.294  0.00  0.00    +0.000 OA
BRANCH  12  14
ATOM     14  O   UNL     1       7.659   6.267  18.198  0.00  0.00    +0.000 OA
ATOM     15  C   UNL     1       7.626   7.566  17.599  0.00  0.00    +0.000 C 
ENDBRANCH  12  14
ENDBRANCH   7  12
ENDBRANCH   6   7
ENDBRANCH   5   6
ENDBRANCH   2   5
ENDBRANCH   1   2
BRANCH   1  16
ATOM     16  C   UNL     1       2.391   4.766  20.252  0.00  0.00    +0.000 C 
ATOM     17  O   UNL     1       2.182   4.593  21.451  0.00  0.00    +0.000 OA
BRANCH  16  18
ATOM     18  C   UNL     1       2.063   6.123  19.658  0.00  0.00    +0.000 C 
ATOM     19  O   UNL     1       2.084   6.230  18.443  0.00  0.00    +0.000 OA
ATOM     20  N   UNL     1       1.826   7.088  20.615  0.00  0.00    +0.000 N 
ATOM     21  H   UNL     1       2.079   6.870  21.573  0.00  0.00    +0.000 HD
BRANCH  20  22
ATOM     22  C   UNL     1       1.347   8.388  20.362  0.00  0.00    +0.000 A 
ATOM     23  C   UNL     1       1.576   9.054  19.158  0.00  0.00    +0.000 A 
ATOM     24  C   UNL     1       1.094  10.348  18.964  0.00  0.00    +0.000 A 
ATOM     25  C   UNL     1       0.387  10.995  19.977  0.00  0.00    +0.000 A 
ATOM     26  C   UNL     1       0.137  10.342  21.187  0.00  0.00    +0.000 A 
ATOM     27  C   UNL     1       0.597   9.024  21.359  0.00  0.00    +0.000 A 
BRANCH  26  28
ATOM     28  C   UNL     1      -0.580  10.985  22.333  0.00  0.00    +0.000 C 
ATOM     29  C   UNL     1      -1.552  12.119  22.113  0.00  0.00    +0.000 C 
ATOM     30  O   UNL     1      -0.352  10.593  23.478  0.00  0.00    +0.000 OA
ENDBRANCH  26  28
ENDBRANCH  20  22
ENDBRANCH  16  18
ENDBRANCH   1  16
TORSDOF 12
ENDMDL
MODEL 5
REMARK VINA RESULT:      -7.3      4.142      7.563
REMARK  Name = 
REMARK  15 active torsions:
REMARK  status: ('A' for Active; 'I' for Inactive)
REMARK    1  A    between atoms: C_1  and  O_2
REMARK    2  A    between atoms: O_2  and  C_3
REMARK    3  A    between atoms: C_3  and  C_5
REMARK    4  A    between atoms: C_5  and  C_6
REMARK    5  A    between atoms: C_5  and  C_26
REMARK    6  A    between atoms: C_6  and  C_7
REMARK    7  A    between atoms: C_7  and  S_8
REMARK    8  A    between atoms: S_8  and  C_11
REMARK    9  A    between atoms: C_11  and  C_12
REMARK   10  A    between atoms: C_12  and  C_14
REMARK   11  A    between atoms: N_16  and  C_17
REMARK   12  A    between atoms: C_21  and  C_22
REMARK   13  A    between atoms: C_22  and  C_23
REMARK   14  A    between atoms: C_26  and  O_28
REMARK   15  A    between atoms: O_28  and  C_29
REMARK                            x       y       z     vdW  Elec       q    Type
REMARK                         _______ _______ _______ _____ _____    ______ ____
ROOT
ATOM      1  C   UNL     1       3.850   3.526  20.015  0.00  0.00    +0.000 C 
ENDROOT
BRANCH   1   2
ATOM      2  S   UNL     1       3.440   3.264  18.318  0.00  0.00    +0.000 S 
ATOM      3  O   UNL     1       2.497   4.284  17.906  0.00  0.00    +0.000 OA
ATOM      4  O   UNL     1       3.160   1.852  18.147  0.00  0.00    +0.000 OA
BRANCH   2   5
ATOM      5  C   UNL     1       4.968   3.614  17.460  0.00  0.00    +0.000 C 
BRANCH   5   6
ATOM      6  C   UNL     1       4.709   4.590  16.304  0.00  0.00    +0.000 C 
BRANCH   6   7
ATOM      7  C   UNL     1       5.877   5.521  15.944  0.00  0.00    +0.000 C 
BRANCH   7   8
ATOM      8  C   UNL     1       7.164   4.755  15.765  0.00  0.00    +0.000 C 
ATOM      9  O   UNL     1       7.815   4.262  16.677  0.00  0.00    +0.000 OA
BRANCH   8  11
ATOM     10  C   UNL     1       6.464   4.157  13.621  0.00  0.00    +0.000 C 
ATOM     11  O   UNL     1       7.504   4.683  14.449  0.00  0.00    +0.000 OA
ENDBRANCH   8  11
ENDBRANCH   7   8
BRANCH   7  12
ATOM     12  C   UNL     1       6.042   6.649  16.928  0.00  0.00    +0.000 C 
ATOM     13  O   UNL     1       5.274   6.900  17.844  0.00  0.00    +0.000 OA
BRANCH  12  14
ATOM     14  O   UNL     1       7.180   7.352  16.659  0.00  0.00    +0.000 OA
ATOM     15  C   UNL     1       7.676   8.114  17.763  0.00  0.00    +0.000 C 
ENDBRANCH  12  14
ENDBRANCH   7  12
ENDBRANCH   6   7
ENDBRANCH   5   6
ENDBRANCH   2   5
ENDBRANCH   1   2
BRANCH   1  16
ATOM     16  C   UNL     1       2.668   3.877  20.860  0.00  0.00    +0.000 C 
ATOM     17  O   UNL     1       2.370   3.242  21.869  0.00  0.00    +0.000 OA
BRANCH  16  18
ATOM     18  C   UNL     1       1.794   5.055  20.473  0.00  0.00    +0.000 C 
ATOM     19  O   UNL     1       0.587   4.878  20.435  0.00  0.00    +0.000 OA
ATOM     20  N   UNL     1       2.520   6.186  20.161  0.00  0.00    +0.000 N 
ATOM     21  H   UNL     1       3.520   6.078  20.026  0.00  0.00    +0.000 HD
BRANCH  20  22
ATOM     22  C   UNL     1       1.978   7.465  19.923  0.00  0.00    +0.000 A 
ATOM     23  C   UNL     1       1.991   8.064  18.664  0.00  0.00    +0.000 A 
ATOM     24  C   UNL     1       1.457   9.339  18.484  0.00  0.00    +0.000 A 
ATOM     25  C   UNL     1       0.914  10.035  19.565  0.00  0.00    +0.000 A 
ATOM     26  C   UNL     1       0.882   9.448  20.833  0.00  0.00    +0.000 A 
ATOM     27  C   UNL     1       1.392   8.146  20.995  0.00  0.00    +0.000 A 
BRANCH  26  28
ATOM     28  C   UNL     1       0.352  10.145  22.046  0.00  0.00    +0.000 C 
ATOM     29  C   UNL     1      -0.043   9.375  23.284  0.00  0.00    +0.000 C 
ATOM     30  O   UNL     1       0.216  11.369  22.022  0.00  0.00    +0.000 OA
ENDBRANCH  26  28
ENDBRANCH  20  22
ENDBRANCH  16  18
ENDBRANCH   1  16
TORSDOF 12
ENDMDL
MODEL 6
REMARK VINA RESULT:      -7.2      4.370      7.845
REMARK  Name = 
REMARK  15 active torsions:
REMARK  status: ('A' for Active; 'I' for Inactive)
REMARK    1  A    between atoms: C_1  and  O_2
REMARK    2  A    between atoms: O_2  and  C_3
REMARK    3  A    between atoms: C_3  and  C_5
REMARK    4  A    between atoms: C_5  and  C_6
REMARK    5  A    between atoms: C_5  and  C_26
REMARK    6  A    between atoms: C_6  and  C_7
REMARK    7  A    between atoms: C_7  and  S_8
REMARK    8  A    between atoms: S_8  and  C_11
REMARK    9  A    between atoms: C_11  and  C_12
REMARK   10  A    between atoms: C_12  and  C_14
REMARK   11  A    between atoms: N_16  and  C_17
REMARK   12  A    between atoms: C_21  and  C_22
REMARK   13  A    between atoms: C_22  and  C_23
REMARK   14  A    between atoms: C_26  and  O_28
REMARK   15  A    between atoms: O_28  and  C_29
REMARK                            x       y       z     vdW  Elec       q    Type
REMARK                         _______ _______ _______ _____ _____    ______ ____
ROOT
ATOM      1  C   UNL     1       3.026   2.819  20.131  0.00  0.00    +0.000 C 
ENDROOT
BRANCH   1   2
ATOM      2  S   UNL     1       4.429   3.508  19.310  0.00  0.00    +0.000 S 
ATOM      3  O   UNL     1       5.534   2.577  19.419  0.00  0.00    +0.000 OA
ATOM      4  O   UNL     1       4.551   4.890  19.734  0.00  0.00    +0.000 OA
BRANCH   2   5
ATOM      5  C   UNL     1       3.945   3.518  17.590  0.00  0.00    +0.000 C 
BRANCH   5   6
ATOM      6  C   UNL     1       4.724   4.601  16.832  0.00  0.00    +0.000 C 
BRANCH   6   7
ATOM      7  C   UNL     1       6.114   4.188  16.322  0.00  0.00    +0.000 C 
BRANCH   7   8
ATOM      8  C   UNL     1       7.214   4.891  17.075  0.00  0.00    +0.000 C 
ATOM      9  O   UNL     1       7.871   4.392  17.979  0.00  0.00    +0.000 OA
BRANCH   8  11
ATOM     10  C   UNL     1       7.407   7.145  17.649  0.00  0.00    +0.000 C 
ATOM     11  O   UNL     1       7.381   6.161  16.613  0.00  0.00    +0.000 OA
ENDBRANCH   8  11
ENDBRANCH   7   8
BRANCH   7  12
ATOM     12  C   UNL     1       6.263   4.372  14.834  0.00  0.00    +0.000 C 
ATOM     13  O   UNL     1       5.346   4.336  14.027  0.00  0.00    +0.000 OA
BRANCH  12  14
ATOM     14  O   UNL     1       7.569   4.597  14.512  0.00  0.00    +0.000 OA
ATOM     15  C   UNL     1       7.766   5.145  13.205  0.00  0.00    +0.000 C 
ENDBRANCH  12  14
ENDBRANCH   7  12
ENDBRANCH   6   7
ENDBRANCH   5   6
ENDBRANCH   2   5
ENDBRANCH   1   2
BRANCH   1  16
ATOM     16  C   UNL     1       2.296   3.807  20.981  0.00  0.00    +0.000 C 
ATOM     17  O   UNL     1       2.172   3.664  22.196  0.00  0.00    +0.000 OA
BRANCH  16  18
ATOM     18  C   UNL     1       1.680   5.037  20.340  0.00  0.00    +0.000 C 
ATOM     19  O   UNL     1       0.892   4.865  19.425  0.00  0.00    +0.000 OA
ATOM     20  N   UNL     1       2.156   6.219  20.871  0.00  0.00    +0.000 N 
ATOM     21  H   UNL     1       2.977   6.167  21.466  0.00  0.00    +0.000 HD
BRANCH  20  22
ATOM     22  C   UNL     1       1.653   7.503  20.586  0.00  0.00    +0.000 A 
ATOM     23  C   UNL     1       1.781   8.099  19.333  0.00  0.00    +0.000 A 
ATOM     24  C   UNL     1       1.281   9.381  19.106  0.00  0.00    +0.000 A 
ATOM     25  C   UNL     1       0.656  10.086  20.136  0.00  0.00    +0.000 A 
ATOM     26  C   UNL     1       0.508   9.502  21.397  0.00  0.00    +0.000 A 
ATOM     27  C   UNL     1       0.986   8.194  21.604  0.00  0.00    +0.000 A 
BRANCH  26  28
ATOM     28  C   UNL     1      -0.114  10.209  22.560  0.00  0.00    +0.000 C 
ATOM     29  C   UNL     1      -0.992  11.421  22.362  0.00  0.00    +0.000 C 
ATOM     30  O   UNL     1       0.116   9.804  23.700  0.00  0.00    +0.000 OA
ENDBRANCH  26  28
ENDBRANCH  20  22
ENDBRANCH  16  18
ENDBRANCH   1  16
TORSDOF 12
ENDMDL
MODEL 7
REMARK VINA RESULT:      -7.1      5.171      7.978
REMARK  Name = 
REMARK  15 active torsions:
REMARK  status: ('A' for Active; 'I' for Inactive)
REMARK    1  A    between atoms: C_1  and  O_2
REMARK    2  A    between atoms: O_2  and  C_3
REMARK    3  A    between atoms: C_3  and  C_5
REMARK    4  A    between atoms: C_5  and  C_6
REMARK    5  A    between atoms: C_5  and  C_26
REMARK    6  A    between atoms: C_6  and  C_7
REMARK    7  A    between atoms: C_7  and  S_8
REMARK    8  A    between atoms: S_8  and  C_11
REMARK    9  A    between atoms: C_11  and  C_12
REMARK   10  A    between atoms: C_12  and  C_14
REMARK   11  A    between atoms: N_16  and  C_17
REMARK   12  A    between atoms: C_21  and  C_22
REMARK   13  A    between atoms: C_22  and  C_23
REMARK   14  A    between atoms: C_26  and  O_28
REMARK   15  A    between atoms: O_28  and  C_29
REMARK                            x       y       z     vdW  Elec       q    Type
REMARK                         _______ _______ _______ _____ _____    ______ ____
ROOT
ATOM      1  C   UNL     1       3.604   6.245  19.045  0.00  0.00    +0.000 C 
ENDROOT
BRANCH   1   2
ATOM      2  S   UNL     1       3.257   4.561  18.645  0.00  0.00    +0.000 S 
ATOM      3  O   UNL     1       2.311   4.530  17.547  0.00  0.00    +0.000 OA
ATOM      4  O   UNL     1       3.006   3.857  19.887  0.00  0.00    +0.000 OA
BRANCH   2   5
ATOM      5  C   UNL     1       4.807   3.957  17.992  0.00  0.00    +0.000 C 
BRANCH   5   6
ATOM      6  C   UNL     1       4.930   4.324  16.507  0.00  0.00    +0.000 C 
BRANCH   6   7
ATOM      7  C   UNL     1       6.189   5.114  16.119  0.00  0.00    +0.000 C 
BRANCH   7   8
ATOM      8  C   UNL     1       6.707   4.702  14.764  0.00  0.00    +0.000 C 
ATOM      9  O   UNL     1       6.280   3.759  14.110  0.00  0.00    +0.000 OA
BRANCH   8  11
ATOM     10  C   UNL     1       8.059   5.371  12.983  0.00  0.00    +0.000 C 
ATOM     11  O   UNL     1       7.717   5.523  14.363  0.00  0.00    +0.000 OA
ENDBRANCH   8  11
ENDBRANCH   7   8
BRANCH   7  12
ATOM     12  C   UNL     1       7.268   5.034  17.166  0.00  0.00    +0.000 C 
ATOM     13  O   UNL     1       8.100   4.143  17.253  0.00  0.00    +0.000 OA
BRANCH  12  14
ATOM     14  O   UNL     1       7.195   6.107  18.006  0.00  0.00    +0.000 OA
ATOM     15  C   UNL     1       7.041   7.365  17.342  0.00  0.00    +0.000 C 
ENDBRANCH  12  14
ENDBRANCH   7  12
ENDBRANCH   6   7
ENDBRANCH   5   6
ENDBRANCH   2   5
ENDBRANCH   1   2
BRANCH   1  16
ATOM     16  C   UNL     1       2.402   7.000  19.512  0.00  0.00    +0.000 C 
ATOM     17  O   UNL     1       1.710   6.617  20.453  0.00  0.00    +0.000 OA
BRANCH  16  18
ATOM     18  C   UNL     1       2.008   8.287  18.812  0.00  0.00    +0.000 C 
ATOM     19  O   UNL     1       2.408   8.458  17.672  0.00  0.00    +0.000 OA
ATOM     20  N   UNL     1       1.265   9.131  19.612  0.00  0.00    +0.000 N 
ATOM     21  H   UNL     1       1.226   8.921  20.604  0.00  0.00    +0.000 HD
BRANCH  20  22
ATOM     22  C   UNL     1       0.631  10.314  19.184  0.00  0.00    +0.000 A 
ATOM     23  C   UNL     1       1.132  11.582  19.474  0.00  0.00    +0.000 A 
ATOM     24  C   UNL     1       0.456  12.723  19.042  0.00  0.00    +0.000 A 
ATOM     25  C   UNL     1      -0.735  12.607  18.324  0.00  0.00    +0.000 A 
ATOM     26  C   UNL     1      -1.248  11.345  18.015  0.00  0.00    +0.000 A 
ATOM     27  C   UNL     1      -0.540  10.201  18.425  0.00  0.00    +0.000 A 
BRANCH  26  28
ATOM     28  C   UNL     1      -2.538  11.141  17.284  0.00  0.00    +0.000 C 
ATOM     29  C   UNL     1      -3.867  11.245  17.995  0.00  0.00    +0.000 C 
ATOM     30  O   UNL     1      -2.510  10.860  16.085  0.00  0.00    +0.000 OA
ENDBRANCH  26  28
ENDBRANCH  20  22
ENDBRANCH  16  18
ENDBRANCH   1  16
TORSDOF 12
ENDMDL
MODEL 8
REMARK VINA RESULT:      -7.1      4.412      7.674
REMARK  Name = 
REMARK  15 active torsions:
REMARK  status: ('A' for Active; 'I' for Inactive)
REMARK    1  A    between atoms: C_1  and  O_2
REMARK    2  A    between atoms: O_2  and  C_3
REMARK    3  A    between atoms: C_3  and  C_5
REMARK    4  A    between atoms: C_5  and  C_6
REMARK    5  A    between atoms: C_5  and  C_26
REMARK    6  A    between atoms: C_6  and  C_7
REMARK    7  A    between atoms: C_7  and  S_8
REMARK    8  A    between atoms: S_8  and  C_11
REMARK    9  A    between atoms: C_11  and  C_12
REMARK   10  A    between atoms: C_12  and  C_14
REMARK   11  A    between atoms: N_16  and  C_17
REMARK   12  A    between atoms: C_21  and  C_22
REMARK   13  A    between atoms: C_22  and  C_23
REMARK   14  A    between atoms: C_26  and  O_28
REMARK   15  A    between atoms: O_28  and  C_29
REMARK                            x       y       z     vdW  Elec       q    Type
REMARK                         _______ _______ _______ _____ _____    ______ ____
ROOT
ATOM      1  C   UNL     1       3.305   3.320  20.919  0.00  0.00    +0.000 C 
ENDROOT
BRANCH   1   2
ATOM      2  S   UNL     1       4.188   2.589  19.577  0.00  0.00    +0.000 S 
ATOM      3  O   UNL     1       3.238   2.192  18.558  0.00  0.00    +0.000 OA
ATOM      4  O   UNL     1       5.142   1.652  20.137  0.00  0.00    +0.000 OA
BRANCH   2   5
ATOM      5  C   UNL     1       5.117   3.955  18.894  0.00  0.00    +0.000 C 
BRANCH   5   6
ATOM      6  C   UNL     1       5.088   3.896  17.361  0.00  0.00    +0.000 C 
BRANCH   6   7
ATOM      7  C   UNL     1       6.012   4.887  16.638  0.00  0.00    +0.000 C 
BRANCH   7   8
ATOM      8  C   UNL     1       6.149   4.553  15.174  0.00  0.00    +0.000 C 
ATOM      9  O   UNL     1       5.704   3.544  14.644  0.00  0.00    +0.000 OA
BRANCH   8  11
ATOM     10  C   UNL     1       7.499   5.065  13.341  0.00  0.00    +0.000 C 
ATOM     11  O   UNL     1       6.835   5.530  14.519  0.00  0.00    +0.000 OA
ENDBRANCH   8  11
ENDBRANCH   7   8
BRANCH   7  12
ATOM     12  C   UNL     1       7.359   5.011  17.301  0.00  0.00    +0.000 C 
ATOM     13  O   UNL     1       8.218   4.142  17.314  0.00  0.00    +0.000 OA
BRANCH  12  14
ATOM     14  O   UNL     1       7.492   6.238  17.882  0.00  0.00    +0.000 OA
ATOM     15  C   UNL     1       7.944   6.202  19.239  0.00  0.00    +0.000 C 
ENDBRANCH  12  14
ENDBRANCH   7  12
ENDBRANCH   6   7
ENDBRANCH   5   6
ENDBRANCH   2   5
ENDBRANCH   1   2
BRANCH   1  16
ATOM     16  C   UNL     1       1.948   3.813  20.534  0.00  0.00    +0.000 C 
ATOM     17  O   UNL     1       0.927   3.165  20.751  0.00  0.00    +0.000 OA
BRANCH  16  18
ATOM     18  C   UNL     1       1.808   5.161  19.851  0.00  0.00    +0.000 C 
ATOM     19  O   UNL     1       1.767   5.177  18.631  0.00  0.00    +0.000 OA
ATOM     20  N   UNL     1       1.795   6.218  20.738  0.00  0.00    +0.000 N 
ATOM     21  H   UNL     1       2.071   6.028  21.696  0.00  0.00    +0.000 HD
BRANCH  20  22
ATOM     22  C   UNL     1       1.519   7.559  20.407  0.00  0.00    +0.000 A 
ATOM     23  C   UNL     1       1.893   8.125  19.189  0.00  0.00    +0.000 A 
ATOM     24  C   UNL     1       1.611   9.463  18.916  0.00  0.00    +0.000 A 
ATOM     25  C   UNL     1       0.963  10.254  19.866  0.00  0.00    +0.000 A 
ATOM     26  C   UNL     1       0.570   9.703  21.089  0.00  0.00    +0.000 A 
ATOM     27  C   UNL     1       0.828   8.342  21.338  0.00  0.00    +0.000 A 
BRANCH  26  28
ATOM     28  C   UNL     1      -0.094  10.496  22.170  0.00  0.00    +0.000 C 
ATOM     29  C   UNL     1      -0.887  11.741  21.854  0.00  0.00    +0.000 C 
ATOM     30  O   UNL     1       0.032  10.136  23.341  0.00  0.00    +0.000 OA
ENDBRANCH  26  28
ENDBRANCH  20  22
ENDBRANCH  16  18
ENDBRANCH   1  16
TORSDOF 12
ENDMDL
MODEL 9
REMARK VINA RESULT:      -7.1      4.937      7.678
REMARK  Name = 
REMARK  15 active torsions:
REMARK  status: ('A' for Active; 'I' for Inactive)
REMARK    1  A    between atoms: C_1  and  O_2
REMARK    2  A    between atoms: O_2  and  C_3
REMARK    3  A    between atoms: C_3  and  C_5
REMARK    4  A    between atoms: C_5  and  C_6
REMARK    5  A    between atoms: C_5  and  C_26
REMARK    6  A    between atoms: C_6  and  C_7
REMARK    7  A    between atoms: C_7  and  S_8
REMARK    8  A    between atoms: S_8  and  C_11
REMARK    9  A    between atoms: C_11  and  C_12
REMARK   10  A    between atoms: C_12  and  C_14
REMARK   11  A    between atoms: N_16  and  C_17
REMARK   12  A    between atoms: C_21  and  C_22
REMARK   13  A    between atoms: C_22  and  C_23
REMARK   14  A    between atoms: C_26  and  O_28
REMARK   15  A    between atoms: O_28  and  C_29
REMARK                            x       y       z     vdW  Elec       q    Type
REMARK                         _______ _______ _______ _____ _____    ______ ____
ROOT
ATOM      1  C   UNL     1       3.437   4.122  19.606  0.00  0.00    +0.000 C 
ENDROOT
BRANCH   1   2
ATOM      2  S   UNL     1       2.620   3.051  18.466  0.00  0.00    +0.000 S 
ATOM      3  O   UNL     1       1.617   3.813  17.749  0.00  0.00    +0.000 OA
ATOM      4  O   UNL     1       2.287   1.829  19.173  0.00  0.00    +0.000 OA
BRANCH   2   5
ATOM      5  C   UNL     1       3.894   2.650  17.279  0.00  0.00    +0.000 C 
BRANCH   5   6
ATOM      6  C   UNL     1       4.467   3.937  16.670  0.00  0.00    +0.000 C 
BRANCH   6   7
ATOM      7  C   UNL     1       5.922   3.853  16.185  0.00  0.00    +0.000 C 
BRANCH   7   8
ATOM      8  C   UNL     1       6.877   4.455  17.185  0.00  0.00    +0.000 C 
ATOM      9  O   UNL     1       8.078   4.223  17.230  0.00  0.00    +0.000 OA
BRANCH   8  11
ATOM     10  C   UNL     1       7.004   5.684  19.164  0.00  0.00    +0.000 C 
ATOM     11  O   UNL     1       6.222   5.295  18.033  0.00  0.00    +0.000 OA
ENDBRANCH   8  11
ENDBRANCH   7   8
BRANCH   7  12
ATOM     12  C   UNL     1       6.111   4.454  14.816  0.00  0.00    +0.000 C 
ATOM     13  O   UNL     1       6.017   5.643  14.551  0.00  0.00    +0.000 OA
BRANCH  12  14
ATOM     14  O   UNL     1       6.413   3.481  13.908  0.00  0.00    +0.000 OA
ATOM     15  C   UNL     1       6.001   3.777  12.570  0.00  0.00    +0.000 C 
ENDBRANCH  12  14
ENDBRANCH   7  12
ENDBRANCH   6   7
ENDBRANCH   5   6
ENDBRANCH   2   5
ENDBRANCH   1   2
BRANCH   1  16
ATOM     16  C   UNL     1       2.510   5.071  20.292  0.00  0.00    +0.000 C 
ATOM     17  O   UNL     1       1.850   4.748  21.278  0.00  0.00    +0.000 OA
BRANCH  16  18
ATOM     18  C   UNL     1       2.365   6.488  19.768  0.00  0.00    +0.000 C 
ATOM     19  O   UNL     1       2.896   6.756  18.703  0.00  0.00    +0.000 OA
ATOM     20  N   UNL     1       1.669   7.313  20.628  0.00  0.00    +0.000 N 
ATOM     21  H   UNL     1       1.503   6.974  21.570  0.00  0.00    +0.000 HD
BRANCH  20  22
ATOM     22  C   UNL     1       1.247   8.625  20.338  0.00  0.00    +0.000 A 
ATOM     23  C   UNL     1       1.452   9.223  19.095  0.00  0.00    +0.000 A 
ATOM     24  C   UNL     1       1.030  10.532  18.864  0.00  0.00    +0.000 A 
ATOM     25  C   UNL     1       0.407  11.261  19.878  0.00  0.00    +0.000 A 
ATOM     26  C   UNL     1       0.183  10.676  21.127  0.00  0.00    +0.000 A 
ATOM     27  C   UNL     1       0.581   9.344  21.338  0.00  0.00    +0.000 A 
BRANCH  26  28
ATOM     28  C   UNL     1      -0.443  11.407  22.273  0.00  0.00    +0.000 C 
ATOM     29  C   UNL     1      -0.938  12.825  22.123  0.00  0.00    +0.000 C 
ATOM     30  O   UNL     1      -0.531  10.844  23.366  0.00  0.00    +0.000 OA
ENDBRANCH  26  28
ENDBRANCH  20  22
ENDBRANCH  16  18
ENDBRANCH   1  16
TORSDOF 12
ENDMDL
