MODEL 1
REMARK VINA RESULT:      -7.6      0.000      0.000
REMARK  Name = 
REMARK  6 active torsions:
REMARK  status: ('A' for Active; 'I' for Inactive)
REMARK    1  A    between atoms: C_2  and  C_3
REMARK    2  A    between atoms: C_3  and  N_4
REMARK    3  A    between atoms: N_4  and  S_5
REMARK    4  A    between atoms: S_5  and  C_8
REMARK    5  A    between atoms: C_13  and  C_14
REMARK    6  A    between atoms: N_19  and  O_20
REMARK                            x       y       z     vdW  Elec       q    Type
REMARK                         _______ _______ _______ _____ _____    ______ ____
ROOT
ATOM      1  S   UNL     1       6.873   5.964  17.638  0.00  0.00    +0.000 S 
ATOM      2  O   UNL     1       7.746   5.963  18.790  0.00  0.00    +0.000 OA
ATOM      3  O   UNL     1       6.730   7.117  16.781  0.00  0.00    +0.000 OA
ENDROOT
BRANCH   1   4
ATOM      4  C   UNL     1       5.267   5.464  18.204  0.00  0.00    +0.000 A 
ATOM      5  C   UNL     1       4.166   6.289  17.985  0.00  0.00    +0.000 A 
ATOM      6  C   UNL     1       2.915   5.898  18.460  0.00  0.00    +0.000 A 
ATOM      7  C   UNL     1       2.752   4.686  19.148  0.00  0.00    +0.000 A 
ATOM      8 CL   UNL     1       1.150   4.316  19.671  0.00  0.00    +0.000 Cl
ATOM      9  C   UNL     1       3.850   3.848  19.377  0.00  0.00    +0.000 A 
ATOM     10  C   UNL     1       5.120   4.262  18.905  0.00  0.00    +0.000 A 
BRANCH   9  11
ATOM     11  C   UNL     1       3.778   2.516  20.085  0.00  0.00    +0.000 C 
ATOM     12  F   UNL     1       3.267   2.519  21.342  0.00  0.00    +0.000 F 
ATOM     13  F   UNL     1       3.013   1.629  19.383  0.00  0.00    +0.000 F 
ATOM     14  F   UNL     1       5.005   1.930  20.187  0.00  0.00    +0.000 F 
ENDBRANCH   9  11
ENDBRANCH   1   4
BRANCH   1  15
ATOM     15  N   UNL     1       7.369   4.661  16.680  0.00  0.00    +0.000 NA
ATOM     16  H   UNL     1       8.310   4.861  16.328  0.00  0.00    +0.000 HD
BRANCH  15  17
ATOM     17  C   UNL     1       6.394   4.202  15.661  0.00  0.00    +0.000 C 
BRANCH  17  19
ATOM     18  O   UNL     1       6.417   3.913  13.258  0.00  0.00    +0.000 OA
ATOM     19  C   UNL     1       6.846   4.508  14.245  0.00  0.00    +0.000 C 
ATOM     20  N   UNL     1       7.814   5.472  14.141  0.00  0.00    +0.000 N 
ATOM     21  H   UNL     1       8.159   6.019  14.924  0.00  0.00    +0.000 HD
BRANCH  20  22
ATOM     22  O   UNL     1       8.260   5.808  12.846  0.00  0.00    +0.000 OA
ATOM     23  H   UNL     1       8.176   4.957  12.361  0.00  0.00    +0.000 HD
ENDBRANCH  20  22
ENDBRANCH  17  19
ENDBRANCH  15  17
ENDBRANCH   1  15
TORSDOF 6
ENDMDL
MODEL 2
REMARK VINA RESULT:      -7.6      1.189      1.467
REMARK  Name = 
REMARK  6 active torsions:
REMARK  status: ('A' for Active; 'I' for Inactive)
REMARK    1  A    between atoms: C_2  and  C_3
REMARK    2  A    between atoms: C_3  and  N_4
REMARK    3  A    between atoms: N_4  and  S_5
REMARK    4  A    between atoms: S_5  and  C_8
REMARK    5  A    between atoms: C_13  and  C_14
REMARK    6  A    between atoms: N_19  and  O_20
REMARK                            x       y       z     vdW  Elec       q    Type
REMARK                         _______ _______ _______ _____ _____    ______ ____
ROOT
ATOM      1  S   UNL     1       6.451   4.928  17.607  0.00  0.00    +0.000 S 
ATOM      2  O   UNL     1       7.414   4.382  18.537  0.00  0.00    +0.000 OA
ATOM      3  O   UNL     1       6.600   6.241  17.025  0.00  0.00    +0.000 OA
ENDROOT
BRANCH   1   4
ATOM      4  C   UNL     1       4.860   4.820  18.386  0.00  0.00    +0.000 A 
ATOM      5  C   UNL     1       4.300   5.949  18.980  0.00  0.00    +0.000 A 
ATOM      6  C   UNL     1       3.062   5.844  19.614  0.00  0.00    +0.000 A 
ATOM      7  C   UNL     1       2.375   4.621  19.654  0.00  0.00    +0.000 A 
ATOM      8 CL   UNL     1       0.849   4.631  20.458  0.00  0.00    +0.000 Cl
ATOM      9  C   UNL     1       2.927   3.478  19.062  0.00  0.00    +0.000 A 
ATOM     10  C   UNL     1       4.192   3.592  18.435  0.00  0.00    +0.000 A 
BRANCH   9  11
ATOM     11  C   UNL     1       2.260   2.124  19.030  0.00  0.00    +0.000 C 
ATOM     12  F   UNL     1       1.118   2.022  18.304  0.00  0.00    +0.000 F 
ATOM     13  F   UNL     1       3.100   1.175  18.522  0.00  0.00    +0.000 F 
ATOM     14  F   UNL     1       1.940   1.687  20.281  0.00  0.00    +0.000 F 
ENDBRANCH   9  11
ENDBRANCH   1   4
BRANCH   1  15
ATOM     15  N   UNL     1       6.341   3.807  16.345  0.00  0.00    +0.000 NA
ATOM     16  H   UNL     1       7.266   3.391  16.203  0.00  0.00    +0.000 HD
BRANCH  15  17
ATOM     17  C   UNL     1       5.667   4.287  15.114  0.00  0.00    +0.000 C 
BRANCH  17  19
ATOM     18  O   UNL     1       6.611   3.936  12.912  0.00  0.00    +0.000 OA
ATOM     19  C   UNL     1       6.643   4.546  13.980  0.00  0.00    +0.000 C 
ATOM     20  N   UNL     1       7.606   5.482  14.247  0.00  0.00    +0.000 N 
ATOM     21  H   UNL     1       7.639   6.040  15.094  0.00  0.00    +0.000 HD
BRANCH  20  22
ATOM     22  O   UNL     1       8.530   5.774  13.222  0.00  0.00    +0.000 OA
ATOM     23  H   UNL     1       8.863   6.664  13.478  0.00  0.00    +0.000 HD
ENDBRANCH  20  22
ENDBRANCH  17  19
ENDBRANCH  15  17
ENDBRANCH   1  15
TORSDOF 6
ENDMDL
MODEL 3
REMARK VINA RESULT:      -7.6      2.018      3.545
REMARK  Name = 
REMARK  6 active torsions:
REMARK  status: ('A' for Active; 'I' for Inactive)
REMARK    1  A    between atoms: C_2  and  C_3
REMARK    2  A    between atoms: C_3  and  N_4
REMARK    3  A    between atoms: N_4  and  S_5
REMARK    4  A    between atoms: S_5  and  C_8
REMARK    5  A    between atoms: C_13  and  C_14
REMARK    6  A    between atoms: N_19  and  O_20
REMARK                            x       y       z     vdW  Elec       q    Type
REMARK                         _______ _______ _______ _____ _____    ______ ____
ROOT
ATOM      1  S   UNL     1       5.408   5.749  15.608  0.00  0.00    +0.000 S 
ATOM      2  O   UNL     1       5.028   6.994  14.979  0.00  0.00    +0.000 OA
ATOM      3  O   UNL     1       5.540   4.519  14.864  0.00  0.00    +0.000 OA
ENDROOT
BRANCH   1   4
ATOM      4  C   UNL     1       4.288   5.489  16.960  0.00  0.00    +0.000 A 
ATOM      5  C   UNL     1       3.987   6.540  17.823  0.00  0.00    +0.000 A 
ATOM      6  C   UNL     1       3.127   6.315  18.898  0.00  0.00    +0.000 A 
ATOM      7  C   UNL     1       2.562   5.049  19.116  0.00  0.00    +0.000 A 
ATOM      8 CL   UNL     1       1.508   4.909  20.474  0.00  0.00    +0.000 Cl
ATOM      9  C   UNL     1       2.859   3.983  18.258  0.00  0.00    +0.000 A 
ATOM     10  C   UNL     1       3.745   4.218  17.178  0.00  0.00    +0.000 A 
BRANCH   9  11
ATOM     11  C   UNL     1       2.287   2.592  18.391  0.00  0.00    +0.000 C 
ATOM     12  F   UNL     1       2.486   1.960  19.574  0.00  0.00    +0.000 F 
ATOM     13  F   UNL     1       0.933   2.598  18.206  0.00  0.00    +0.000 F 
ATOM     14  F   UNL     1       2.775   1.750  17.437  0.00  0.00    +0.000 F 
ENDBRANCH   9  11
ENDBRANCH   1   4
BRANCH   1  15
ATOM     15  N   UNL     1       6.883   6.053  16.379  0.00  0.00    +0.000 NA
ATOM     16  H   UNL     1       7.588   6.245  15.661  0.00  0.00    +0.000 HD
BRANCH  15  17
ATOM     17  C   UNL     1       7.284   5.069  17.413  0.00  0.00    +0.000 C 
BRANCH  17  19
ATOM     18  O   UNL     1       8.133   6.898  18.752  0.00  0.00    +0.000 OA
ATOM     19  C   UNL     1       7.746   5.732  18.698  0.00  0.00    +0.000 C 
ATOM     20  N   UNL     1       7.751   4.919  19.801  0.00  0.00    +0.000 N 
ATOM     21  H   UNL     1       7.395   3.968  19.808  0.00  0.00    +0.000 HD
BRANCH  20  22
ATOM     22  O   UNL     1       8.156   5.488  21.026  0.00  0.00    +0.000 OA
ATOM     23  H   UNL     1       7.632   4.978  21.684  0.00  0.00    +0.000 HD
ENDBRANCH  20  22
ENDBRANCH  17  19
ENDBRANCH  15  17
ENDBRANCH   1  15
TORSDOF 6
ENDMDL
MODEL 4
REMARK VINA RESULT:      -7.5      1.833      3.346
REMARK  Name = 
REMARK  6 active torsions:
REMARK  status: ('A' for Active; 'I' for Inactive)
REMARK    1  A    between atoms: C_2  and  C_3
REMARK    2  A    between atoms: C_3  and  N_4
REMARK    3  A    between atoms: N_4  and  S_5
REMARK    4  A    between atoms: S_5  and  C_8
REMARK    5  A    between atoms: C_13  and  C_14
REMARK    6  A    between atoms: N_19  and  O_20
REMARK                            x       y       z     vdW  Elec       q    Type
REMARK                         _______ _______ _______ _____ _____    ______ ____
ROOT
ATOM      1  S   UNL     1       5.792   4.872  15.808  0.00  0.00    +0.000 S 
ATOM      2  O   UNL     1       5.502   6.021  14.979  0.00  0.00    +0.000 OA
ATOM      3  O   UNL     1       5.912   3.540  15.264  0.00  0.00    +0.000 OA
ENDROOT
BRANCH   1   4
ATOM      4  C   UNL     1       4.586   4.857  17.111  0.00  0.00    +0.000 A 
ATOM      5  C   UNL     1       3.855   6.008  17.392  0.00  0.00    +0.000 A 
ATOM      6  C   UNL     1       2.931   5.991  18.437  0.00  0.00    +0.000 A 
ATOM      7  C   UNL     1       2.728   4.831  19.200  0.00  0.00    +0.000 A 
ATOM      8 CL   UNL     1       1.548   4.941  20.454  0.00  0.00    +0.000 Cl
ATOM      9  C   UNL     1       3.458   3.667  18.930  0.00  0.00    +0.000 A 
ATOM     10  C   UNL     1       4.406   3.700  17.877  0.00  0.00    +0.000 A 
BRANCH   9  11
ATOM     11  C   UNL     1       3.299   2.364  19.675  0.00  0.00    +0.000 C 
ATOM     12  F   UNL     1       3.524   2.393  21.012  0.00  0.00    +0.000 F 
ATOM     13  F   UNL     1       2.035   1.867  19.530  0.00  0.00    +0.000 F 
ATOM     14  F   UNL     1       4.124   1.396  19.184  0.00  0.00    +0.000 F 
ENDBRANCH   9  11
ENDBRANCH   1   4
BRANCH   1  15
ATOM     15  N   UNL     1       7.232   5.237  16.617  0.00  0.00    +0.000 NA
ATOM     16  H   UNL     1       7.440   4.472  17.266  0.00  0.00    +0.000 HD
BRANCH  15  17
ATOM     17  C   UNL     1       7.318   6.600  17.196  0.00  0.00    +0.000 C 
BRANCH  17  19
ATOM     18  O   UNL     1       8.616   7.502  19.029  0.00  0.00    +0.000 OA
ATOM     19  C   UNL     1       7.900   6.600  18.598  0.00  0.00    +0.000 C 
ATOM     20  N   UNL     1       7.611   5.489  19.345  0.00  0.00    +0.000 N 
ATOM     21  H   UNL     1       6.986   4.748  19.045  0.00  0.00    +0.000 HD
BRANCH  20  22
ATOM     22  O   UNL     1       8.113   5.444  20.663  0.00  0.00    +0.000 OA
ATOM     23  H   UNL     1       7.532   6.081  21.137  0.00  0.00    +0.000 HD
ENDBRANCH  20  22
ENDBRANCH  17  19
ENDBRANCH  15  17
ENDBRANCH   1  15
TORSDOF 6
ENDMDL
MODEL 5
REMARK VINA RESULT:      -7.4      2.487      3.028
REMARK  Name = 
REMARK  6 active torsions:
REMARK  status: ('A' for Active; 'I' for Inactive)
REMARK    1  A    between atoms: C_2  and  C_3
REMARK    2  A    between atoms: C_3  and  N_4
REMARK    3  A    between atoms: N_4  and  S_5
REMARK    4  A    between atoms: S_5  and  C_8
REMARK    5  A    between atoms: C_13  and  C_14
REMARK    6  A    between atoms: N_19  and  O_20
REMARK                            x       y       z     vdW  Elec       q    Type
REMARK                         _______ _______ _______ _____ _____    ______ ____
ROOT
ATOM      1  S   UNL     1       7.358   5.298  17.679  0.00  0.00    +0.000 S 
ATOM      2  O   UNL     1       8.244   4.901  18.751  0.00  0.00    +0.000 OA
ATOM      3  O   UNL     1       7.510   6.550  16.978  0.00  0.00    +0.000 OA
ENDROOT
BRANCH   1   4
ATOM      4  C   UNL     1       5.702   5.184  18.306  0.00  0.00    +0.000 A 
ATOM      5  C   UNL     1       5.291   4.035  18.977  0.00  0.00    +0.000 A 
ATOM      6  C   UNL     1       3.979   3.947  19.440  0.00  0.00    +0.000 A 
ATOM      7  C   UNL     1       3.074   5.001  19.245  0.00  0.00    +0.000 A 
ATOM      8 CL   UNL     1       1.486   4.769  19.877  0.00  0.00    +0.000 Cl
ATOM      9  C   UNL     1       3.473   6.162  18.570  0.00  0.00    +0.000 A 
ATOM     10  C   UNL     1       4.803   6.235  18.090  0.00  0.00    +0.000 A 
BRANCH   9  11
ATOM     11  C   UNL     1       2.585   7.359  18.329  0.00  0.00    +0.000 C 
ATOM     12  F   UNL     1       3.136   8.403  17.660  0.00  0.00    +0.000 F 
ATOM     13  F   UNL     1       1.477   7.012  17.611  0.00  0.00    +0.000 F 
ATOM     14  F   UNL     1       2.109   7.880  19.496  0.00  0.00    +0.000 F 
ENDBRANCH   9  11
ENDBRANCH   1   4
BRANCH   1  15
ATOM     15  N   UNL     1       7.426   4.050  16.538  0.00  0.00    +0.000 NA
ATOM     16  H   UNL     1       8.374   4.020  16.151  0.00  0.00    +0.000 HD
BRANCH  15  17
ATOM     17  C   UNL     1       6.332   4.031  15.537  0.00  0.00    +0.000 C 
BRANCH  17  19
ATOM     18  O   UNL     1       6.437   3.846  13.126  0.00  0.00    +0.000 OA
ATOM     19  C   UNL     1       6.807   4.420  14.149  0.00  0.00    +0.000 C 
ATOM     20  N   UNL     1       7.726   5.435  14.114  0.00  0.00    +0.000 N 
ATOM     21  H   UNL     1       8.020   5.964  14.928  0.00  0.00    +0.000 HD
BRANCH  20  22
ATOM     22  O   UNL     1       8.190   5.848  12.847  0.00  0.00    +0.000 OA
ATOM     23  H   UNL     1       8.512   6.761  13.023  0.00  0.00    +0.000 HD
ENDBRANCH  20  22
ENDBRANCH  17  19
ENDBRANCH  15  17
ENDBRANCH   1  15
TORSDOF 6
ENDMDL
MODEL 6
REMARK VINA RESULT:      -7.3      1.771      2.287
REMARK  Name = 
REMARK  6 active torsions:
REMARK  status: ('A' for Active; 'I' for Inactive)
REMARK    1  A    between atoms: C_2  and  C_3
REMARK    2  A    between atoms: C_3  and  N_4
REMARK    3  A    between atoms: N_4  and  S_5
REMARK    4  A    between atoms: S_5  and  C_8
REMARK    5  A    between atoms: C_13  and  C_14
REMARK    6  A    between atoms: N_19  and  O_20
REMARK                            x       y       z     vdW  Elec       q    Type
REMARK                         _______ _______ _______ _____ _____    ______ ____
ROOT
ATOM      1  S   UNL     1       6.018   4.865  17.929  0.00  0.00    +0.000 S 
ATOM      2  O   UNL     1       6.851   4.581  19.076  0.00  0.00    +0.000 OA
ATOM      3  O   UNL     1       5.793   6.210  17.453  0.00  0.00    +0.000 OA
ENDROOT
BRANCH   1   4
ATOM      4  C   UNL     1       4.450   4.087  18.221  0.00  0.00    +0.000 A 
ATOM      5  C   UNL     1       3.935   3.192  17.286  0.00  0.00    +0.000 A 
ATOM      6  C   UNL     1       2.689   2.608  17.514  0.00  0.00    +0.000 A 
ATOM      7  C   UNL     1       1.955   2.907  18.672  0.00  0.00    +0.000 A 
ATOM      8 CL   UNL     1       0.435   2.109  18.837  0.00  0.00    +0.000 Cl
ATOM      9  C   UNL     1       2.460   3.807  19.619  0.00  0.00    +0.000 A 
ATOM     10  C   UNL     1       3.719   4.406  19.370  0.00  0.00    +0.000 A 
BRANCH   9  11
ATOM     11  C   UNL     1       1.761   4.177  20.905  0.00  0.00    +0.000 C 
ATOM     12  F   UNL     1       1.536   3.173  21.790  0.00  0.00    +0.000 F 
ATOM     13  F   UNL     1       2.471   5.118  21.596  0.00  0.00    +0.000 F 
ATOM     14  F   UNL     1       0.543   4.744  20.675  0.00  0.00    +0.000 F 
ENDBRANCH   9  11
ENDBRANCH   1   4
BRANCH   1  15
ATOM     15  N   UNL     1       6.667   3.963  16.653  0.00  0.00    +0.000 NA
ATOM     16  H   UNL     1       7.672   4.154  16.603  0.00  0.00    +0.000 HD
BRANCH  15  17
ATOM     17  C   UNL     1       5.939   4.053  15.364  0.00  0.00    +0.000 C 
BRANCH  17  19
ATOM     18  O   UNL     1       6.718   4.124  13.073  0.00  0.00    +0.000 OA
ATOM     19  C   UNL     1       6.825   4.532  14.228  0.00  0.00    +0.000 C 
ATOM     20  N   UNL     1       7.800   5.424  14.590  0.00  0.00    +0.000 N 
ATOM     21  H   UNL     1       7.891   5.821  15.520  0.00  0.00    +0.000 HD
BRANCH  20  22
ATOM     22  O   UNL     1       8.642   5.915  13.571  0.00  0.00    +0.000 OA
ATOM     23  H   UNL     1       8.212   6.765  13.326  0.00  0.00    +0.000 HD
ENDBRANCH  20  22
ENDBRANCH  17  19
ENDBRANCH  15  17
ENDBRANCH   1  15
TORSDOF 6
ENDMDL
MODEL 7
REMARK VINA RESULT:      -7.3      1.706      1.911
REMARK  Name = 
REMARK  6 active torsions:
REMARK  status: ('A' for Active; 'I' for Inactive)
REMARK    1  A    between atoms: C_2  and  C_3
REMARK    2  A    between atoms: C_3  and  N_4
REMARK    3  A    between atoms: N_4  and  S_5
REMARK    4  A    between atoms: S_5  and  C_8
REMARK    5  A    between atoms: C_13  and  C_14
REMARK    6  A    between atoms: N_19  and  O_20
REMARK                            x       y       z     vdW  Elec       q    Type
REMARK                         _______ _______ _______ _____ _____    ______ ____
ROOT
ATOM      1  S   UNL     1       5.417   5.666  16.073  0.00  0.00    +0.000 S 
ATOM      2  O   UNL     1       6.690   5.323  16.667  0.00  0.00    +0.000 OA
ATOM      3  O   UNL     1       5.180   6.945  15.446  0.00  0.00    +0.000 OA
ENDROOT
BRANCH   1   4
ATOM      4  C   UNL     1       4.177   5.392  17.313  0.00  0.00    +0.000 A 
ATOM      5  C   UNL     1       3.841   6.415  18.196  0.00  0.00    +0.000 A 
ATOM      6  C   UNL     1       2.885   6.178  19.183  0.00  0.00    +0.000 A 
ATOM      7  C   UNL     1       2.257   4.928  19.292  0.00  0.00    +0.000 A 
ATOM      8 CL   UNL     1       1.085   4.771  20.548  0.00  0.00    +0.000 Cl
ATOM      9  C   UNL     1       2.586   3.890  18.412  0.00  0.00    +0.000 A 
ATOM     10  C   UNL     1       3.570   4.136  17.423  0.00  0.00    +0.000 A 
BRANCH   9  11
ATOM     11  C   UNL     1       1.954   2.519  18.430  0.00  0.00    +0.000 C 
ATOM     12  F   UNL     1       2.191   1.751  19.523  0.00  0.00    +0.000 F 
ATOM     13  F   UNL     1       0.595   2.604  18.333  0.00  0.00    +0.000 F 
ATOM     14  F   UNL     1       2.344   1.767  17.362  0.00  0.00    +0.000 F 
ENDBRANCH   9  11
ENDBRANCH   1   4
BRANCH   1  15
ATOM     15  N   UNL     1       5.099   4.458  14.932  0.00  0.00    +0.000 NA
ATOM     16  H   UNL     1       4.324   3.885  15.279  0.00  0.00    +0.000 HD
BRANCH  15  17
ATOM     17  C   UNL     1       6.279   3.703  14.447  0.00  0.00    +0.000 C 
BRANCH  17  19
ATOM     18  O   UNL     1       6.929   4.044  12.141  0.00  0.00    +0.000 OA
ATOM     19  C   UNL     1       6.996   4.411  13.312  0.00  0.00    +0.000 C 
ATOM     20  N   UNL     1       7.775   5.472  13.692  0.00  0.00    +0.000 N 
ATOM     21  H   UNL     1       7.820   5.835  14.639  0.00  0.00    +0.000 HD
BRANCH  20  22
ATOM     22  O   UNL     1       8.453   6.178  12.676  0.00  0.00    +0.000 OA
ATOM     23  H   UNL     1       7.854   6.940  12.507  0.00  0.00    +0.000 HD
ENDBRANCH  20  22
ENDBRANCH  17  19
ENDBRANCH  15  17
ENDBRANCH   1  15
TORSDOF 6
ENDMDL
MODEL 8
REMARK VINA RESULT:      -7.3      1.981      2.387
REMARK  Name = 
REMARK  6 active torsions:
REMARK  status: ('A' for Active; 'I' for Inactive)
REMARK    1  A    between atoms: C_2  and  C_3
REMARK    2  A    between atoms: C_3  and  N_4
REMARK    3  A    between atoms: N_4  and  S_5
REMARK    4  A    between atoms: S_5  and  C_8
REMARK    5  A    between atoms: C_13  and  C_14
REMARK    6  A    between atoms: N_19  and  O_20
REMARK                            x       y       z     vdW  Elec       q    Type
REMARK                         _______ _______ _______ _____ _____    ______ ____
ROOT
ATOM      1  S   UNL     1       6.067   5.034  18.194  0.00  0.00    +0.000 S 
ATOM      2  O   UNL     1       6.795   4.830  19.427  0.00  0.00    +0.000 OA
ATOM      3  O   UNL     1       5.846   6.348  17.638  0.00  0.00    +0.000 OA
ENDROOT
BRANCH   1   4
ATOM      4  C   UNL     1       4.505   4.211  18.372  0.00  0.00    +0.000 A 
ATOM      5  C   UNL     1       4.041   3.377  17.358  0.00  0.00    +0.000 A 
ATOM      6  C   UNL     1       2.799   2.758  17.497  0.00  0.00    +0.000 A 
ATOM      7  C   UNL     1       2.017   2.962  18.645  0.00  0.00    +0.000 A 
ATOM      8 CL   UNL     1       0.508   2.130  18.697  0.00  0.00    +0.000 Cl
ATOM      9  C   UNL     1       2.471   3.801  19.671  0.00  0.00    +0.000 A 
ATOM     10  C   UNL     1       3.726   4.437  19.512  0.00  0.00    +0.000 A 
BRANCH   9  11
ATOM     11  C   UNL     1       1.719   4.068  20.953  0.00  0.00    +0.000 C 
ATOM     12  F   UNL     1       2.295   4.926  21.832  0.00  0.00    +0.000 F 
ATOM     13  F   UNL     1       0.481   4.586  20.697  0.00  0.00    +0.000 F 
ATOM     14  F   UNL     1       1.491   2.921  21.654  0.00  0.00    +0.000 F 
ENDBRANCH   9  11
ENDBRANCH   1   4
BRANCH   1  15
ATOM     15  N   UNL     1       6.865   4.102  17.028  0.00  0.00    +0.000 NA
ATOM     16  H   UNL     1       7.637   3.608  17.485  0.00  0.00    +0.000 HD
BRANCH  15  17
ATOM     17  C   UNL     1       7.219   4.807  15.772  0.00  0.00    +0.000 C 
BRANCH  17  19
ATOM     18  O   UNL     1       5.162   5.026  14.515  0.00  0.00    +0.000 OA
ATOM     19  C   UNL     1       6.261   4.489  14.638  0.00  0.00    +0.000 C 
ATOM     20  N   UNL     1       6.688   3.514  13.775  0.00  0.00    +0.000 N 
ATOM     21  H   UNL     1       7.605   3.082  13.814  0.00  0.00    +0.000 HD
BRANCH  20  22
ATOM     22  O   UNL     1       5.844   3.191  12.692  0.00  0.00    +0.000 OA
ATOM     23  H   UNL     1       6.274   2.390  12.315  0.00  0.00    +0.000 HD
ENDBRANCH  20  22
ENDBRANCH  17  19
ENDBRANCH  15  17
ENDBRANCH   1  15
TORSDOF 6
ENDMDL
MODEL 9
REMARK VINA RESULT:      -7.3      2.015      2.511
REMARK  Name = 
REMARK  6 active torsions:
REMARK  status: ('A' for Active; 'I' for Inactive)
REMARK    1  A    between atoms: C_2  and  C_3
REMARK    2  A    between atoms: C_3  and  N_4
REMARK    3  A    between atoms: N_4  and  S_5
REMARK    4  A    between atoms: S_5  and  C_8
REMARK    5  A    between atoms: C_13  and  C_14
REMARK    6  A    between atoms: N_19  and  O_20
REMARK                            x       y       z     vdW  Elec       q    Type
REMARK                         _______ _______ _______ _____ _____    ______ ____
ROOT
ATOM      1  S   UNL     1       6.130   5.069  17.940  0.00  0.00    +0.000 S 
ATOM      2  O   UNL     1       6.927   4.860  19.128  0.00  0.00    +0.000 OA
ATOM      3  O   UNL     1       5.896   6.383  17.390  0.00  0.00    +0.000 OA
ENDROOT
BRANCH   1   4
ATOM      4  C   UNL     1       4.568   4.273  18.218  0.00  0.00    +0.000 A 
ATOM      5  C   UNL     1       4.147   3.255  17.365  0.00  0.00    +0.000 A 
ATOM      6  C   UNL     1       2.906   2.657  17.578  0.00  0.00    +0.000 A 
ATOM      7  C   UNL     1       2.082   3.064  18.638  0.00  0.00    +0.000 A 
ATOM      8 CL   UNL     1       0.577   2.235  18.796  0.00  0.00    +0.000 Cl
ATOM      9  C   UNL     1       2.491   4.088  19.501  0.00  0.00    +0.000 A 
ATOM     10  C   UNL     1       3.747   4.700  19.267  0.00  0.00    +0.000 A 
BRANCH   9  11
ATOM     11  C   UNL     1       1.692   4.583  20.682  0.00  0.00    +0.000 C 
ATOM     12  F   UNL     1       0.342   4.487  20.590  0.00  0.00    +0.000 F 
ATOM     13  F   UNL     1       2.027   3.906  21.820  0.00  0.00    +0.000 F 
ATOM     14  F   UNL     1       1.950   5.894  20.955  0.00  0.00    +0.000 F 
ENDBRANCH   9  11
ENDBRANCH   1   4
BRANCH   1  15
ATOM     15  N   UNL     1       6.840   4.118  16.734  0.00  0.00    +0.000 NA
ATOM     16  H   UNL     1       7.667   3.660  17.131  0.00  0.00    +0.000 HD
BRANCH  15  17
ATOM     17  C   UNL     1       7.051   4.786  15.427  0.00  0.00    +0.000 C 
BRANCH  17  19
ATOM     18  O   UNL     1       4.928   4.506  14.300  0.00  0.00    +0.000 OA
ATOM     19  C   UNL     1       6.130   4.252  14.346  0.00  0.00    +0.000 C 
ATOM     20  N   UNL     1       6.726   3.416  13.438  0.00  0.00    +0.000 N 
ATOM     21  H   UNL     1       7.721   3.220  13.413  0.00  0.00    +0.000 HD
BRANCH  20  22
ATOM     22  O   UNL     1       5.920   2.903  12.400  0.00  0.00    +0.000 OA
ATOM     23  H   UNL     1       5.096   2.649  12.873  0.00  0.00    +0.000 HD
ENDBRANCH  20  22
ENDBRANCH  17  19
ENDBRANCH  15  17
ENDBRANCH   1  15
TORSDOF 6
ENDMDL
