MODEL 1
REMARK VINA RESULT:      -8.5      0.000      0.000
REMARK  Name = 
REMARK  5 active torsions:
REMARK  status: ('A' for Active; 'I' for Inactive)
REMARK    1  A    between atoms: C_1  and  C_2
REMARK    2  A    between atoms: C_2  and  N_3
REMARK    3  A    between atoms: C_2  and  C_18
REMARK    4  A    between atoms: C_4  and  C_6
REMARK    5  A    between atoms: C_8  and  C_9
REMARK                            x       y       z     vdW  Elec       q    Type
REMARK                         _______ _______ _______ _____ _____    ______ ____
ROOT
ATOM      1  N   UNL     1       5.708   5.234  18.323  0.00  0.00    +0.000 N 
ATOM      2  C   UNL     1       7.056   5.399  18.104  0.00  0.00    +0.000 C 
ATOM      3  O   UNL     1       7.853   4.468  18.051  0.00  0.00    +0.000 OA
ATOM      4  H   UNL     1       5.146   6.076  18.295  0.00  0.00    +0.000 HD
ENDROOT
BRANCH   2   5
ATOM      5  C   UNL     1       7.468   6.793  17.933  0.00  0.00    +0.000 A 
ATOM      6  C   UNL     1       8.239   7.568  18.834  0.00  0.00    +0.000 A 
ATOM      7  C   UNL     1       8.342   8.806  18.250  0.00  0.00    +0.000 A 
ATOM      8  O   UNL     1       7.681   8.777  17.055  0.00  0.00    +0.000 OA
ATOM      9  N   UNL     1       7.135   7.519  16.850  0.00  0.00    +0.000 NA
BRANCH   7  10
ATOM     10  C   UNL     1       8.961  10.071  18.636  0.00  0.00    +0.000 A 
ATOM     11  C   UNL     1       9.568  10.195  19.898  0.00  0.00    +0.000 A 
ATOM     12  C   UNL     1      10.132  11.405  20.311  0.00  0.00    +0.000 A 
ATOM     13  C   UNL     1      10.099  12.508  19.463  0.00  0.00    +0.000 A 
ATOM     14 BR   UNL     1      10.833  14.151  20.036  0.00  0.00    +0.000 Br
ATOM     15  C   UNL     1       9.519  12.405  18.201  0.00  0.00    +0.000 A 
ATOM     16  C   UNL     1       8.955  11.191  17.790  0.00  0.00    +0.000 A 
ENDBRANCH   7  10
ENDBRANCH   2   5
BRANCH   1  18
ATOM     17  C   UNL     1       4.447   3.483  17.134  0.00  0.00    +0.000 C 
ATOM     18  C   UNL     1       5.085   3.932  18.451  0.00  0.00    +0.000 C 
BRANCH  18  19
ATOM     19  C   UNL     1       4.032   3.900  19.545  0.00  0.00    +0.000 A 
ATOM     20  C   UNL     1       3.751   2.683  20.190  0.00  0.00    +0.000 A 
ATOM     21  C   UNL     1       2.706   2.587  21.109  0.00  0.00    +0.000 A 
ATOM     22  C   UNL     1       1.936   3.707  21.408  0.00  0.00    +0.000 A 
ATOM     23  C   UNL     1       2.212   4.926  20.794  0.00  0.00    +0.000 A 
ATOM     24  C   UNL     1       3.248   5.021  19.862  0.00  0.00    +0.000 A 
ENDBRANCH  18  19
ENDBRANCH   1  18
TORSDOF 4
ENDMDL
MODEL 2
REMARK VINA RESULT:      -8.5      0.778      1.233
REMARK  Name = 
REMARK  5 active torsions:
REMARK  status: ('A' for Active; 'I' for Inactive)
REMARK    1  A    between atoms: C_1  and  C_2
REMARK    2  A    between atoms: C_2  and  N_3
REMARK    3  A    between atoms: C_2  and  C_18
REMARK    4  A    between atoms: C_4  and  C_6
REMARK    5  A    between atoms: C_8  and  C_9
REMARK                            x       y       z     vdW  Elec       q    Type
REMARK                         _______ _______ _______ _____ _____    ______ ____
ROOT
ATOM      1  N   UNL     1       5.598   5.342  18.159  0.00  0.00    +0.000 N 
ATOM      2  C   UNL     1       6.965   5.476  18.084  0.00  0.00    +0.000 C 
ATOM      3  O   UNL     1       7.742   4.528  18.118  0.00  0.00    +0.000 OA
ATOM      4  H   UNL     1       5.060   6.196  18.070  0.00  0.00    +0.000 HD
ENDROOT
BRANCH   2   5
ATOM      5  C   UNL     1       7.423   6.860  17.954  0.00  0.00    +0.000 A 
ATOM      6  C   UNL     1       8.298   7.551  18.827  0.00  0.00    +0.000 A 
ATOM      7  C   UNL     1       8.409   8.815  18.302  0.00  0.00    +0.000 A 
ATOM      8  O   UNL     1       7.652   8.880  17.167  0.00  0.00    +0.000 OA
ATOM      9  N   UNL     1       7.036   7.659  16.942  0.00  0.00    +0.000 NA
BRANCH   7  10
ATOM     10  C   UNL     1       9.113  10.030  18.702  0.00  0.00    +0.000 A 
ATOM     11  C   UNL     1       9.630  10.893  17.721  0.00  0.00    +0.000 A 
ATOM     12  C   UNL     1      10.345  12.041  18.074  0.00  0.00    +0.000 A 
ATOM     13  C   UNL     1      10.550  12.341  19.417  0.00  0.00    +0.000 A 
ATOM     14 BR   UNL     1      11.544  13.876  19.893  0.00  0.00    +0.000 Br
ATOM     15  C   UNL     1      10.033  11.511  20.408  0.00  0.00    +0.000 A 
ATOM     16  C   UNL     1       9.317  10.362  20.051  0.00  0.00    +0.000 A 
ENDBRANCH   7  10
ENDBRANCH   2   5
BRANCH   1  18
ATOM     17  C   UNL     1       4.632   3.508  16.827  0.00  0.00    +0.000 C 
ATOM     18  C   UNL     1       4.936   4.054  18.224  0.00  0.00    +0.000 C 
BRANCH  18  19
ATOM     19  C   UNL     1       3.645   4.107  19.024  0.00  0.00    +0.000 A 
ATOM     20  C   UNL     1       2.658   3.133  18.796  0.00  0.00    +0.000 A 
ATOM     21  C   UNL     1       1.413   3.221  19.419  0.00  0.00    +0.000 A 
ATOM     22  C   UNL     1       1.140   4.273  20.288  0.00  0.00    +0.000 A 
ATOM     23  C   UNL     1       2.114   5.235  20.542  0.00  0.00    +0.000 A 
ATOM     24  C   UNL     1       3.356   5.159  19.909  0.00  0.00    +0.000 A 
ENDBRANCH  18  19
ENDBRANCH   1  18
TORSDOF 4
ENDMDL
MODEL 3
REMARK VINA RESULT:      -8.4      0.197      1.024
REMARK  Name = 
REMARK  5 active torsions:
REMARK  status: ('A' for Active; 'I' for Inactive)
REMARK    1  A    between atoms: C_1  and  C_2
REMARK    2  A    between atoms: C_2  and  N_3
REMARK    3  A    between atoms: C_2  and  C_18
REMARK    4  A    between atoms: C_4  and  C_6
REMARK    5  A    between atoms: C_8  and  C_9
REMARK                            x       y       z     vdW  Elec       q    Type
REMARK                         _______ _______ _______ _____ _____    ______ ____
ROOT
ATOM      1  N   UNL     1       5.706   5.263  18.130  0.00  0.00    +0.000 N 
ATOM      2  C   UNL     1       7.069   5.448  18.144  0.00  0.00    +0.000 C 
ATOM      3  O   UNL     1       7.876   4.533  18.275  0.00  0.00    +0.000 OA
ATOM      4  H   UNL     1       5.146   6.091  17.965  0.00  0.00    +0.000 HD
ENDROOT
BRANCH   2   5
ATOM      5  C   UNL     1       7.485   6.842  17.982  0.00  0.00    +0.000 A 
ATOM      6  C   UNL     1       8.301   7.593  18.864  0.00  0.00    +0.000 A 
ATOM      7  C   UNL     1       8.389   8.842  18.299  0.00  0.00    +0.000 A 
ATOM      8  O   UNL     1       7.677   8.841  17.134  0.00  0.00    +0.000 OA
ATOM      9  N   UNL     1       7.112   7.591  16.928  0.00  0.00    +0.000 NA
BRANCH   7  10
ATOM     10  C   UNL     1       9.036  10.093  18.683  0.00  0.00    +0.000 A 
ATOM     11  C   UNL     1       9.527  10.254  19.990  0.00  0.00    +0.000 A 
ATOM     12  C   UNL     1      10.113  11.456  20.397  0.00  0.00    +0.000 A 
ATOM     13  C   UNL     1      10.218  12.513  19.499  0.00  0.00    +0.000 A 
ATOM     14 BR   UNL     1      10.982  14.147  20.060  0.00  0.00    +0.000 Br
ATOM     15  C   UNL     1       9.754  12.372  18.193  0.00  0.00    +0.000 A 
ATOM     16  C   UNL     1       9.167  11.167  17.788  0.00  0.00    +0.000 A 
ENDBRANCH   7  10
ENDBRANCH   2   5
BRANCH   1  18
ATOM     17  C   UNL     1       4.511   3.525  16.857  0.00  0.00    +0.000 C 
ATOM     18  C   UNL     1       5.088   3.955  18.208  0.00  0.00    +0.000 C 
BRANCH  18  19
ATOM     19  C   UNL     1       3.988   3.896  19.255  0.00  0.00    +0.000 A 
ATOM     20  C   UNL     1       3.241   5.054  19.529  0.00  0.00    +0.000 A 
ATOM     21  C   UNL     1       2.310   5.073  20.568  0.00  0.00    +0.000 A 
ATOM     22  C   UNL     1       2.103   3.933  21.340  0.00  0.00    +0.000 A 
ATOM     23  C   UNL     1       2.820   2.770  21.069  0.00  0.00    +0.000 A 
ATOM     24  C   UNL     1       3.763   2.753  20.040  0.00  0.00    +0.000 A 
ENDBRANCH  18  19
ENDBRANCH   1  18
TORSDOF 4
ENDMDL
MODEL 4
REMARK VINA RESULT:      -8.3      1.531      2.142
REMARK  Name = 
REMARK  5 active torsions:
REMARK  status: ('A' for Active; 'I' for Inactive)
REMARK    1  A    between atoms: C_1  and  C_2
REMARK    2  A    between atoms: C_2  and  N_3
REMARK    3  A    between atoms: C_2  and  C_18
REMARK    4  A    between atoms: C_4  and  C_6
REMARK    5  A    between atoms: C_8  and  C_9
REMARK                            x       y       z     vdW  Elec       q    Type
REMARK                         _______ _______ _______ _____ _____    ______ ____
ROOT
ATOM      1  N   UNL     1       6.252   5.404  17.064  0.00  0.00    +0.000 N 
ATOM      2  C   UNL     1       7.208   5.755  17.988  0.00  0.00    +0.000 C 
ATOM      3  O   UNL     1       7.698   4.966  18.790  0.00  0.00    +0.000 OA
ATOM      4  H   UNL     1       5.962   6.134  16.423  0.00  0.00    +0.000 HD
ENDROOT
BRANCH   2   5
ATOM      5  C   UNL     1       7.602   7.164  17.935  0.00  0.00    +0.000 A 
ATOM      6  C   UNL     1       8.523   7.822  18.788  0.00  0.00    +0.000 A 
ATOM      7  C   UNL     1       8.541   9.127  18.361  0.00  0.00    +0.000 A 
ATOM      8  O   UNL     1       7.688   9.248  17.301  0.00  0.00    +0.000 OA
ATOM      9  N   UNL     1       7.101   8.022  17.028  0.00  0.00    +0.000 NA
BRANCH   7  10
ATOM     10  C   UNL     1       9.232  10.335  18.801  0.00  0.00    +0.000 A 
ATOM     11  C   UNL     1       9.707  11.254  17.849  0.00  0.00    +0.000 A 
ATOM     12  C   UNL     1      10.408  12.399  18.238  0.00  0.00    +0.000 A 
ATOM     13  C   UNL     1      10.641  12.640  19.588  0.00  0.00    +0.000 A 
ATOM     14 BR   UNL     1      11.617  14.171  20.111  0.00  0.00    +0.000 Br
ATOM     15  C   UNL     1      10.167  11.753  20.551  0.00  0.00    +0.000 A 
ATOM     16  C   UNL     1       9.465  10.608  20.158  0.00  0.00    +0.000 A 
ENDBRANCH   7  10
ENDBRANCH   2   5
BRANCH   1  18
ATOM     17  C   UNL     1       5.970   3.546  15.471  0.00  0.00    +0.000 C 
ATOM     18  C   UNL     1       5.772   4.046  16.904  0.00  0.00    +0.000 C 
BRANCH  18  19
ATOM     19  C   UNL     1       4.307   3.902  17.278  0.00  0.00    +0.000 A 
ATOM     20  C   UNL     1       3.536   5.059  17.485  0.00  0.00    +0.000 A 
ATOM     21  C   UNL     1       2.224   4.967  17.950  0.00  0.00    +0.000 A 
ATOM     22  C   UNL     1       1.659   3.721  18.204  0.00  0.00    +0.000 A 
ATOM     23  C   UNL     1       2.402   2.564  17.986  0.00  0.00    +0.000 A 
ATOM     24  C   UNL     1       3.720   2.652  17.534  0.00  0.00    +0.000 A 
ENDBRANCH  18  19
ENDBRANCH   1  18
TORSDOF 4
ENDMDL
MODEL 5
REMARK VINA RESULT:      -8.3      1.572      1.650
REMARK  Name = 
REMARK  5 active torsions:
REMARK  status: ('A' for Active; 'I' for Inactive)
REMARK    1  A    between atoms: C_1  and  C_2
REMARK    2  A    between atoms: C_2  and  N_3
REMARK    3  A    between atoms: C_2  and  C_18
REMARK    4  A    between atoms: C_4  and  C_6
REMARK    5  A    between atoms: C_8  and  C_9
REMARK                            x       y       z     vdW  Elec       q    Type
REMARK                         _______ _______ _______ _____ _____    ______ ____
ROOT
ATOM      1  N   UNL     1       6.209   5.436  16.999  0.00  0.00    +0.000 N 
ATOM      2  C   UNL     1       7.098   5.808  17.980  0.00  0.00    +0.000 C 
ATOM      3  O   UNL     1       7.504   5.047  18.852  0.00  0.00    +0.000 OA
ATOM      4  H   UNL     1       5.988   6.141  16.306  0.00  0.00    +0.000 HD
ENDROOT
BRANCH   2   5
ATOM      5  C   UNL     1       7.528   7.205  17.897  0.00  0.00    +0.000 A 
ATOM      6  C   UNL     1       8.476   7.853  18.727  0.00  0.00    +0.000 A 
ATOM      7  C   UNL     1       8.525   9.149  18.277  0.00  0.00    +0.000 A 
ATOM      8  O   UNL     1       7.663   9.274  17.225  0.00  0.00    +0.000 OA
ATOM      9  N   UNL     1       7.040   8.060  16.980  0.00  0.00    +0.000 NA
BRANCH   7  10
ATOM     10  C   UNL     1       9.253  10.346  18.686  0.00  0.00    +0.000 A 
ATOM     11  C   UNL     1       9.342  10.679  20.049  0.00  0.00    +0.000 A 
ATOM     12  C   UNL     1       9.996  11.841  20.467  0.00  0.00    +0.000 A 
ATOM     13  C   UNL     1      10.575  12.685  19.524  0.00  0.00    +0.000 A 
ATOM     14 BR   UNL     1      11.432  14.271  20.088  0.00  0.00    +0.000 Br
ATOM     15  C   UNL     1      10.515  12.369  18.169  0.00  0.00    +0.000 A 
ATOM     16  C   UNL     1       9.859  11.204  17.754  0.00  0.00    +0.000 A 
ENDBRANCH   7  10
ENDBRANCH   2   5
BRANCH   1  18
ATOM     17  C   UNL     1       5.775   3.606  15.407  0.00  0.00    +0.000 C 
ATOM     18  C   UNL     1       5.711   4.082  16.861  0.00  0.00    +0.000 C 
BRANCH  18  19
ATOM     19  C   UNL     1       4.286   3.935  17.366  0.00  0.00    +0.000 A 
ATOM     20  C   UNL     1       3.738   2.649  17.504  0.00  0.00    +0.000 A 
ATOM     21  C   UNL     1       2.395   2.479  17.844  0.00  0.00    +0.000 A 
ATOM     22  C   UNL     1       1.585   3.589  18.063  0.00  0.00    +0.000 A 
ATOM     23  C   UNL     1       2.116   4.871  17.951  0.00  0.00    +0.000 A 
ATOM     24  C   UNL     1       3.456   5.045  17.596  0.00  0.00    +0.000 A 
ENDBRANCH  18  19
ENDBRANCH   1  18
TORSDOF 4
ENDMDL
MODEL 6
REMARK VINA RESULT:      -8.3      0.245      1.440
REMARK  Name = 
REMARK  5 active torsions:
REMARK  status: ('A' for Active; 'I' for Inactive)
REMARK    1  A    between atoms: C_1  and  C_2
REMARK    2  A    between atoms: C_2  and  N_3
REMARK    3  A    between atoms: C_2  and  C_18
REMARK    4  A    between atoms: C_4  and  C_6
REMARK    5  A    between atoms: C_8  and  C_9
REMARK                            x       y       z     vdW  Elec       q    Type
REMARK                         _______ _______ _______ _____ _____    ______ ____
ROOT
ATOM      1  N   UNL     1       5.753   5.080  18.177  0.00  0.00    +0.000 N 
ATOM      2  C   UNL     1       7.114   5.272  18.229  0.00  0.00    +0.000 C 
ATOM      3  O   UNL     1       7.919   4.367  18.424  0.00  0.00    +0.000 OA
ATOM      4  H   UNL     1       5.195   5.897  17.959  0.00  0.00    +0.000 HD
ENDROOT
BRANCH   2   5
ATOM      5  C   UNL     1       7.530   6.661  18.025  0.00  0.00    +0.000 A 
ATOM      6  C   UNL     1       8.292   7.458  18.914  0.00  0.00    +0.000 A 
ATOM      7  C   UNL     1       8.404   8.680  18.298  0.00  0.00    +0.000 A 
ATOM      8  O   UNL     1       7.756   8.620  17.096  0.00  0.00    +0.000 OA
ATOM      9  N   UNL     1       7.210   7.357  16.919  0.00  0.00    +0.000 NA
BRANCH   7  10
ATOM     10  C   UNL     1       9.021   9.953  18.657  0.00  0.00    +0.000 A 
ATOM     11  C   UNL     1       9.123  10.976  17.698  0.00  0.00    +0.000 A 
ATOM     12  C   UNL     1       9.746  12.190  18.001  0.00  0.00    +0.000 A 
ATOM     13  C   UNL     1      10.274  12.397  19.272  0.00  0.00    +0.000 A 
ATOM     14 BR   UNL     1      11.144  14.025  19.670  0.00  0.00    +0.000 Br
ATOM     15  C   UNL     1      10.170  11.406  20.244  0.00  0.00    +0.000 A 
ATOM     16  C   UNL     1       9.545  10.191  19.937  0.00  0.00    +0.000 A 
ENDBRANCH   7  10
ENDBRANCH   2   5
BRANCH   1  18
ATOM     17  C   UNL     1       4.577   3.301  16.943  0.00  0.00    +0.000 C 
ATOM     18  C   UNL     1       5.137   3.773  18.287  0.00  0.00    +0.000 C 
BRANCH  18  19
ATOM     19  C   UNL     1       4.027   3.741  19.323  0.00  0.00    +0.000 A 
ATOM     20  C   UNL     1       3.329   4.925  19.615  0.00  0.00    +0.000 A 
ATOM     21  C   UNL     1       2.390   4.964  20.646  0.00  0.00    +0.000 A 
ATOM     22  C   UNL     1       2.126   3.819  21.392  0.00  0.00    +0.000 A 
ATOM     23  C   UNL     1       2.793   2.631  21.103  0.00  0.00    +0.000 A 
ATOM     24  C   UNL     1       3.743   2.593  20.081  0.00  0.00    +0.000 A 
ENDBRANCH  18  19
ENDBRANCH   1  18
TORSDOF 4
ENDMDL
MODEL 7
REMARK VINA RESULT:      -8.2      0.950      1.048
REMARK  Name = 
REMARK  5 active torsions:
REMARK  status: ('A' for Active; 'I' for Inactive)
REMARK    1  A    between atoms: C_1  and  C_2
REMARK    2  A    between atoms: C_2  and  N_3
REMARK    3  A    between atoms: C_2  and  C_18
REMARK    4  A    between atoms: C_4  and  C_6
REMARK    5  A    between atoms: C_8  and  C_9
REMARK                            x       y       z     vdW  Elec       q    Type
REMARK                         _______ _______ _______ _____ _____    ______ ____
ROOT
ATOM      1  N   UNL     1       5.693   5.334  17.824  0.00  0.00    +0.000 N 
ATOM      2  C   UNL     1       7.054   5.528  17.871  0.00  0.00    +0.000 C 
ATOM      3  O   UNL     1       7.867   4.613  17.937  0.00  0.00    +0.000 OA
ATOM      4  H   UNL     1       5.127   6.168  17.720  0.00  0.00    +0.000 HD
ENDROOT
BRANCH   2   5
ATOM      5  C   UNL     1       7.458   6.935  17.832  0.00  0.00    +0.000 A 
ATOM      6  C   UNL     1       8.372   7.581  18.700  0.00  0.00    +0.000 A 
ATOM      7  C   UNL     1       8.405   8.888  18.282  0.00  0.00    +0.000 A 
ATOM      8  O   UNL     1       7.568   9.021  17.210  0.00  0.00    +0.000 OA
ATOM      9  N   UNL     1       6.976   7.801  16.922  0.00  0.00    +0.000 NA
BRANCH   7  10
ATOM     10  C   UNL     1       9.099  10.090  18.737  0.00  0.00    +0.000 A 
ATOM     11  C   UNL     1       9.183  10.370  20.112  0.00  0.00    +0.000 A 
ATOM     12  C   UNL     1       9.803  11.533  20.575  0.00  0.00    +0.000 A 
ATOM     13  C   UNL     1      10.352  12.431  19.666  0.00  0.00    +0.000 A 
ATOM     14 BR   UNL     1      11.163  14.019  20.291  0.00  0.00    +0.000 Br
ATOM     15  C   UNL     1      10.297  12.169  18.299  0.00  0.00    +0.000 A 
ATOM     16  C   UNL     1       9.674  11.002  17.839  0.00  0.00    +0.000 A 
ENDBRANCH   7  10
ENDBRANCH   2   5
BRANCH   1  18
ATOM     17  C   UNL     1       4.896   3.531  16.346  0.00  0.00    +0.000 C 
ATOM     18  C   UNL     1       5.086   4.019  17.785  0.00  0.00    +0.000 C 
BRANCH  18  19
ATOM     19  C   UNL     1       3.747   3.977  18.501  0.00  0.00    +0.000 A 
ATOM     20  C   UNL     1       2.679   3.277  17.915  0.00  0.00    +0.000 A 
ATOM     21  C   UNL     1       1.403   3.320  18.479  0.00  0.00    +0.000 A 
ATOM     22  C   UNL     1       1.179   4.052  19.642  0.00  0.00    +0.000 A 
ATOM     23  C   UNL     1       2.230   4.736  20.247  0.00  0.00    +0.000 A 
ATOM     24  C   UNL     1       3.505   4.707  19.677  0.00  0.00    +0.000 A 
ENDBRANCH  18  19
ENDBRANCH   1  18
TORSDOF 4
ENDMDL
MODEL 8
REMARK VINA RESULT:      -7.8      1.761      2.097
REMARK  Name = 
REMARK  5 active torsions:
REMARK  status: ('A' for Active; 'I' for Inactive)
REMARK    1  A    between atoms: C_1  and  C_2
REMARK    2  A    between atoms: C_2  and  N_3
REMARK    3  A    between atoms: C_2  and  C_18
REMARK    4  A    between atoms: C_4  and  C_6
REMARK    5  A    between atoms: C_8  and  C_9
REMARK                            x       y       z     vdW  Elec       q    Type
REMARK                         _______ _______ _______ _____ _____    ______ ____
ROOT
ATOM      1  N   UNL     1       5.971   5.128  17.308  0.00  0.00    +0.000 N 
ATOM      2  C   UNL     1       7.038   5.769  16.722  0.00  0.00    +0.000 C 
ATOM      3  O   UNL     1       7.458   5.499  15.602  0.00  0.00    +0.000 OA
ATOM      4  H   UNL     1       5.687   5.475  18.217  0.00  0.00    +0.000 HD
ENDROOT
BRANCH   2   5
ATOM      5  C   UNL     1       7.636   6.815  17.553  0.00  0.00    +0.000 A 
ATOM      6  C   UNL     1       7.739   8.193  17.241  0.00  0.00    +0.000 A 
ATOM      7  C   UNL     1       8.389   8.758  18.310  0.00  0.00    +0.000 A 
ATOM      8  O   UNL     1       8.653   7.778  19.224  0.00  0.00    +0.000 OA
ATOM      9  N   UNL     1       8.181   6.560  18.757  0.00  0.00    +0.000 NA
BRANCH   7  10
ATOM     10  C   UNL     1       8.842  10.108  18.634  0.00  0.00    +0.000 A 
ATOM     11  C   UNL     1       8.554  11.170  17.759  0.00  0.00    +0.000 A 
ATOM     12  C   UNL     1       9.011  12.465  18.022  0.00  0.00    +0.000 A 
ATOM     13  C   UNL     1       9.759  12.714  19.168  0.00  0.00    +0.000 A 
ATOM     14 BR   UNL     1      10.402  14.458  19.505  0.00  0.00    +0.000 Br
ATOM     15  C   UNL     1      10.043  11.682  20.058  0.00  0.00    +0.000 A 
ATOM     16  C   UNL     1       9.585  10.386  19.792  0.00  0.00    +0.000 A 
ENDBRANCH   7  10
ENDBRANCH   2   5
BRANCH   1  18
ATOM     17  C   UNL     1       4.895   4.502  15.182  0.00  0.00    +0.000 C 
ATOM     18  C   UNL     1       5.196   4.109  16.630  0.00  0.00    +0.000 C 
BRANCH  18  19
ATOM     19  C   UNL     1       3.888   3.808  17.341  0.00  0.00    +0.000 A 
ATOM     20  C   UNL     1       3.573   2.476  17.660  0.00  0.00    +0.000 A 
ATOM     21  C   UNL     1       2.328   2.147  18.199  0.00  0.00    +0.000 A 
ATOM     22  C   UNL     1       1.387   3.144  18.439  0.00  0.00    +0.000 A 
ATOM     23  C   UNL     1       1.689   4.471  18.148  0.00  0.00    +0.000 A 
ATOM     24  C   UNL     1       2.928   4.802  17.594  0.00  0.00    +0.000 A 
ENDBRANCH  18  19
ENDBRANCH   1  18
TORSDOF 4
ENDMDL
MODEL 9
REMARK VINA RESULT:      -7.8      1.771      1.852
REMARK  Name = 
REMARK  5 active torsions:
REMARK  status: ('A' for Active; 'I' for Inactive)
REMARK    1  A    between atoms: C_1  and  C_2
REMARK    2  A    between atoms: C_2  and  N_3
REMARK    3  A    between atoms: C_2  and  C_18
REMARK    4  A    between atoms: C_4  and  C_6
REMARK    5  A    between atoms: C_8  and  C_9
REMARK                            x       y       z     vdW  Elec       q    Type
REMARK                         _______ _______ _______ _____ _____    ______ ____
ROOT
ATOM      1  N   UNL     1       6.081   5.085  17.352  0.00  0.00    +0.000 N 
ATOM      2  C   UNL     1       7.020   5.854  16.705  0.00  0.00    +0.000 C 
ATOM      3  O   UNL     1       7.326   5.702  15.527  0.00  0.00    +0.000 OA
ATOM      4  H   UNL     1       5.879   5.341  18.312  0.00  0.00    +0.000 HD
ENDROOT
BRANCH   2   5
ATOM      5  C   UNL     1       7.630   6.886  17.547  0.00  0.00    +0.000 A 
ATOM      6  C   UNL     1       7.775   8.260  17.235  0.00  0.00    +0.000 A 
ATOM      7  C   UNL     1       8.419   8.810  18.316  0.00  0.00    +0.000 A 
ATOM      8  O   UNL     1       8.639   7.824  19.236  0.00  0.00    +0.000 OA
ATOM      9  N   UNL     1       8.143   6.619  18.761  0.00  0.00    +0.000 NA
BRANCH   7  10
ATOM     10  C   UNL     1       8.900  10.148  18.646  0.00  0.00    +0.000 A 
ATOM     11  C   UNL     1       9.596  10.363  19.849  0.00  0.00    +0.000 A 
ATOM     12  C   UNL     1      10.032  11.640  20.211  0.00  0.00    +0.000 A 
ATOM     13  C   UNL     1       9.780  12.720  19.371  0.00  0.00    +0.000 A 
ATOM     14 BR   UNL     1      10.342  14.451  19.877  0.00  0.00    +0.000 Br
ATOM     15  C   UNL     1       9.108  12.530  18.166  0.00  0.00    +0.000 A 
ATOM     16  C   UNL     1       8.672  11.249  17.806  0.00  0.00    +0.000 A 
ENDBRANCH   7  10
ENDBRANCH   2   5
BRANCH   1  18
ATOM     17  C   UNL     1       5.076   4.395  15.211  0.00  0.00    +0.000 C 
ATOM     18  C   UNL     1       5.312   4.054  16.684  0.00  0.00    +0.000 C 
BRANCH  18  19
ATOM     19  C   UNL     1       3.971   3.807  17.354  0.00  0.00    +0.000 A 
ATOM     20  C   UNL     1       3.584   2.487  17.643  0.00  0.00    +0.000 A 
ATOM     21  C   UNL     1       2.310   2.211  18.142  0.00  0.00    +0.000 A 
ATOM     22  C   UNL     1       1.411   3.248  18.371  0.00  0.00    +0.000 A 
ATOM     23  C   UNL     1       1.785   4.563  18.109  0.00  0.00    +0.000 A 
ATOM     24  C   UNL     1       3.053   4.842  17.596  0.00  0.00    +0.000 A 
ENDBRANCH  18  19
ENDBRANCH   1  18
TORSDOF 4
ENDMDL
