MODEL 1
REMARK VINA RESULT:      -7.6      0.000      0.000
REMARK  Name = 
REMARK  11 active torsions:
REMARK  status: ('A' for Active; 'I' for Inactive)
REMARK    1  A    between atoms: C_1  and  N_2
REMARK    2  A    between atoms: N_2  and  C_3
REMARK    3  A    between atoms: N_2  and  C_4
REMARK    4  A    between atoms: C_4  and  C_5
REMARK    5  A    between atoms: C_5  and  C_6
REMARK    6  A    between atoms: C_6  and  N_7
REMARK    7  A    between atoms: N_7  and  C_8
REMARK    8  A    between atoms: C_10  and  C_11
REMARK    9  A    between atoms: C_17  and  N_18
REMARK   10  A    between atoms: C_19  and  C_21
REMARK   11  A    between atoms: C_21  and  N_22
REMARK                            x       y       z     vdW  Elec       q    Type
REMARK                         _______ _______ _______ _____ _____    ______ ____
ROOT
ATOM      1  C   UNL     1       0.378   9.715  18.700  0.00  0.00    +0.000 A 
ATOM      2  N   UNL     1       1.238   8.940  18.017  0.00  0.00    +0.000 NA
ATOM      3  C   UNL     1       1.998   8.078  18.712  0.00  0.00    +0.000 A 
ATOM      4  N   UNL     1       2.007   7.980  20.054  0.00  0.00    +0.000 NA
ATOM      5  C   UNL     1       1.182   8.780  20.727  0.00  0.00    +0.000 A 
ATOM      6  C   UNL     1       1.188   8.702  22.113  0.00  0.00    +0.000 A 
ATOM      7  C   UNL     1       0.360   9.499  22.905  0.00  0.00    +0.000 A 
ATOM      8  C   UNL     1      -0.499  10.407  22.303  0.00  0.00    +0.000 A 
ATOM      9  C   UNL     1      -0.516  10.512  20.914  0.00  0.00    +0.000 A 
ATOM     10  C   UNL     1       0.326   9.700  20.107  0.00  0.00    +0.000 A 
ENDROOT
BRANCH   3  11
ATOM     11  C   UNL     1       3.027   7.327  17.966  0.00  0.00    +0.000 A 
ATOM     12  C   UNL     1       3.825   8.033  17.032  0.00  0.00    +0.000 A 
ATOM     13  C   UNL     1       4.928   7.445  16.409  0.00  0.00    +0.000 A 
ATOM     14  C   UNL     1       5.274   6.140  16.727  0.00  0.00    +0.000 A 
ATOM     15 CL   UNL     1       6.635   5.405  15.974  0.00  0.00    +0.000 Cl
ATOM     16  C   UNL     1       4.513   5.412  17.639  0.00  0.00    +0.000 A 
ATOM     17  C   UNL     1       3.363   5.976  18.217  0.00  0.00    +0.000 A 
BRANCH  17  18
ATOM     18  N   UNL     1       2.609   5.104  19.037  0.00  0.00    +0.000 N 
ATOM     19  C   UNL     1       1.500   4.395  18.584  0.00  0.00    +0.000 C 
ATOM     20  O   UNL     1       1.104   4.373  17.423  0.00  0.00    +0.000 OA
ATOM     21  H   UNL     1       3.075   4.720  19.850  0.00  0.00    +0.000 HD
BRANCH  19  22
ATOM     22  C   UNL     1       0.837   3.567  19.687  0.00  0.00    +0.000 C 
BRANCH  22  23
ATOM     23  N   UNL     1       1.551   2.339  20.060  0.00  0.00    +0.000 NA
ATOM     24  C   UNL     1       2.503   2.443  21.169  0.00  0.00    +0.000 C 
ATOM     25  C   UNL     1       3.962   2.625  20.733  0.00  0.00    +0.000 C 
ATOM     26  O   UNL     1       4.355   1.536  19.897  0.00  0.00    +0.000 OA
ATOM     27  C   UNL     1       3.587   1.556  18.687  0.00  0.00    +0.000 C 
ATOM     28  C   UNL     1       2.065   1.533  18.942  0.00  0.00    +0.000 C 
ENDBRANCH  22  23
ENDBRANCH  19  22
ENDBRANCH  17  18
ENDBRANCH   3  11
BRANCH   1  29
ATOM     29  N   UNL     1      -0.414  10.625  17.970  0.00  0.00    +0.000 N 
ATOM     30  H   UNL     1      -0.815  11.335  18.571  0.00  0.00    +0.000 HD
BRANCH  29  31
ATOM     31  C   UNL     1      -1.466  10.027  17.141  0.00  0.00    +0.000 C 
BRANCH  31  32
ATOM     32  C   UNL     1      -2.849  10.087  17.807  0.00  0.00    +0.000 C 
BRANCH  32  33
ATOM     33  C   UNL     1      -3.195  11.444  18.439  0.00  0.00    +0.000 C 
BRANCH  33  35
ATOM     34  C   UNL     1      -4.822  11.751  16.660  0.00  0.00    +0.000 C 
ATOM     35  N   UNL     1      -4.527  11.960  18.081  0.00  0.00    +0.000 NA
ATOM     36  C   UNL     1      -5.557  11.301  18.893  0.00  0.00    +0.000 C 
ENDBRANCH  33  35
ENDBRANCH  32  33
ENDBRANCH  31  32
ENDBRANCH  29  31
ENDBRANCH   1  29
TORSDOF 9
ENDMDL
MODEL 2
REMARK VINA RESULT:      -7.5      2.607      3.510
REMARK  Name = 
REMARK  11 active torsions:
REMARK  status: ('A' for Active; 'I' for Inactive)
REMARK    1  A    between atoms: C_1  and  N_2
REMARK    2  A    between atoms: N_2  and  C_3
REMARK    3  A    between atoms: N_2  and  C_4
REMARK    4  A    between atoms: C_4  and  C_5
REMARK    5  A    between atoms: C_5  and  C_6
REMARK    6  A    between atoms: C_6  and  N_7
REMARK    7  A    between atoms: N_7  and  C_8
REMARK    8  A    between atoms: C_10  and  C_11
REMARK    9  A    between atoms: C_17  and  N_18
REMARK   10  A    between atoms: C_19  and  C_21
REMARK   11  A    between atoms: C_21  and  N_22
REMARK                            x       y       z     vdW  Elec       q    Type
REMARK                         _______ _______ _______ _____ _____    ______ ____
ROOT
ATOM      1  C   UNL     1       1.634   9.948  18.424  0.00  0.00    +0.000 A 
ATOM      2  N   UNL     1       2.407   9.055  17.782  0.00  0.00    +0.000 NA
ATOM      3  C   UNL     1       2.587   7.852  18.353  0.00  0.00    +0.000 A 
ATOM      4  N   UNL     1       2.101   7.500  19.557  0.00  0.00    +0.000 NA
ATOM      5  C   UNL     1       1.370   8.404  20.206  0.00  0.00    +0.000 A 
ATOM      6  C   UNL     1       0.872   8.062  21.456  0.00  0.00    +0.000 A 
ATOM      7  C   UNL     1       0.096   8.942  22.212  0.00  0.00    +0.000 A 
ATOM      8  C   UNL     1      -0.190  10.205  21.715  0.00  0.00    +0.000 A 
ATOM      9  C   UNL     1       0.306  10.577  20.469  0.00  0.00    +0.000 A 
ATOM     10  C   UNL     1       1.096   9.680  19.697  0.00  0.00    +0.000 A 
ENDROOT
BRANCH   3  11
ATOM     11  C   UNL     1       3.539   6.929  17.705  0.00  0.00    +0.000 A 
ATOM     12  C   UNL     1       4.555   7.482  16.886  0.00  0.00    +0.000 A 
ATOM     13  C   UNL     1       5.595   6.704  16.372  0.00  0.00    +0.000 A 
ATOM     14  C   UNL     1       5.656   5.355  16.689  0.00  0.00    +0.000 A 
ATOM     15 CL   UNL     1       6.937   4.385  16.070  0.00  0.00    +0.000 Cl
ATOM     16  C   UNL     1       4.675   4.774  17.489  0.00  0.00    +0.000 A 
ATOM     17  C   UNL     1       3.590   5.537  17.952  0.00  0.00    +0.000 A 
BRANCH  17  18
ATOM     18  N   UNL     1       2.599   4.814  18.658  0.00  0.00    +0.000 N 
ATOM     19  C   UNL     1       1.609   4.062  18.032  0.00  0.00    +0.000 C 
ATOM     20  O   UNL     1       1.529   3.869  16.823  0.00  0.00    +0.000 OA
ATOM     21  H   UNL     1       2.815   4.552  19.611  0.00  0.00    +0.000 HD
BRANCH  19  22
ATOM     22  C   UNL     1       0.635   3.425  19.025  0.00  0.00    +0.000 C 
BRANCH  22  23
ATOM     23  N   UNL     1       1.214   2.387  19.888  0.00  0.00    +0.000 NA
ATOM     24  C   UNL     1       1.261   2.677  21.323  0.00  0.00    +0.000 C 
ATOM     25  C   UNL     1       2.612   3.209  21.816  0.00  0.00    +0.000 C 
ATOM     26  O   UNL     1       3.642   2.268  21.508  0.00  0.00    +0.000 OA
ATOM     27  C   UNL     1       3.772   2.145  20.086  0.00  0.00    +0.000 C 
ATOM     28  C   UNL     1       2.448   1.758  19.393  0.00  0.00    +0.000 C 
ENDBRANCH  22  23
ENDBRANCH  19  22
ENDBRANCH  17  18
ENDBRANCH   3  11
BRANCH   1  29
ATOM     29  N   UNL     1       1.453  11.212  17.828  0.00  0.00    +0.000 N 
ATOM     30  H   UNL     1       1.466  11.152  16.816  0.00  0.00    +0.000 HD
BRANCH  29  31
ATOM     31  C   UNL     1       2.376  12.262  18.272  0.00  0.00    +0.000 C 
BRANCH  31  32
ATOM     32  C   UNL     1       1.705  13.642  18.358  0.00  0.00    +0.000 C 
BRANCH  32  33
ATOM     33  C   UNL     1       2.660  14.795  18.705  0.00  0.00    +0.000 C 
BRANCH  33  35
ATOM     34  C   UNL     1       3.138  16.757  17.352  0.00  0.00    +0.000 C 
ATOM     35  N   UNL     1       3.410  15.330  17.555  0.00  0.00    +0.000 NA
ATOM     36  C   UNL     1       4.850  15.134  17.758  0.00  0.00    +0.000 C 
ENDBRANCH  33  35
ENDBRANCH  32  33
ENDBRANCH  31  32
ENDBRANCH  29  31
ENDBRANCH   1  29
TORSDOF 9
ENDMDL
MODEL 3
REMARK VINA RESULT:      -7.5      3.981      7.386
REMARK  Name = 
REMARK  11 active torsions:
REMARK  status: ('A' for Active; 'I' for Inactive)
REMARK    1  A    between atoms: C_1  and  N_2
REMARK    2  A    between atoms: N_2  and  C_3
REMARK    3  A    between atoms: N_2  and  C_4
REMARK    4  A    between atoms: C_4  and  C_5
REMARK    5  A    between atoms: C_5  and  C_6
REMARK    6  A    between atoms: C_6  and  N_7
REMARK    7  A    between atoms: N_7  and  C_8
REMARK    8  A    between atoms: C_10  and  C_11
REMARK    9  A    between atoms: C_17  and  N_18
REMARK   10  A    between atoms: C_19  and  C_21
REMARK   11  A    between atoms: C_21  and  N_22
REMARK                            x       y       z     vdW  Elec       q    Type
REMARK                         _______ _______ _______ _____ _____    ______ ____
ROOT
ATOM      1  C   UNL     1       2.528   6.696  19.942  0.00  0.00    +0.000 A 
ATOM      2  N   UNL     1       3.445   6.109  19.153  0.00  0.00    +0.000 NA
ATOM      3  C   UNL     1       3.831   6.760  18.044  0.00  0.00    +0.000 A 
ATOM      4  N   UNL     1       3.317   7.933  17.630  0.00  0.00    +0.000 NA
ATOM      5  C   UNL     1       2.380   8.490  18.395  0.00  0.00    +0.000 A 
ATOM      6  C   UNL     1       1.830   9.693  17.976  0.00  0.00    +0.000 A 
ATOM      7  C   UNL     1       0.842  10.353  18.710  0.00  0.00    +0.000 A 
ATOM      8  C   UNL     1       0.382   9.798  19.894  0.00  0.00    +0.000 A 
ATOM      9  C   UNL     1       0.911   8.586  20.331  0.00  0.00    +0.000 A 
ATOM     10  C   UNL     1       1.917   7.914  19.585  0.00  0.00    +0.000 A 
ENDROOT
BRANCH   3  11
ATOM     11  C   UNL     1       4.739   6.049  17.121  0.00  0.00    +0.000 A 
ATOM     12  C   UNL     1       4.410   4.722  16.750  0.00  0.00    +0.000 A 
ATOM     13  C   UNL     1       5.114   4.037  15.758  0.00  0.00    +0.000 A 
ATOM     14  C   UNL     1       6.151   4.676  15.094  0.00  0.00    +0.000 A 
ATOM     15 CL   UNL     1       7.022   3.847  13.863  0.00  0.00    +0.000 Cl
ATOM     16  C   UNL     1       6.506   5.979  15.432  0.00  0.00    +0.000 A 
ATOM     17  C   UNL     1       5.846   6.650  16.476  0.00  0.00    +0.000 A 
BRANCH  17  18
ATOM     18  N   UNL     1       6.369   7.922  16.804  0.00  0.00    +0.000 N 
ATOM     19  C   UNL     1       7.434   8.110  17.679  0.00  0.00    +0.000 C 
ATOM     20  O   UNL     1       8.091   7.209  18.193  0.00  0.00    +0.000 OA
ATOM     21  H   UNL     1       6.207   8.670  16.140  0.00  0.00    +0.000 HD
BRANCH  19  22
ATOM     22  C   UNL     1       7.765   9.587  17.899  0.00  0.00    +0.000 C 
BRANCH  22  23
ATOM     23  N   UNL     1       9.103   9.852  18.445  0.00  0.00    +0.000 NA
ATOM     24  C   UNL     1       9.198  10.022  19.897  0.00  0.00    +0.000 C 
ATOM     25  C   UNL     1       9.208  11.483  20.363  0.00  0.00    +0.000 C 
ATOM     26  O   UNL     1      10.298  12.176  19.751  0.00  0.00    +0.000 OA
ATOM     27  C   UNL     1      10.101  12.225  18.333  0.00  0.00    +0.000 C 
ATOM     28  C   UNL     1       9.915  10.828  17.703  0.00  0.00    +0.000 C 
ENDBRANCH  22  23
ENDBRANCH  19  22
ENDBRANCH  17  18
ENDBRANCH   3  11
BRANCH   1  29
ATOM     29  N   UNL     1       2.117   6.009  21.102  0.00  0.00    +0.000 N 
ATOM     30  H   UNL     1       2.492   6.436  21.940  0.00  0.00    +0.000 HD
BRANCH  29  31
ATOM     31  C   UNL     1       2.393   4.568  21.116  0.00  0.00    +0.000 C 
BRANCH  31  32
ATOM     32  C   UNL     1       1.172   3.728  20.709  0.00  0.00    +0.000 C 
BRANCH  32  33
ATOM     33  C   UNL     1       1.501   2.287  20.290  0.00  0.00    +0.000 C 
BRANCH  33  35
ATOM     34  C   UNL     1       1.352   3.306  18.088  0.00  0.00    +0.000 C 
ATOM     35  N   UNL     1       1.740   2.112  18.847  0.00  0.00    +0.000 NA
ATOM     36  C   UNL     1       3.157   1.821  18.604  0.00  0.00    +0.000 C 
ENDBRANCH  33  35
ENDBRANCH  32  33
ENDBRANCH  31  32
ENDBRANCH  29  31
ENDBRANCH   1  29
TORSDOF 9
ENDMDL
MODEL 4
REMARK VINA RESULT:      -7.4      0.883      1.207
REMARK  Name = 
REMARK  11 active torsions:
REMARK  status: ('A' for Active; 'I' for Inactive)
REMARK    1  A    between atoms: C_1  and  N_2
REMARK    2  A    between atoms: N_2  and  C_3
REMARK    3  A    between atoms: N_2  and  C_4
REMARK    4  A    between atoms: C_4  and  C_5
REMARK    5  A    between atoms: C_5  and  C_6
REMARK    6  A    between atoms: C_6  and  N_7
REMARK    7  A    between atoms: N_7  and  C_8
REMARK    8  A    between atoms: C_10  and  C_11
REMARK    9  A    between atoms: C_17  and  N_18
REMARK   10  A    between atoms: C_19  and  C_21
REMARK   11  A    between atoms: C_21  and  N_22
REMARK                            x       y       z     vdW  Elec       q    Type
REMARK                         _______ _______ _______ _____ _____    ______ ____
ROOT
ATOM      1  C   UNL     1       0.875   9.985  18.677  0.00  0.00    +0.000 A 
ATOM      2  N   UNL     1       1.649   9.161  17.949  0.00  0.00    +0.000 NA
ATOM      3  C   UNL     1       2.174   8.086  18.561  0.00  0.00    +0.000 A 
ATOM      4  N   UNL     1       2.035   7.810  19.870  0.00  0.00    +0.000 NA
ATOM      5  C   UNL     1       1.300   8.653  20.595  0.00  0.00    +0.000 A 
ATOM      6  C   UNL     1       1.157   8.390  21.950  0.00  0.00    +0.000 A 
ATOM      7  C   UNL     1       0.407   9.215  22.790  0.00  0.00    +0.000 A 
ATOM      8  C   UNL     1      -0.216  10.339  22.271  0.00  0.00    +0.000 A 
ATOM      9  C   UNL     1      -0.079  10.631  20.916  0.00  0.00    +0.000 A 
ATOM     10  C   UNL     1       0.684   9.791  20.059  0.00  0.00    +0.000 A 
ENDROOT
BRANCH   3  11
ATOM     11  C   UNL     1       3.125   7.263  17.787  0.00  0.00    +0.000 A 
ATOM     12  C   UNL     1       3.896   7.897  16.783  0.00  0.00    +0.000 A 
ATOM     13  C   UNL     1       4.934   7.238  16.121  0.00  0.00    +0.000 A 
ATOM     14  C   UNL     1       5.241   5.930  16.469  0.00  0.00    +0.000 A 
ATOM     15 CL   UNL     1       6.522   5.107  15.668  0.00  0.00    +0.000 Cl
ATOM     16  C   UNL     1       4.504   5.271  17.450  0.00  0.00    +0.000 A 
ATOM     17  C   UNL     1       3.415   5.907  18.071  0.00  0.00    +0.000 A 
BRANCH  17  18
ATOM     18  N   UNL     1       2.673   5.101  18.965  0.00  0.00    +0.000 N 
ATOM     19  C   UNL     1       1.539   4.386  18.590  0.00  0.00    +0.000 C 
ATOM     20  O   UNL     1       1.107   4.300  17.445  0.00  0.00    +0.000 OA
ATOM     21  H   UNL     1       3.158   4.759  19.785  0.00  0.00    +0.000 HD
BRANCH  19  22
ATOM     22  C   UNL     1       0.898   3.639  19.761  0.00  0.00    +0.000 C 
BRANCH  22  23
ATOM     23  N   UNL     1       1.584   2.405  20.166  0.00  0.00    +0.000 NA
ATOM     24  C   UNL     1       2.598   2.532  21.215  0.00  0.00    +0.000 C 
ATOM     25  C   UNL     1       4.037   2.630  20.694  0.00  0.00    +0.000 C 
ATOM     26  O   UNL     1       4.342   1.481  19.902  0.00  0.00    +0.000 OA
ATOM     27  C   UNL     1       3.510   1.466  18.735  0.00  0.00    +0.000 C 
ATOM     28  C   UNL     1       2.005   1.519  19.070  0.00  0.00    +0.000 C 
ENDBRANCH  22  23
ENDBRANCH  19  22
ENDBRANCH  17  18
ENDBRANCH   3  11
BRANCH   1  29
ATOM     29  N   UNL     1       0.331  11.116  18.037  0.00  0.00    +0.000 N 
ATOM     30  H   UNL     1       0.768  11.972  18.357  0.00  0.00    +0.000 HD
BRANCH  29  31
ATOM     31  C   UNL     1      -1.128  11.249  18.116  0.00  0.00    +0.000 C 
BRANCH  31  32
ATOM     32  C   UNL     1      -1.865  10.054  17.491  0.00  0.00    +0.000 C 
BRANCH  32  33
ATOM     33  C   UNL     1      -2.251  10.243  16.016  0.00  0.00    +0.000 C 
BRANCH  33  35
ATOM     34  C   UNL     1      -4.391  11.361  16.293  0.00  0.00    +0.000 C 
ATOM     35  N   UNL     1      -3.700  10.185  15.754  0.00  0.00    +0.000 NA
ATOM     36  C   UNL     1      -3.948  10.095  14.311  0.00  0.00    +0.000 C 
ENDBRANCH  33  35
ENDBRANCH  32  33
ENDBRANCH  31  32
ENDBRANCH  29  31
ENDBRANCH   1  29
TORSDOF 9
ENDMDL
MODEL 5
REMARK VINA RESULT:      -7.3      2.533      3.242
REMARK  Name = 
REMARK  11 active torsions:
REMARK  status: ('A' for Active; 'I' for Inactive)
REMARK    1  A    between atoms: C_1  and  N_2
REMARK    2  A    between atoms: N_2  and  C_3
REMARK    3  A    between atoms: N_2  and  C_4
REMARK    4  A    between atoms: C_4  and  C_5
REMARK    5  A    between atoms: C_5  and  C_6
REMARK    6  A    between atoms: C_6  and  N_7
REMARK    7  A    between atoms: N_7  and  C_8
REMARK    8  A    between atoms: C_10  and  C_11
REMARK    9  A    between atoms: C_17  and  N_18
REMARK   10  A    between atoms: C_19  and  C_21
REMARK   11  A    between atoms: C_21  and  N_22
REMARK                            x       y       z     vdW  Elec       q    Type
REMARK                         _______ _______ _______ _____ _____    ______ ____
ROOT
ATOM      1  C   UNL     1       1.685  10.004  18.381  0.00  0.00    +0.000 A 
ATOM      2  N   UNL     1       2.393   9.113  17.666  0.00  0.00    +0.000 NA
ATOM      3  C   UNL     1       2.587   7.893  18.194  0.00  0.00    +0.000 A 
ATOM      4  N   UNL     1       2.179   7.519  19.420  0.00  0.00    +0.000 NA
ATOM      5  C   UNL     1       1.512   8.420  20.140  0.00  0.00    +0.000 A 
ATOM      6  C   UNL     1       1.095   8.055  21.412  0.00  0.00    +0.000 A 
ATOM      7  C   UNL     1       0.391   8.930  22.242  0.00  0.00    +0.000 A 
ATOM      8  C   UNL     1       0.097  10.210  21.797  0.00  0.00    +0.000 A 
ATOM      9  C   UNL     1       0.514  10.604  20.528  0.00  0.00    +0.000 A 
ATOM     10  C   UNL     1       1.230   9.713  19.682  0.00  0.00    +0.000 A 
ENDROOT
BRANCH   3  11
ATOM     11  C   UNL     1       3.474   6.969  17.459  0.00  0.00    +0.000 A 
ATOM     12  C   UNL     1       4.279   7.499  16.420  0.00  0.00    +0.000 A 
ATOM     13  C   UNL     1       5.265   6.738  15.788  0.00  0.00    +0.000 A 
ATOM     14  C   UNL     1       5.486   5.432  16.201  0.00  0.00    +0.000 A 
ATOM     15 CL   UNL     1       6.703   4.485  15.437  0.00  0.00    +0.000 Cl
ATOM     16  C   UNL     1       4.714   4.875  17.217  0.00  0.00    +0.000 A 
ATOM     17  C   UNL     1       3.675   5.613  17.810  0.00  0.00    +0.000 A 
BRANCH  17  18
ATOM     18  N   UNL     1       2.887   4.905  18.747  0.00  0.00    +0.000 N 
ATOM     19  C   UNL     1       1.669   4.311  18.430  0.00  0.00    +0.000 C 
ATOM     20  O   UNL     1       1.184   4.257  17.304  0.00  0.00    +0.000 OA
ATOM     21  H   UNL     1       3.366   4.525  19.554  0.00  0.00    +0.000 HD
BRANCH  19  22
ATOM     22  C   UNL     1       0.999   3.655  19.639  0.00  0.00    +0.000 C 
BRANCH  22  23
ATOM     23  N   UNL     1       1.634   2.417  20.108  0.00  0.00    +0.000 NA
ATOM     24  C   UNL     1       2.627   2.552  21.176  0.00  0.00    +0.000 C 
ATOM     25  C   UNL     1       4.080   2.582  20.687  0.00  0.00    +0.000 C 
ATOM     26  O   UNL     1       4.365   1.392  19.949  0.00  0.00    +0.000 OA
ATOM     27  C   UNL     1       3.560   1.358  18.763  0.00  0.00    +0.000 C 
ATOM     28  C   UNL     1       2.050   1.474  19.059  0.00  0.00    +0.000 C 
ENDBRANCH  22  23
ENDBRANCH  19  22
ENDBRANCH  17  18
ENDBRANCH   3  11
BRANCH   1  29
ATOM     29  N   UNL     1       1.487  11.286  17.830  0.00  0.00    +0.000 N 
ATOM     30  H   UNL     1       1.258  11.236  16.844  0.00  0.00    +0.000 HD
BRANCH  29  31
ATOM     31  C   UNL     1       2.583  12.239  18.033  0.00  0.00    +0.000 C 
BRANCH  31  32
ATOM     32  C   UNL     1       2.087  13.681  18.219  0.00  0.00    +0.000 C 
BRANCH  32  33
ATOM     33  C   UNL     1       3.150  14.660  18.741  0.00  0.00    +0.000 C 
BRANCH  33  35
ATOM     34  C   UNL     1       3.053  16.827  17.645  0.00  0.00    +0.000 C 
ATOM     35  N   UNL     1       2.693  16.057  18.840  0.00  0.00    +0.000 NA
ATOM     36  C   UNL     1       1.239  16.100  19.025  0.00  0.00    +0.000 C 
ENDBRANCH  33  35
ENDBRANCH  32  33
ENDBRANCH  31  32
ENDBRANCH  29  31
ENDBRANCH   1  29
TORSDOF 9
ENDMDL
MODEL 6
REMARK VINA RESULT:      -7.2      2.276      2.703
REMARK  Name = 
REMARK  11 active torsions:
REMARK  status: ('A' for Active; 'I' for Inactive)
REMARK    1  A    between atoms: C_1  and  N_2
REMARK    2  A    between atoms: N_2  and  C_3
REMARK    3  A    between atoms: N_2  and  C_4
REMARK    4  A    between atoms: C_4  and  C_5
REMARK    5  A    between atoms: C_5  and  C_6
REMARK    6  A    between atoms: C_6  and  N_7
REMARK    7  A    between atoms: N_7  and  C_8
REMARK    8  A    between atoms: C_10  and  C_11
REMARK    9  A    between atoms: C_17  and  N_18
REMARK   10  A    between atoms: C_19  and  C_21
REMARK   11  A    between atoms: C_21  and  N_22
REMARK                            x       y       z     vdW  Elec       q    Type
REMARK                         _______ _______ _______ _____ _____    ______ ____
ROOT
ATOM      1  C   UNL     1       1.683   9.893  18.352  0.00  0.00    +0.000 A 
ATOM      2  N   UNL     1       2.498   9.021  17.733  0.00  0.00    +0.000 NA
ATOM      3  C   UNL     1       2.683   7.819  18.301  0.00  0.00    +0.000 A 
ATOM      4  N   UNL     1       2.160   7.446  19.484  0.00  0.00    +0.000 NA
ATOM      5  C   UNL     1       1.384   8.329  20.111  0.00  0.00    +0.000 A 
ATOM      6  C   UNL     1       0.848   7.966  21.338  0.00  0.00    +0.000 A 
ATOM      7  C   UNL     1       0.024   8.823  22.071  0.00  0.00    +0.000 A 
ATOM      8  C   UNL     1      -0.270  10.083  21.573  0.00  0.00    +0.000 A 
ATOM      9  C   UNL     1       0.265  10.476  20.349  0.00  0.00    +0.000 A 
ATOM     10  C   UNL     1       1.102   9.603  19.601  0.00  0.00    +0.000 A 
ENDROOT
BRANCH   3  11
ATOM     11  C   UNL     1       3.679   6.922  17.683  0.00  0.00    +0.000 A 
ATOM     12  C   UNL     1       4.745   7.506  16.955  0.00  0.00    +0.000 A 
ATOM     13  C   UNL     1       5.819   6.749  16.483  0.00  0.00    +0.000 A 
ATOM     14  C   UNL     1       5.863   5.389  16.751  0.00  0.00    +0.000 A 
ATOM     15 CL   UNL     1       7.185   4.444  16.182  0.00  0.00    +0.000 Cl
ATOM     16  C   UNL     1       4.833   4.777  17.460  0.00  0.00    +0.000 A 
ATOM     17  C   UNL     1       3.717   5.521  17.880  0.00  0.00    +0.000 A 
BRANCH  17  18
ATOM     18  N   UNL     1       2.684   4.771  18.489  0.00  0.00    +0.000 N 
ATOM     19  C   UNL     1       1.886   3.864  17.798  0.00  0.00    +0.000 C 
ATOM     20  O   UNL     1       2.036   3.547  16.622  0.00  0.00    +0.000 OA
ATOM     21  H   UNL     1       2.751   4.626  19.489  0.00  0.00    +0.000 HD
BRANCH  19  22
ATOM     22  C   UNL     1       0.812   3.228  18.682  0.00  0.00    +0.000 C 
BRANCH  22  23
ATOM     23  N   UNL     1       1.311   2.277  19.684  0.00  0.00    +0.000 NA
ATOM     24  C   UNL     1       1.132   2.649  21.090  0.00  0.00    +0.000 C 
ATOM     25  C   UNL     1       2.367   3.288  21.736  0.00  0.00    +0.000 C 
ATOM     26  O   UNL     1       3.478   2.396  21.640  0.00  0.00    +0.000 OA
ATOM     27  C   UNL     1       3.821   2.201  20.262  0.00  0.00    +0.000 C 
ATOM     28  C   UNL     1       2.635   1.697  19.412  0.00  0.00    +0.000 C 
ENDBRANCH  22  23
ENDBRANCH  19  22
ENDBRANCH  17  18
ENDBRANCH   3  11
BRANCH   1  29
ATOM     29  N   UNL     1       1.496  11.158  17.758  0.00  0.00    +0.000 N 
ATOM     30  H   UNL     1       1.750  11.150  16.777  0.00  0.00    +0.000 HD
BRANCH  29  31
ATOM     31  C   UNL     1       2.160  12.279  18.431  0.00  0.00    +0.000 C 
BRANCH  31  32
ATOM     32  C   UNL     1       1.519  13.634  18.096  0.00  0.00    +0.000 C 
BRANCH  32  33
ATOM     33  C   UNL     1       0.109  13.833  18.673  0.00  0.00    +0.000 C 
BRANCH  33  35
ATOM     34  C   UNL     1      -0.735  15.040  20.607  0.00  0.00    +0.000 C 
ATOM     35  N   UNL     1      -0.118  15.156  19.282  0.00  0.00    +0.000 NA
ATOM     36  C   UNL     1       1.153  15.880  19.399  0.00  0.00    +0.000 C 
ENDBRANCH  33  35
ENDBRANCH  32  33
ENDBRANCH  31  32
ENDBRANCH  29  31
ENDBRANCH   1  29
TORSDOF 9
ENDMDL
MODEL 7
REMARK VINA RESULT:      -7.1      0.823      1.165
REMARK  Name = 
REMARK  11 active torsions:
REMARK  status: ('A' for Active; 'I' for Inactive)
REMARK    1  A    between atoms: C_1  and  N_2
REMARK    2  A    between atoms: N_2  and  C_3
REMARK    3  A    between atoms: N_2  and  C_4
REMARK    4  A    between atoms: C_4  and  C_5
REMARK    5  A    between atoms: C_5  and  C_6
REMARK    6  A    between atoms: C_6  and  N_7
REMARK    7  A    between atoms: N_7  and  C_8
REMARK    8  A    between atoms: C_10  and  C_11
REMARK    9  A    between atoms: C_17  and  N_18
REMARK   10  A    between atoms: C_19  and  C_21
REMARK   11  A    between atoms: C_21  and  N_22
REMARK                            x       y       z     vdW  Elec       q    Type
REMARK                         _______ _______ _______ _____ _____    ______ ____
ROOT
ATOM      1  C   UNL     1       0.566   9.859  18.728  0.00  0.00    +0.000 A 
ATOM      2  N   UNL     1       1.383   9.069  18.010  0.00  0.00    +0.000 NA
ATOM      3  C   UNL     1       2.045   8.095  18.655  0.00  0.00    +0.000 A 
ATOM      4  N   UNL     1       2.000   7.894  19.985  0.00  0.00    +0.000 NA
ATOM      5  C   UNL     1       1.218   8.706  20.696  0.00  0.00    +0.000 A 
ATOM      6  C   UNL     1       1.170   8.520  22.071  0.00  0.00    +0.000 A 
ATOM      7  C   UNL     1       0.381   9.320  22.900  0.00  0.00    +0.000 A 
ATOM      8  C   UNL     1      -0.379  10.341  22.348  0.00  0.00    +0.000 A 
ATOM      9  C   UNL     1      -0.339  10.554  20.973  0.00  0.00    +0.000 A 
ATOM     10  C   UNL     1       0.463   9.739  20.127  0.00  0.00    +0.000 A 
ENDROOT
BRANCH   3  11
ATOM     11  C   UNL     1       3.036   7.321  17.882  0.00  0.00    +0.000 A 
ATOM     12  C   UNL     1       3.810   8.004  16.912  0.00  0.00    +0.000 A 
ATOM     13  C   UNL     1       4.881   7.393  16.256  0.00  0.00    +0.000 A 
ATOM     14  C   UNL     1       5.219   6.087  16.577  0.00  0.00    +0.000 A 
ATOM     15 CL   UNL     1       6.541   5.323  15.783  0.00  0.00    +0.000 Cl
ATOM     16  C   UNL     1       4.481   5.380  17.523  0.00  0.00    +0.000 A 
ATOM     17  C   UNL     1       3.361   5.967  18.136  0.00  0.00    +0.000 A 
BRANCH  17  18
ATOM     18  N   UNL     1       2.623   5.116  18.992  0.00  0.00    +0.000 N 
ATOM     19  C   UNL     1       1.522   4.375  18.573  0.00  0.00    +0.000 C 
ATOM     20  O   UNL     1       1.120   4.305  17.415  0.00  0.00    +0.000 OA
ATOM     21  H   UNL     1       3.100   4.770  19.816  0.00  0.00    +0.000 HD
BRANCH  19  22
ATOM     22  C   UNL     1       0.878   3.580  19.709  0.00  0.00    +0.000 C 
BRANCH  22  23
ATOM     23  N   UNL     1       1.583   2.348  20.087  0.00  0.00    +0.000 NA
ATOM     24  C   UNL     1       2.556   2.457  21.177  0.00  0.00    +0.000 C 
ATOM     25  C   UNL     1       4.009   2.614  20.713  0.00  0.00    +0.000 C 
ATOM     26  O   UNL     1       4.374   1.508  19.886  0.00  0.00    +0.000 OA
ATOM     27  C   UNL     1       3.584   1.520  18.691  0.00  0.00    +0.000 C 
ATOM     28  C   UNL     1       2.066   1.520  18.973  0.00  0.00    +0.000 C 
ENDBRANCH  22  23
ENDBRANCH  19  22
ENDBRANCH  17  18
ENDBRANCH   3  11
BRANCH   1  29
ATOM     29  N   UNL     1      -0.123  10.886  18.051  0.00  0.00    +0.000 N 
ATOM     30  H   UNL     1      -0.177  11.729  18.610  0.00  0.00    +0.000 HD
BRANCH  29  31
ATOM     31  C   UNL     1      -1.459  10.534  17.557  0.00  0.00    +0.000 C 
BRANCH  31  32
ATOM     32  C   UNL     1      -2.482  11.662  17.763  0.00  0.00    +0.000 C 
BRANCH  32  33
ATOM     33  C   UNL     1      -3.275  11.572  19.076  0.00  0.00    +0.000 C 
BRANCH  33  35
ATOM     34  C   UNL     1      -4.304  12.720  20.955  0.00  0.00    +0.000 C 
ATOM     35  N   UNL     1      -3.456  12.861  19.766  0.00  0.00    +0.000 NA
ATOM     36  C   UNL     1      -2.154  13.408  20.161  0.00  0.00    +0.000 C 
ENDBRANCH  33  35
ENDBRANCH  32  33
ENDBRANCH  31  32
ENDBRANCH  29  31
ENDBRANCH   1  29
TORSDOF 9
ENDMDL
MODEL 8
REMARK VINA RESULT:      -7.0      3.807      8.861
REMARK  Name = 
REMARK  11 active torsions:
REMARK  status: ('A' for Active; 'I' for Inactive)
REMARK    1  A    between atoms: C_1  and  N_2
REMARK    2  A    between atoms: N_2  and  C_3
REMARK    3  A    between atoms: N_2  and  C_4
REMARK    4  A    between atoms: C_4  and  C_5
REMARK    5  A    between atoms: C_5  and  C_6
REMARK    6  A    between atoms: C_6  and  N_7
REMARK    7  A    between atoms: N_7  and  C_8
REMARK    8  A    between atoms: C_10  and  C_11
REMARK    9  A    between atoms: C_17  and  N_18
REMARK   10  A    between atoms: C_19  and  C_21
REMARK   11  A    between atoms: C_21  and  N_22
REMARK                            x       y       z     vdW  Elec       q    Type
REMARK                         _______ _______ _______ _____ _____    ______ ____
ROOT
ATOM      1  C   UNL     1       6.711   5.561  17.441  0.00  0.00    +0.000 A 
ATOM      2  N   UNL     1       5.831   5.140  18.367  0.00  0.00    +0.000 NA
ATOM      3  C   UNL     1       4.942   4.199  18.010  0.00  0.00    +0.000 A 
ATOM      4  N   UNL     1       4.825   3.692  16.769  0.00  0.00    +0.000 NA
ATOM      5  C   UNL     1       5.674   4.143  15.846  0.00  0.00    +0.000 A 
ATOM      6  C   UNL     1       5.558   3.640  14.557  0.00  0.00    +0.000 A 
ATOM      7  C   UNL     1       6.400   4.051  13.522  0.00  0.00    +0.000 A 
ATOM      8  C   UNL     1       7.385   4.995  13.773  0.00  0.00    +0.000 A 
ATOM      9  C   UNL     1       7.514   5.523  15.055  0.00  0.00    +0.000 A 
ATOM     10  C   UNL     1       6.658   5.104  16.110  0.00  0.00    +0.000 A 
ENDROOT
BRANCH   3  11
ATOM     11  C   UNL     1       3.902   3.841  18.994  0.00  0.00    +0.000 A 
ATOM     12  C   UNL     1       3.705   2.469  19.290  0.00  0.00    +0.000 A 
ATOM     13  C   UNL     1       2.866   2.050  20.325  0.00  0.00    +0.000 A 
ATOM     14  C   UNL     1       2.222   2.998  21.106  0.00  0.00    +0.000 A 
ATOM     15 CL   UNL     1       1.191   2.497  22.389  0.00  0.00    +0.000 Cl
ATOM     16  C   UNL     1       2.387   4.356  20.844  0.00  0.00    +0.000 A 
ATOM     17  C   UNL     1       3.176   4.782  19.762  0.00  0.00    +0.000 A 
BRANCH  17  18
ATOM     18  N   UNL     1       3.177   6.177  19.525  0.00  0.00    +0.000 N 
ATOM     19  C   UNL     1       2.497   6.774  18.468  0.00  0.00    +0.000 C 
ATOM     20  O   UNL     1       1.760   6.186  17.682  0.00  0.00    +0.000 OA
ATOM     21  H   UNL     1       3.375   6.776  20.317  0.00  0.00    +0.000 HD
BRANCH  19  22
ATOM     22  C   UNL     1       2.707   8.289  18.412  0.00  0.00    +0.000 C 
BRANCH  22  23
ATOM     23  N   UNL     1       1.483   9.092  18.527  0.00  0.00    +0.000 NA
ATOM     24  C   UNL     1       1.477  10.383  17.834  0.00  0.00    +0.000 C 
ATOM     25  C   UNL     1       1.813  11.582  18.728  0.00  0.00    +0.000 C 
ATOM     26  O   UNL     1       0.889  11.646  19.816  0.00  0.00    +0.000 OA
ATOM     27  C   UNL     1       1.045  10.489  20.648  0.00  0.00    +0.000 C 
ATOM     28  C   UNL     1       0.889   9.165  19.871  0.00  0.00    +0.000 C 
ENDBRANCH  22  23
ENDBRANCH  19  22
ENDBRANCH  17  18
ENDBRANCH   3  11
BRANCH   1  29
ATOM     29  N   UNL     1       7.638   6.554  17.814  0.00  0.00    +0.000 N 
ATOM     30  H   UNL     1       8.034   6.369  18.728  0.00  0.00    +0.000 HD
BRANCH  29  31
ATOM     31  C   UNL     1       7.145   7.935  17.761  0.00  0.00    +0.000 C 
BRANCH  31  32
ATOM     32  C   UNL     1       8.266   8.954  17.504  0.00  0.00    +0.000 C 
BRANCH  32  33
ATOM     33  C   UNL     1       8.760   9.688  18.760  0.00  0.00    +0.000 C 
BRANCH  33  35
ATOM     34  C   UNL     1       8.888  11.958  17.899  0.00  0.00    +0.000 C 
ATOM     35  N   UNL     1       9.636  10.841  18.486  0.00  0.00    +0.000 NA
ATOM     36  C   UNL     1      10.284  11.286  19.724  0.00  0.00    +0.000 C 
ENDBRANCH  33  35
ENDBRANCH  32  33
ENDBRANCH  31  32
ENDBRANCH  29  31
ENDBRANCH   1  29
TORSDOF 9
ENDMDL
MODEL 9
REMARK VINA RESULT:      -7.0      3.958      9.076
REMARK  Name = 
REMARK  11 active torsions:
REMARK  status: ('A' for Active; 'I' for Inactive)
REMARK    1  A    between atoms: C_1  and  N_2
REMARK    2  A    between atoms: N_2  and  C_3
REMARK    3  A    between atoms: N_2  and  C_4
REMARK    4  A    between atoms: C_4  and  C_5
REMARK    5  A    between atoms: C_5  and  C_6
REMARK    6  A    between atoms: C_6  and  N_7
REMARK    7  A    between atoms: N_7  and  C_8
REMARK    8  A    between atoms: C_10  and  C_11
REMARK    9  A    between atoms: C_17  and  N_18
REMARK   10  A    between atoms: C_19  and  C_21
REMARK   11  A    between atoms: C_21  and  N_22
REMARK                            x       y       z     vdW  Elec       q    Type
REMARK                         _______ _______ _______ _____ _____    ______ ____
ROOT
ATOM      1  C   UNL     1       6.745   5.541  16.053  0.00  0.00    +0.000 A 
ATOM      2  N   UNL     1       5.817   5.201  16.965  0.00  0.00    +0.000 NA
ATOM      3  C   UNL     1       4.920   4.260  16.629  0.00  0.00    +0.000 A 
ATOM      4  N   UNL     1       4.842   3.678  15.418  0.00  0.00    +0.000 NA
ATOM      5  C   UNL     1       5.740   4.049  14.506  0.00  0.00    +0.000 A 
ATOM      6  C   UNL     1       5.665   3.468  13.248  0.00  0.00    +0.000 A 
ATOM      7  C   UNL     1       6.561   3.792  12.227  0.00  0.00    +0.000 A 
ATOM      8  C   UNL     1       7.558   4.727  12.461  0.00  0.00    +0.000 A 
ATOM      9  C   UNL     1       7.647   5.332  13.712  0.00  0.00    +0.000 A 
ATOM     10  C   UNL     1       6.736   5.002  14.752  0.00  0.00    +0.000 A 
ENDROOT
BRANCH   3  11
ATOM     11  C   UNL     1       3.829   3.989  17.587  0.00  0.00    +0.000 A 
ATOM     12  C   UNL     1       3.663   2.662  18.053  0.00  0.00    +0.000 A 
ATOM     13  C   UNL     1       2.772   2.346  19.082  0.00  0.00    +0.000 A 
ATOM     14  C   UNL     1       2.044   3.361  19.687  0.00  0.00    +0.000 A 
ATOM     15 CL   UNL     1       0.949   2.988  20.961  0.00  0.00    +0.000 Cl
ATOM     16  C   UNL     1       2.178   4.677  19.254  0.00  0.00    +0.000 A 
ATOM     17  C   UNL     1       3.021   4.991  18.175  0.00  0.00    +0.000 A 
BRANCH  17  18
ATOM     18  N   UNL     1       2.988   6.341  17.753  0.00  0.00    +0.000 N 
ATOM     19  C   UNL     1       2.709   7.404  18.607  0.00  0.00    +0.000 C 
ATOM     20  O   UNL     1       2.548   7.309  19.820  0.00  0.00    +0.000 OA
ATOM     21  H   UNL     1       3.510   6.572  16.917  0.00  0.00    +0.000 HD
BRANCH  19  22
ATOM     22  C   UNL     1       2.685   8.752  17.884  0.00  0.00    +0.000 C 
BRANCH  22  23
ATOM     23  N   UNL     1       1.447   9.524  18.046  0.00  0.00    +0.000 NA
ATOM     24  C   UNL     1       1.581  10.983  18.062  0.00  0.00    +0.000 C 
ATOM     25  C   UNL     1       1.619  11.599  19.465  0.00  0.00    +0.000 C 
ATOM     26  O   UNL     1       0.434  11.242  20.180  0.00  0.00    +0.000 OA
ATOM     27  C   UNL     1       0.402   9.824  20.382  0.00  0.00    +0.000 C 
ATOM     28  C   UNL     1       0.510   9.027  19.065  0.00  0.00    +0.000 C 
ENDBRANCH  22  23
ENDBRANCH  19  22
ENDBRANCH  17  18
ENDBRANCH   3  11
BRANCH   1  29
ATOM     29  N   UNL     1       7.681   6.535  16.404  0.00  0.00    +0.000 N 
ATOM     30  H   UNL     1       8.528   6.130  16.787  0.00  0.00    +0.000 HD
BRANCH  29  31
ATOM     31  C   UNL     1       7.186   7.585  17.301  0.00  0.00    +0.000 C 
BRANCH  31  32
ATOM     32  C   UNL     1       8.287   8.156  18.207  0.00  0.00    +0.000 C 
BRANCH  32  33
ATOM     33  C   UNL     1       8.352   9.690  18.243  0.00  0.00    +0.000 C 
BRANCH  33  35
ATOM     34  C   UNL     1      10.199  11.257  18.031  0.00  0.00    +0.000 C 
ATOM     35  N   UNL     1       9.568  10.234  18.872  0.00  0.00    +0.000 NA
ATOM     36  C   UNL     1       9.243  10.813  20.180  0.00  0.00    +0.000 C 
ENDBRANCH  33  35
ENDBRANCH  32  33
ENDBRANCH  31  32
ENDBRANCH  29  31
ENDBRANCH   1  29
TORSDOF 9
ENDMDL
