MODEL 1
REMARK VINA RESULT:      -8.3      0.000      0.000
REMARK  Name = 
REMARK  2 active torsions:
REMARK  status: ('A' for Active; 'I' for Inactive)
REMARK    1  A    between atoms: C_5  and  C_6
REMARK    2  A    between atoms: N_14  and  C_15
REMARK                            x       y       z     vdW  Elec       q    Type
REMARK                         _______ _______ _______ _____ _____    ______ ____
ROOT
ATOM      1  O   UNL     1       1.473   3.564  19.089  0.00  0.00    +0.000 OA
ATOM      2  C   UNL     1       2.448   3.774  18.386  0.00  0.00    +0.000 C 
ATOM      3  O   UNL     1       3.084   2.778  17.696  0.00  0.00    +0.000 OA
ATOM      4  C   UNL     1       4.236   3.322  17.039  0.00  0.00    +0.000 C 
ATOM      5  C   UNL     1       4.155   4.835  17.213  0.00  0.00    +0.000 C 
ATOM      6  N   UNL     1       3.041   4.983  18.109  0.00  0.00    +0.000 N 
ENDROOT
BRANCH   6   7
ATOM      7  C   UNL     1       2.622   6.221  18.629  0.00  0.00    +0.000 A 
ATOM      8  C   UNL     1       2.235   6.326  19.972  0.00  0.00    +0.000 A 
ATOM      9  C   UNL     1       1.793   7.539  20.512  0.00  0.00    +0.000 A 
ATOM     10  C   UNL     1       1.680   8.611  19.627  0.00  0.00    +0.000 A 
ATOM     11  N   UNL     1       1.253   9.905  19.788  0.00  0.00    +0.000 N 
ATOM     12  C   UNL     1       1.292  10.517  18.567  0.00  0.00    +0.000 A 
ATOM     13  N   UNL     1       1.765   9.718  17.639  0.00  0.00    +0.000 NA
ATOM     14  C   UNL     1       2.026   8.531  18.283  0.00  0.00    +0.000 A 
ATOM     15  C   UNL     1       2.546   7.333  17.776  0.00  0.00    +0.000 A 
ATOM     16  H   UNL     1       0.940  10.325  20.651  0.00  0.00    +0.000 HD
ENDBRANCH   6   7
BRANCH   5  17
ATOM     17  C   UNL     1       5.441   5.413  17.773  0.00  0.00    +0.000 A 
ATOM     18  C   UNL     1       6.015   4.932  18.967  0.00  0.00    +0.000 A 
ATOM     19  C   UNL     1       7.189   5.496  19.478  0.00  0.00    +0.000 A 
ATOM     20  C   UNL     1       7.809   6.548  18.807  0.00  0.00    +0.000 A 
ATOM     21  C   UNL     1       7.251   7.028  17.627  0.00  0.00    +0.000 A 
ATOM     22  F   UNL     1       7.852   8.036  16.976  0.00  0.00    +0.000 F 
ATOM     23  C   UNL     1       6.084   6.464  17.112  0.00  0.00    +0.000 A 
ATOM     24  F   UNL     1       5.567   6.945  15.972  0.00  0.00    +0.000 F 
ENDBRANCH   5  17
TORSDOF 2
ENDMDL
MODEL 2
REMARK VINA RESULT:      -8.1      1.355      1.685
REMARK  Name = 
REMARK  2 active torsions:
REMARK  status: ('A' for Active; 'I' for Inactive)
REMARK    1  A    between atoms: C_5  and  C_6
REMARK    2  A    between atoms: N_14  and  C_15
REMARK                            x       y       z     vdW  Elec       q    Type
REMARK                         _______ _______ _______ _____ _____    ______ ____
ROOT
ATOM      1  O   UNL     1       2.025   3.508  18.663  0.00  0.00    +0.000 OA
ATOM      2  C   UNL     1       2.976   3.863  17.985  0.00  0.00    +0.000 C 
ATOM      3  O   UNL     1       3.714   2.986  17.237  0.00  0.00    +0.000 OA
ATOM      4  C   UNL     1       4.806   3.687  16.630  0.00  0.00    +0.000 C 
ATOM      5  C   UNL     1       4.570   5.169  16.904  0.00  0.00    +0.000 C 
ATOM      6  N   UNL     1       3.444   5.142  17.796  0.00  0.00    +0.000 N 
ENDROOT
BRANCH   6   7
ATOM      7  C   UNL     1       2.899   6.293  18.393  0.00  0.00    +0.000 A 
ATOM      8  C   UNL     1       2.469   6.258  19.726  0.00  0.00    +0.000 A 
ATOM      9  C   UNL     1       1.903   7.381  20.342  0.00  0.00    +0.000 A 
ATOM     10  C   UNL     1       1.714   8.504  19.536  0.00  0.00    +0.000 A 
ATOM     11  N   UNL     1       1.165   9.737  19.779  0.00  0.00    +0.000 N 
ATOM     12  C   UNL     1       1.179  10.443  18.610  0.00  0.00    +0.000 A 
ATOM     13  N   UNL     1       1.748   9.765  17.640  0.00  0.00    +0.000 NA
ATOM     14  C   UNL     1       2.101   8.560  18.201  0.00  0.00    +0.000 A 
ATOM     15  C   UNL     1       2.742   7.456  17.623  0.00  0.00    +0.000 A 
ATOM     16  H   UNL     1       0.792  10.059  20.660  0.00  0.00    +0.000 HD
ENDBRANCH   6   7
BRANCH   5  17
ATOM     17  C   UNL     1       5.789   5.835  17.515  0.00  0.00    +0.000 A 
ATOM     18  C   UNL     1       6.395   6.961  16.924  0.00  0.00    +0.000 A 
ATOM     19  C   UNL     1       7.533   7.545  17.492  0.00  0.00    +0.000 A 
ATOM     20  C   UNL     1       8.085   7.014  18.655  0.00  0.00    +0.000 A 
ATOM     21  C   UNL     1       7.493   5.903  19.246  0.00  0.00    +0.000 A 
ATOM     22  F   UNL     1       8.019   5.396  20.372  0.00  0.00    +0.000 F 
ATOM     23  C   UNL     1       6.355   5.323  18.687  0.00  0.00    +0.000 A 
ATOM     24  F   UNL     1       5.802   4.253  19.277  0.00  0.00    +0.000 F 
ENDBRANCH   5  17
TORSDOF 2
ENDMDL
MODEL 3
REMARK VINA RESULT:      -8.1      2.984      5.432
REMARK  Name = 
REMARK  2 active torsions:
REMARK  status: ('A' for Active; 'I' for Inactive)
REMARK    1  A    between atoms: C_5  and  C_6
REMARK    2  A    between atoms: N_14  and  C_15
REMARK                            x       y       z     vdW  Elec       q    Type
REMARK                         _______ _______ _______ _____ _____    ______ ____
ROOT
ATOM      1  O   UNL     1       2.462   2.013  18.459  0.00  0.00    +0.000 OA
ATOM      2  C   UNL     1       2.277   3.030  19.107  0.00  0.00    +0.000 C 
ATOM      3  O   UNL     1       1.214   3.179  19.955  0.00  0.00    +0.000 OA
ATOM      4  C   UNL     1       1.225   4.505  20.497  0.00  0.00    +0.000 C 
ATOM      5  C   UNL     1       2.544   5.135  20.062  0.00  0.00    +0.000 C 
ATOM      6  N   UNL     1       3.076   4.149  19.163  0.00  0.00    +0.000 N 
ENDROOT
BRANCH   6   7
ATOM      7  C   UNL     1       4.269   4.321  18.439  0.00  0.00    +0.000 A 
ATOM      8  C   UNL     1       5.425   4.777  19.087  0.00  0.00    +0.000 A 
ATOM      9  C   UNL     1       6.623   4.979  18.390  0.00  0.00    +0.000 A 
ATOM     10  C   UNL     1       6.580   4.782  17.010  0.00  0.00    +0.000 A 
ATOM     11  N   UNL     1       7.524   4.923  16.024  0.00  0.00    +0.000 N 
ATOM     12  C   UNL     1       6.926   4.654  14.826  0.00  0.00    +0.000 A 
ATOM     13  N   UNL     1       5.671   4.300  14.979  0.00  0.00    +0.000 NA
ATOM     14  C   UNL     1       5.441   4.360  16.333  0.00  0.00    +0.000 A 
ATOM     15  C   UNL     1       4.274   4.082  17.057  0.00  0.00    +0.000 A 
ATOM     16  H   UNL     1       8.485   5.200  16.157  0.00  0.00    +0.000 HD
ENDBRANCH   6   7
BRANCH   5  17
ATOM     17  C   UNL     1       2.338   6.485  19.400  0.00  0.00    +0.000 A 
ATOM     18  C   UNL     1       2.667   6.708  18.049  0.00  0.00    +0.000 A 
ATOM     19  C   UNL     1       2.491   7.968  17.465  0.00  0.00    +0.000 A 
ATOM     20  C   UNL     1       1.985   9.024  18.220  0.00  0.00    +0.000 A 
ATOM     21  C   UNL     1       1.656   8.812  19.554  0.00  0.00    +0.000 A 
ATOM     22  F   UNL     1       1.161   9.827  20.280  0.00  0.00    +0.000 F 
ATOM     23  C   UNL     1       1.825   7.557  20.137  0.00  0.00    +0.000 A 
ATOM     24  F   UNL     1       1.499   7.379  21.426  0.00  0.00    +0.000 F 
ENDBRANCH   5  17
TORSDOF 2
ENDMDL
MODEL 4
REMARK VINA RESULT:      -7.9      1.258      1.396
REMARK  Name = 
REMARK  2 active torsions:
REMARK  status: ('A' for Active; 'I' for Inactive)
REMARK    1  A    between atoms: C_5  and  C_6
REMARK    2  A    between atoms: N_14  and  C_15
REMARK                            x       y       z     vdW  Elec       q    Type
REMARK                         _______ _______ _______ _____ _____    ______ ____
ROOT
ATOM      1  O   UNL     1       1.284   3.348  20.665  0.00  0.00    +0.000 OA
ATOM      2  C   UNL     1       2.048   3.275  19.716  0.00  0.00    +0.000 C 
ATOM      3  O   UNL     1       2.477   2.080  19.207  0.00  0.00    +0.000 OA
ATOM      4  C   UNL     1       3.429   2.325  18.164  0.00  0.00    +0.000 C 
ATOM      5  C   UNL     1       3.410   3.830  17.912  0.00  0.00    +0.000 C 
ATOM      6  N   UNL     1       2.564   4.309  18.970  0.00  0.00    +0.000 N 
ENDROOT
BRANCH   6   7
ATOM      7  C   UNL     1       2.304   5.672  19.198  0.00  0.00    +0.000 A 
ATOM      8  C   UNL     1       1.867   6.104  20.458  0.00  0.00    +0.000 A 
ATOM      9  C   UNL     1       1.580   7.451  20.711  0.00  0.00    +0.000 A 
ATOM     10  C   UNL     1       1.673   8.321  19.625  0.00  0.00    +0.000 A 
ATOM     11  N   UNL     1       1.431   9.665  19.491  0.00  0.00    +0.000 N 
ATOM     12  C   UNL     1       1.625  10.000  18.181  0.00  0.00    +0.000 A 
ATOM     13  N   UNL     1       2.023   8.971  17.471  0.00  0.00    +0.000 NA
ATOM     14  C   UNL     1       2.073   7.919  18.355  0.00  0.00    +0.000 A 
ATOM     15  C   UNL     1       2.437   6.583  18.139  0.00  0.00    +0.000 A 
ATOM     16  H   UNL     1       1.139  10.292  20.226  0.00  0.00    +0.000 HD
ENDBRANCH   6   7
BRANCH   5  17
ATOM     17  C   UNL     1       4.803   4.430  17.954  0.00  0.00    +0.000 A 
ATOM     18  C   UNL     1       5.440   4.745  19.170  0.00  0.00    +0.000 A 
ATOM     19  C   UNL     1       6.716   5.320  19.185  0.00  0.00    +0.000 A 
ATOM     20  C   UNL     1       7.375   5.591  17.987  0.00  0.00    +0.000 A 
ATOM     21  C   UNL     1       6.753   5.282  16.782  0.00  0.00    +0.000 A 
ATOM     22  F   UNL     1       7.390   5.536  15.628  0.00  0.00    +0.000 F 
ATOM     23  C   UNL     1       5.485   4.703  16.764  0.00  0.00    +0.000 A 
ATOM     24  F   UNL     1       4.908   4.414  15.589  0.00  0.00    +0.000 F 
ENDBRANCH   5  17
TORSDOF 2
ENDMDL
MODEL 5
REMARK VINA RESULT:      -7.7      1.463      2.211
REMARK  Name = 
REMARK  2 active torsions:
REMARK  status: ('A' for Active; 'I' for Inactive)
REMARK    1  A    between atoms: C_5  and  C_6
REMARK    2  A    between atoms: N_14  and  C_15
REMARK                            x       y       z     vdW  Elec       q    Type
REMARK                         _______ _______ _______ _____ _____    ______ ____
ROOT
ATOM      1  O   UNL     1       1.664   3.594  19.077  0.00  0.00    +0.000 OA
ATOM      2  C   UNL     1       2.613   3.828  18.346  0.00  0.00    +0.000 C 
ATOM      3  O   UNL     1       3.322   2.838  17.723  0.00  0.00    +0.000 OA
ATOM      4  C   UNL     1       4.421   3.421  17.012  0.00  0.00    +0.000 C 
ATOM      5  C   UNL     1       4.220   4.932  17.075  0.00  0.00    +0.000 C 
ATOM      6  N   UNL     1       3.105   5.057  17.973  0.00  0.00    +0.000 N 
ENDROOT
BRANCH   6   7
ATOM      7  C   UNL     1       2.592   6.293  18.406  0.00  0.00    +0.000 A 
ATOM      8  C   UNL     1       2.517   7.373  17.516  0.00  0.00    +0.000 A 
ATOM      9  C   UNL     1       2.031   8.622  17.922  0.00  0.00    +0.000 A 
ATOM     10  C   UNL     1       1.705   8.755  19.272  0.00  0.00    +0.000 A 
ATOM     11  N   UNL     1       1.251   9.814  20.016  0.00  0.00    +0.000 N 
ATOM     12  C   UNL     1       1.152   9.405  21.315  0.00  0.00    +0.000 A 
ATOM     13  N   UNL     1       1.465   8.137  21.450  0.00  0.00    +0.000 NA
ATOM     14  C   UNL     1       1.798   7.711  20.186  0.00  0.00    +0.000 A 
ATOM     15  C   UNL     1       2.208   6.445  19.746  0.00  0.00    +0.000 A 
ATOM     16  H   UNL     1       1.049  10.740  19.670  0.00  0.00    +0.000 HD
ENDBRANCH   6   7
BRANCH   5  17
ATOM     17  C   UNL     1       5.460   5.650  17.572  0.00  0.00    +0.000 A 
ATOM     18  C   UNL     1       6.024   6.733  16.872  0.00  0.00    +0.000 A 
ATOM     19  C   UNL     1       7.182   7.365  17.336  0.00  0.00    +0.000 A 
ATOM     20  C   UNL     1       7.798   6.926  18.506  0.00  0.00    +0.000 A 
ATOM     21  C   UNL     1       7.248   5.856  19.206  0.00  0.00    +0.000 A 
ATOM     22  F   UNL     1       7.836   5.437  20.337  0.00  0.00    +0.000 F 
ATOM     23  C   UNL     1       6.090   5.229  18.748  0.00  0.00    +0.000 A 
ATOM     24  F   UNL     1       5.579   4.201  19.442  0.00  0.00    +0.000 F 
ENDBRANCH   5  17
TORSDOF 2
ENDMDL
MODEL 6
REMARK VINA RESULT:      -7.7      0.701      1.494
REMARK  Name = 
REMARK  2 active torsions:
REMARK  status: ('A' for Active; 'I' for Inactive)
REMARK    1  A    between atoms: C_5  and  C_6
REMARK    2  A    between atoms: N_14  and  C_15
REMARK                            x       y       z     vdW  Elec       q    Type
REMARK                         _______ _______ _______ _____ _____    ______ ____
ROOT
ATOM      1  O   UNL     1       1.361   3.553  19.337  0.00  0.00    +0.000 OA
ATOM      2  C   UNL     1       2.333   3.700  18.614  0.00  0.00    +0.000 C 
ATOM      3  O   UNL     1       2.992   2.645  18.044  0.00  0.00    +0.000 OA
ATOM      4  C   UNL     1       4.134   3.132  17.329  0.00  0.00    +0.000 C 
ATOM      5  C   UNL     1       4.021   4.653  17.327  0.00  0.00    +0.000 C 
ATOM      6  N   UNL     1       2.902   4.881  18.199  0.00  0.00    +0.000 N 
ENDROOT
BRANCH   6   7
ATOM      7  C   UNL     1       2.456   6.162  18.571  0.00  0.00    +0.000 A 
ATOM      8  C   UNL     1       2.420   7.196  17.626  0.00  0.00    +0.000 A 
ATOM      9  C   UNL     1       2.001   8.487  17.970  0.00  0.00    +0.000 A 
ATOM     10  C   UNL     1       1.703   8.707  19.315  0.00  0.00    +0.000 A 
ATOM     11  N   UNL     1       1.313   9.825  20.007  0.00  0.00    +0.000 N 
ATOM     12  C   UNL     1       1.214   9.491  21.328  0.00  0.00    +0.000 A 
ATOM     13  N   UNL     1       1.467   8.219  21.527  0.00  0.00    +0.000 NA
ATOM     14  C   UNL     1       1.760   7.710  20.283  0.00  0.00    +0.000 A 
ATOM     15  C   UNL     1       2.101   6.404  19.907  0.00  0.00    +0.000 A 
ATOM     16  H   UNL     1       1.150  10.741  19.614  0.00  0.00    +0.000 HD
ENDBRANCH   6   7
BRANCH   5  17
ATOM     17  C   UNL     1       5.294   5.318  17.816  0.00  0.00    +0.000 A 
ATOM     18  C   UNL     1       5.940   4.908  18.998  0.00  0.00    +0.000 A 
ATOM     19  C   UNL     1       7.100   5.552  19.443  0.00  0.00    +0.000 A 
ATOM     20  C   UNL     1       7.633   6.615  18.718  0.00  0.00    +0.000 A 
ATOM     21  C   UNL     1       7.002   7.026  17.548  0.00  0.00    +0.000 A 
ATOM     22  F   UNL     1       7.519   8.045  16.844  0.00  0.00    +0.000 F 
ATOM     23  C   UNL     1       5.849   6.383  17.099  0.00  0.00    +0.000 A 
ATOM     24  F   UNL     1       5.261   6.798  15.967  0.00  0.00    +0.000 F 
ENDBRANCH   5  17
TORSDOF 2
ENDMDL
MODEL 7
REMARK VINA RESULT:      -7.6      1.457      2.058
REMARK  Name = 
REMARK  2 active torsions:
REMARK  status: ('A' for Active; 'I' for Inactive)
REMARK    1  A    between atoms: C_5  and  C_6
REMARK    2  A    between atoms: N_14  and  C_15
REMARK                            x       y       z     vdW  Elec       q    Type
REMARK                         _______ _______ _______ _____ _____    ______ ____
ROOT
ATOM      1  O   UNL     1       1.602   3.575  21.188  0.00  0.00    +0.000 OA
ATOM      2  C   UNL     1       2.347   3.407  20.236  0.00  0.00    +0.000 C 
ATOM      3  O   UNL     1       2.874   2.184  19.921  0.00  0.00    +0.000 OA
ATOM      4  C   UNL     1       3.772   2.327  18.815  0.00  0.00    +0.000 C 
ATOM      5  C   UNL     1       3.606   3.758  18.311  0.00  0.00    +0.000 C 
ATOM      6  N   UNL     1       2.745   4.337  19.304  0.00  0.00    +0.000 N 
ENDROOT
BRANCH   6   7
ATOM      7  C   UNL     1       2.365   5.691  19.307  0.00  0.00    +0.000 A 
ATOM      8  C   UNL     1       2.526   6.469  18.153  0.00  0.00    +0.000 A 
ATOM      9  C   UNL     1       2.177   7.825  18.131  0.00  0.00    +0.000 A 
ATOM     10  C   UNL     1       1.739   8.375  19.335  0.00  0.00    +0.000 A 
ATOM     11  N   UNL     1       1.361   9.645  19.691  0.00  0.00    +0.000 N 
ATOM     12  C   UNL     1       1.079   9.642  21.027  0.00  0.00    +0.000 A 
ATOM     13  N   UNL     1       1.201   8.442  21.547  0.00  0.00    +0.000 NA
ATOM     14  C   UNL     1       1.598   7.637  20.505  0.00  0.00    +0.000 A 
ATOM     15  C   UNL     1       1.873   6.263  20.490  0.00  0.00    +0.000 A 
ATOM     16  H   UNL     1       1.322  10.447  19.080  0.00  0.00    +0.000 HD
ENDBRANCH   6   7
BRANCH   5  17
ATOM     17  C   UNL     1       4.938   4.476  18.194  0.00  0.00    +0.000 A 
ATOM     18  C   UNL     1       5.641   4.928  19.327  0.00  0.00    +0.000 A 
ATOM     19  C   UNL     1       6.855   5.611  19.195  0.00  0.00    +0.000 A 
ATOM     20  C   UNL     1       7.387   5.853  17.931  0.00  0.00    +0.000 A 
ATOM     21  C   UNL     1       6.700   5.409  16.805  0.00  0.00    +0.000 A 
ATOM     22  F   UNL     1       7.216   5.636  15.587  0.00  0.00    +0.000 F 
ATOM     23  C   UNL     1       5.493   4.724  16.934  0.00  0.00    +0.000 A 
ATOM     24  F   UNL     1       4.851   4.306  15.833  0.00  0.00    +0.000 F 
ENDBRANCH   5  17
TORSDOF 2
ENDMDL
MODEL 8
REMARK VINA RESULT:      -7.6      2.822      5.102
REMARK  Name = 
REMARK  2 active torsions:
REMARK  status: ('A' for Active; 'I' for Inactive)
REMARK    1  A    between atoms: C_5  and  C_6
REMARK    2  A    between atoms: N_14  and  C_15
REMARK                            x       y       z     vdW  Elec       q    Type
REMARK                         _______ _______ _______ _____ _____    ______ ____
ROOT
ATOM      1  O   UNL     1       4.349   3.376  16.079  0.00  0.00    +0.000 OA
ATOM      2  C   UNL     1       3.577   3.759  16.943  0.00  0.00    +0.000 C 
ATOM      3  O   UNL     1       2.288   3.307  17.029  0.00  0.00    +0.000 OA
ATOM      4  C   UNL     1       1.613   4.005  18.083  0.00  0.00    +0.000 C 
ATOM      5  C   UNL     1       2.680   4.817  18.811  0.00  0.00    +0.000 C 
ATOM      6  N   UNL     1       3.835   4.627  17.978  0.00  0.00    +0.000 N 
ENDROOT
BRANCH   6   7
ATOM      7  C   UNL     1       5.070   5.257  18.209  0.00  0.00    +0.000 A 
ATOM      8  C   UNL     1       5.895   4.826  19.258  0.00  0.00    +0.000 A 
ATOM      9  C   UNL     1       7.121   5.447  19.526  0.00  0.00    +0.000 A 
ATOM     10  C   UNL     1       7.437   6.563  18.751  0.00  0.00    +0.000 A 
ATOM     11  N   UNL     1       8.504   7.425  18.759  0.00  0.00    +0.000 N 
ATOM     12  C   UNL     1       8.276   8.387  17.816  0.00  0.00    +0.000 A 
ATOM     13  N   UNL     1       7.156   8.174  17.166  0.00  0.00    +0.000 NA
ATOM     14  C   UNL     1       6.626   7.034  17.724  0.00  0.00    +0.000 A 
ATOM     15  C   UNL     1       5.442   6.352  17.414  0.00  0.00    +0.000 A 
ATOM     16  H   UNL     1       9.306   7.373  19.370  0.00  0.00    +0.000 HD
ENDBRANCH   6   7
BRANCH   5  17
ATOM     17  C   UNL     1       2.287   6.276  18.949  0.00  0.00    +0.000 A 
ATOM     18  C   UNL     1       2.250   7.144  17.841  0.00  0.00    +0.000 A 
ATOM     19  C   UNL     1       1.908   8.492  17.995  0.00  0.00    +0.000 A 
ATOM     20  C   UNL     1       1.599   8.996  19.256  0.00  0.00    +0.000 A 
ATOM     21  C   UNL     1       1.632   8.146  20.357  0.00  0.00    +0.000 A 
ATOM     22  F   UNL     1       1.327   8.628  21.571  0.00  0.00    +0.000 F 
ATOM     23  C   UNL     1       1.966   6.801  20.205  0.00  0.00    +0.000 A 
ATOM     24  F   UNL     1       1.990   6.002  21.282  0.00  0.00    +0.000 F 
ENDBRANCH   5  17
TORSDOF 2
ENDMDL
MODEL 9
REMARK VINA RESULT:      -7.6      2.986      4.692
REMARK  Name = 
REMARK  2 active torsions:
REMARK  status: ('A' for Active; 'I' for Inactive)
REMARK    1  A    between atoms: C_5  and  C_6
REMARK    2  A    between atoms: N_14  and  C_15
REMARK                            x       y       z     vdW  Elec       q    Type
REMARK                         _______ _______ _______ _____ _____    ______ ____
ROOT
ATOM      1  O   UNL     1       5.017   7.175  16.582  0.00  0.00    +0.000 OA
ATOM      2  C   UNL     1       4.899   6.284  17.408  0.00  0.00    +0.000 C 
ATOM      3  O   UNL     1       5.754   5.216  17.464  0.00  0.00    +0.000 OA
ATOM      4  C   UNL     1       5.304   4.305  18.475  0.00  0.00    +0.000 C 
ATOM      5  C   UNL     1       4.172   5.011  19.215  0.00  0.00    +0.000 C 
ATOM      6  N   UNL     1       3.979   6.196  18.426  0.00  0.00    +0.000 N 
ENDROOT
BRANCH   6   7
ATOM      7  C   UNL     1       2.969   7.141  18.680  0.00  0.00    +0.000 A 
ATOM      8  C   UNL     1       2.564   8.026  17.672  0.00  0.00    +0.000 A 
ATOM      9  C   UNL     1       1.577   8.993  17.900  0.00  0.00    +0.000 A 
ATOM     10  C   UNL     1       1.081   9.081  19.200  0.00  0.00    +0.000 A 
ATOM     11  N   UNL     1       0.162   9.913  19.787  0.00  0.00    +0.000 N 
ATOM     12  C   UNL     1       0.094   9.598  21.115  0.00  0.00    +0.000 A 
ATOM     13  N   UNL     1       0.872   8.583  21.413  0.00  0.00    +0.000 NA
ATOM     14  C   UNL     1       1.484   8.238  20.231  0.00  0.00    +0.000 A 
ATOM     15  C   UNL     1       2.412   7.222  19.966  0.00  0.00    +0.000 A 
ATOM     16  H   UNL     1      -0.357  10.646  19.326  0.00  0.00    +0.000 HD
ENDBRANCH   6   7
BRANCH   5  17
ATOM     17  C   UNL     1       2.925   4.150  19.297  0.00  0.00    +0.000 A 
ATOM     18  C   UNL     1       2.250   3.705  18.144  0.00  0.00    +0.000 A 
ATOM     19  C   UNL     1       1.088   2.932  18.244  0.00  0.00    +0.000 A 
ATOM     20  C   UNL     1       0.580   2.591  19.496  0.00  0.00    +0.000 A 
ATOM     21  C   UNL     1       1.240   3.025  20.641  0.00  0.00    +0.000 A 
ATOM     22  F   UNL     1       0.756   2.691  21.847  0.00  0.00    +0.000 F 
ATOM     23  C   UNL     1       2.402   3.790  20.544  0.00  0.00    +0.000 A 
ATOM     24  F   UNL     1       3.020   4.195  21.663  0.00  0.00    +0.000 F 
ENDBRANCH   5  17
TORSDOF 2
ENDMDL
