MODEL 1
REMARK VINA RESULT:      -5.8      0.000      0.000
REMARK  Name = 
REMARK  2 active torsions:
REMARK  status: ('A' for Active; 'I' for Inactive)
REMARK    1  A    between atoms: C_1  and  C_8
REMARK    2  A    between atoms: N_2  and  C_3
REMARK                            x       y       z     vdW  Elec       q    Type
REMARK                         _______ _______ _______ _____ _____    ______ ____
ROOT
ATOM      1  C   UNL     1       4.275   5.036  19.331  0.00  0.00    +0.000 C 
ATOM      2  N   UNL     1       5.426   4.453  19.324  0.00  0.00    +0.000 NA
ENDROOT
BRANCH   2   3
ATOM      3  C   UNL     1       6.473   5.316  19.029  0.00  0.00    +0.000 A 
ATOM      4  N   UNL     1       6.595   6.131  17.936  0.00  0.00    +0.000 NA
ATOM      5  C   UNL     1       7.729   6.755  18.159  0.00  0.00    +0.000 A 
ATOM      6  N   UNL     1       8.256   6.326  19.333  0.00  0.00    +0.000 N 
ATOM      7  N   UNL     1       7.475   5.405  19.906  0.00  0.00    +0.000 NA
ATOM      8  H   UNL     1       9.113   6.609  19.797  0.00  0.00    +0.000 HD
ENDBRANCH   2   3
BRANCH   1   9
ATOM      9  C   UNL     1       3.095   4.267  19.662  0.00  0.00    +0.000 A 
ATOM     10  C   UNL     1       2.020   4.634  20.447  0.00  0.00    +0.000 A 
ATOM     11  C   UNL     1       1.032   3.612  20.524  0.00  0.00    +0.000 A 
ATOM     12  C   UNL     1       1.389   2.498  19.798  0.00  0.00    +0.000 A 
ATOM     13  S   UNL     1       2.908   2.689  19.032  0.00  0.00    +0.000 S 
ENDBRANCH   1   9
TORSDOF 2
ENDMDL
MODEL 2
REMARK VINA RESULT:      -5.6      1.769      1.897
REMARK  Name = 
REMARK  2 active torsions:
REMARK  status: ('A' for Active; 'I' for Inactive)
REMARK    1  A    between atoms: C_1  and  C_8
REMARK    2  A    between atoms: N_2  and  C_3
REMARK                            x       y       z     vdW  Elec       q    Type
REMARK                         _______ _______ _______ _____ _____    ______ ____
ROOT
ATOM      1  C   UNL     1       4.066   3.587  18.554  0.00  0.00    +0.000 C 
ATOM      2  N   UNL     1       4.928   4.537  18.693  0.00  0.00    +0.000 NA
ENDROOT
BRANCH   2   3
ATOM      3  C   UNL     1       5.953   4.484  17.757  0.00  0.00    +0.000 A 
ATOM      4  N   UNL     1       5.836   4.518  16.394  0.00  0.00    +0.000 NA
ATOM      5  C   UNL     1       7.085   4.479  15.990  0.00  0.00    +0.000 A 
ATOM      6  N   UNL     1       7.906   4.423  17.069  0.00  0.00    +0.000 N 
ATOM      7  N   UNL     1       7.207   4.420  18.208  0.00  0.00    +0.000 NA
ATOM      8  H   UNL     1       8.919   4.391  17.106  0.00  0.00    +0.000 HD
ENDBRANCH   2   3
BRANCH   1   9
ATOM      9  C   UNL     1       2.920   3.539  19.435  0.00  0.00    +0.000 A 
ATOM     10  C   UNL     1       1.678   4.120  19.267  0.00  0.00    +0.000 A 
ATOM     11  C   UNL     1       0.794   3.830  20.344  0.00  0.00    +0.000 A 
ATOM     12  C   UNL     1       1.393   3.041  21.301  0.00  0.00    +0.000 A 
ATOM     13  S   UNL     1       3.011   2.657  20.897  0.00  0.00    +0.000 S 
ENDBRANCH   1   9
TORSDOF 2
ENDMDL
MODEL 3
REMARK VINA RESULT:      -5.5      1.859      2.036
REMARK  Name = 
REMARK  2 active torsions:
REMARK  status: ('A' for Active; 'I' for Inactive)
REMARK    1  A    between atoms: C_1  and  C_8
REMARK    2  A    between atoms: N_2  and  C_3
REMARK                            x       y       z     vdW  Elec       q    Type
REMARK                         _______ _______ _______ _____ _____    ______ ____
ROOT
ATOM      1  C   UNL     1       4.154   3.515  18.522  0.00  0.00    +0.000 C 
ATOM      2  N   UNL     1       5.180   4.244  18.810  0.00  0.00    +0.000 NA
ENDROOT
BRANCH   2   3
ATOM      3  C   UNL     1       6.072   4.373  17.754  0.00  0.00    +0.000 A 
ATOM      4  N   UNL     1       5.774   4.454  16.420  0.00  0.00    +0.000 NA
ATOM      5  C   UNL     1       6.954   4.604  15.864  0.00  0.00    +0.000 A 
ATOM      6  N   UNL     1       7.910   4.609  16.827  0.00  0.00    +0.000 N 
ATOM      7  N   UNL     1       7.371   4.459  18.042  0.00  0.00    +0.000 NA
ATOM      8  H   UNL     1       8.915   4.713  16.738  0.00  0.00    +0.000 HD
ENDBRANCH   2   3
BRANCH   1   9
ATOM      9  C   UNL     1       3.120   3.325  19.515  0.00  0.00    +0.000 A 
ATOM     10  C   UNL     1       3.218   2.733  20.758  0.00  0.00    +0.000 A 
ATOM     11  C   UNL     1       1.983   2.750  21.465  0.00  0.00    +0.000 A 
ATOM     12  C   UNL     1       0.982   3.352  20.735  0.00  0.00    +0.000 A 
ATOM     13  S   UNL     1       1.536   3.889  19.207  0.00  0.00    +0.000 S 
ENDBRANCH   1   9
TORSDOF 2
ENDMDL
MODEL 4
REMARK VINA RESULT:      -5.5      1.118      1.193
REMARK  Name = 
REMARK  2 active torsions:
REMARK  status: ('A' for Active; 'I' for Inactive)
REMARK    1  A    between atoms: C_1  and  C_8
REMARK    2  A    between atoms: N_2  and  C_3
REMARK                            x       y       z     vdW  Elec       q    Type
REMARK                         _______ _______ _______ _____ _____    ______ ____
ROOT
ATOM      1  C   UNL     1       4.393   4.610  18.675  0.00  0.00    +0.000 C 
ATOM      2  N   UNL     1       5.507   4.278  19.237  0.00  0.00    +0.000 NA
ENDROOT
BRANCH   2   3
ATOM      3  C   UNL     1       6.525   5.195  19.015  0.00  0.00    +0.000 A 
ATOM      4  N   UNL     1       6.686   6.011  17.928  0.00  0.00    +0.000 NA
ATOM      5  C   UNL     1       7.765   6.695  18.230  0.00  0.00    +0.000 A 
ATOM      6  N   UNL     1       8.224   6.300  19.444  0.00  0.00    +0.000 N 
ATOM      7  N   UNL     1       7.452   5.339  19.963  0.00  0.00    +0.000 NA
ATOM      8  H   UNL     1       9.027   6.630  19.969  0.00  0.00    +0.000 HD
ENDBRANCH   2   3
BRANCH   1   9
ATOM      9  C   UNL     1       3.232   3.768  18.855  0.00  0.00    +0.000 A 
ATOM     10  C   UNL     1       3.101   2.635  19.633  0.00  0.00    +0.000 A 
ATOM     11  C   UNL     1       1.790   2.084  19.573  0.00  0.00    +0.000 A 
ATOM     12  C   UNL     1       0.964   2.814  18.746  0.00  0.00    +0.000 A 
ATOM     13  S   UNL     1       1.774   4.152  18.049  0.00  0.00    +0.000 S 
ENDBRANCH   1   9
TORSDOF 2
ENDMDL
MODEL 5
REMARK VINA RESULT:      -5.5      2.840      3.202
REMARK  Name = 
REMARK  2 active torsions:
REMARK  status: ('A' for Active; 'I' for Inactive)
REMARK    1  A    between atoms: C_1  and  C_8
REMARK    2  A    between atoms: N_2  and  C_3
REMARK                            x       y       z     vdW  Elec       q    Type
REMARK                         _______ _______ _______ _____ _____    ______ ____
ROOT
ATOM      1  C   UNL     1       4.292   4.271  16.732  0.00  0.00    +0.000 C 
ATOM      2  N   UNL     1       5.570   4.257  16.909  0.00  0.00    +0.000 NA
ENDROOT
BRANCH   2   3
ATOM      3  C   UNL     1       6.285   4.522  15.749  0.00  0.00    +0.000 A 
ATOM      4  N   UNL     1       6.116   3.946  14.519  0.00  0.00    +0.000 NA
ATOM      5  C   UNL     1       7.002   4.569  13.777  0.00  0.00    +0.000 A 
ATOM      6  N   UNL     1       7.669   5.475  14.536  0.00  0.00    +0.000 N 
ATOM      7  N   UNL     1       7.231   5.461  15.800  0.00  0.00    +0.000 NA
ATOM      8  H   UNL     1       8.405   6.121  14.272  0.00  0.00    +0.000 HD
ENDBRANCH   2   3
BRANCH   1   9
ATOM      9  C   UNL     1       3.418   4.050  17.863  0.00  0.00    +0.000 A 
ATOM     10  C   UNL     1       2.051   4.223  17.942  0.00  0.00    +0.000 A 
ATOM     11  C   UNL     1       1.534   3.880  19.224  0.00  0.00    +0.000 A 
ATOM     12  C   UNL     1       2.527   3.461  20.081  0.00  0.00    +0.000 A 
ATOM     13  S   UNL     1       4.070   3.485  19.339  0.00  0.00    +0.000 S 
ENDBRANCH   1   9
TORSDOF 2
ENDMDL
MODEL 6
REMARK VINA RESULT:      -5.4      0.998      1.250
REMARK  Name = 
REMARK  2 active torsions:
REMARK  status: ('A' for Active; 'I' for Inactive)
REMARK    1  A    between atoms: C_1  and  C_8
REMARK    2  A    between atoms: N_2  and  C_3
REMARK                            x       y       z     vdW  Elec       q    Type
REMARK                         _______ _______ _______ _____ _____    ______ ____
ROOT
ATOM      1  C   UNL     1       4.196   4.669  18.692  0.00  0.00    +0.000 C 
ATOM      2  N   UNL     1       5.084   4.801  19.619  0.00  0.00    +0.000 NA
ENDROOT
BRANCH   2   3
ATOM      3  C   UNL     1       6.234   5.447  19.185  0.00  0.00    +0.000 A 
ATOM      4  N   UNL     1       6.390   6.190  18.046  0.00  0.00    +0.000 NA
ATOM      5  C   UNL     1       7.635   6.601  18.132  0.00  0.00    +0.000 A 
ATOM      6  N   UNL     1       8.192   6.120  19.272  0.00  0.00    +0.000 N 
ATOM      7  N   UNL     1       7.318   5.377  19.959  0.00  0.00    +0.000 NA
ATOM      8  H   UNL     1       9.127   6.255  19.639  0.00  0.00    +0.000 HD
ENDBRANCH   2   3
BRANCH   1   9
ATOM      9  C   UNL     1       2.929   4.049  19.009  0.00  0.00    +0.000 A 
ATOM     10  C   UNL     1       2.195   3.154  18.257  0.00  0.00    +0.000 A 
ATOM     11  C   UNL     1       1.001   2.744  18.914  0.00  0.00    +0.000 A 
ATOM     12  C   UNL     1       0.861   3.345  20.145  0.00  0.00    +0.000 A 
ATOM     13  S   UNL     1       2.165   4.396  20.499  0.00  0.00    +0.000 S 
ENDBRANCH   1   9
TORSDOF 2
ENDMDL
MODEL 7
REMARK VINA RESULT:      -5.4      2.425      2.722
REMARK  Name = 
REMARK  2 active torsions:
REMARK  status: ('A' for Active; 'I' for Inactive)
REMARK    1  A    between atoms: C_1  and  C_8
REMARK    2  A    between atoms: N_2  and  C_3
REMARK                            x       y       z     vdW  Elec       q    Type
REMARK                         _______ _______ _______ _____ _____    ______ ____
ROOT
ATOM      1  C   UNL     1       4.279   3.669  17.956  0.00  0.00    +0.000 C 
ATOM      2  N   UNL     1       4.195   4.049  16.726  0.00  0.00    +0.000 NA
ENDROOT
BRANCH   2   3
ATOM      3  C   UNL     1       5.430   4.319  16.153  0.00  0.00    +0.000 A 
ATOM      4  N   UNL     1       5.710   4.490  14.824  0.00  0.00    +0.000 NA
ATOM      5  C   UNL     1       6.996   4.756  14.825  0.00  0.00    +0.000 A 
ATOM      6  N   UNL     1       7.458   4.741  16.101  0.00  0.00    +0.000 N 
ATOM      7  N   UNL     1       6.478   4.460  16.966  0.00  0.00    +0.000 NA
ATOM      8  H   UNL     1       8.395   4.913  16.449  0.00  0.00    +0.000 HD
ENDBRANCH   2   3
BRANCH   1   9
ATOM      9  C   UNL     1       3.072   3.315  18.671  0.00  0.00    +0.000 A 
ATOM     10  C   UNL     1       1.777   3.256  18.197  0.00  0.00    +0.000 A 
ATOM     11  C   UNL     1       0.852   2.843  19.198  0.00  0.00    +0.000 A 
ATOM     12  C   UNL     1       1.474   2.606  20.404  0.00  0.00    +0.000 A 
ATOM     13  S   UNL     1       3.161   2.882  20.321  0.00  0.00    +0.000 S 
ENDBRANCH   1   9
TORSDOF 2
ENDMDL
MODEL 8
REMARK VINA RESULT:      -5.3      0.805      1.240
REMARK  Name = 
REMARK  2 active torsions:
REMARK  status: ('A' for Active; 'I' for Inactive)
REMARK    1  A    between atoms: C_1  and  C_8
REMARK    2  A    between atoms: N_2  and  C_3
REMARK                            x       y       z     vdW  Elec       q    Type
REMARK                         _______ _______ _______ _____ _____    ______ ____
ROOT
ATOM      1  C   UNL     1       3.981   4.849  19.083  0.00  0.00    +0.000 C 
ATOM      2  N   UNL     1       5.104   4.227  18.954  0.00  0.00    +0.000 NA
ENDROOT
BRANCH   2   3
ATOM      3  C   UNL     1       6.189   5.082  18.817  0.00  0.00    +0.000 A 
ATOM      4  N   UNL     1       7.162   5.344  19.744  0.00  0.00    +0.000 NA
ATOM      5  C   UNL     1       7.957   6.174  19.109  0.00  0.00    +0.000 A 
ATOM      6  N   UNL     1       7.475   6.395  17.860  0.00  0.00    +0.000 N 
ATOM      7  N   UNL     1       6.345   5.712  17.651  0.00  0.00    +0.000 NA
ATOM      8  H   UNL     1       7.851   6.974  17.117  0.00  0.00    +0.000 HD
ENDBRANCH   2   3
BRANCH   1   9
ATOM      9  C   UNL     1       2.767   4.086  19.274  0.00  0.00    +0.000 A 
ATOM     10  C   UNL     1       1.851   4.170  20.303  0.00  0.00    +0.000 A 
ATOM     11  C   UNL     1       0.763   3.267  20.135  0.00  0.00    +0.000 A 
ATOM     12  C   UNL     1       0.889   2.521  18.984  0.00  0.00    +0.000 A 
ATOM     13  S   UNL     1       2.313   2.913  18.118  0.00  0.00    +0.000 S 
ENDBRANCH   1   9
TORSDOF 2
ENDMDL
MODEL 9
REMARK VINA RESULT:      -5.3      2.194      2.430
REMARK  Name = 
REMARK  2 active torsions:
REMARK  status: ('A' for Active; 'I' for Inactive)
REMARK    1  A    between atoms: C_1  and  C_8
REMARK    2  A    between atoms: N_2  and  C_3
REMARK                            x       y       z     vdW  Elec       q    Type
REMARK                         _______ _______ _______ _____ _____    ______ ____
ROOT
ATOM      1  C   UNL     1       4.073   4.392  18.119  0.00  0.00    +0.000 C 
ATOM      2  N   UNL     1       4.295   3.750  17.023  0.00  0.00    +0.000 NA
ENDROOT
BRANCH   2   3
ATOM      3  C   UNL     1       5.477   4.126  16.400  0.00  0.00    +0.000 A 
ATOM      4  N   UNL     1       5.716   4.215  15.055  0.00  0.00    +0.000 NA
ATOM      5  C   UNL     1       6.956   4.644  15.004  0.00  0.00    +0.000 A 
ATOM      6  N   UNL     1       7.431   4.801  16.265  0.00  0.00    +0.000 N 
ATOM      7  N   UNL     1       6.507   4.472  17.174  0.00  0.00    +0.000 NA
ATOM      8  H   UNL     1       8.342   5.122  16.575  0.00  0.00    +0.000 HD
ENDBRANCH   2   3
BRANCH   1   9
ATOM      9  C   UNL     1       2.895   4.077  18.898  0.00  0.00    +0.000 A 
ATOM     10  C   UNL     1       2.363   4.763  19.972  0.00  0.00    +0.000 A 
ATOM     11  C   UNL     1       1.175   4.156  20.468  0.00  0.00    +0.000 A 
ATOM     12  C   UNL     1       0.844   3.023  19.758  0.00  0.00    +0.000 A 
ATOM     13  S   UNL     1       1.963   2.700  18.504  0.00  0.00    +0.000 S 
ENDBRANCH   1   9
TORSDOF 2
ENDMDL
