MODEL 1
REMARK VINA RESULT:      -7.5      0.000      0.000
REMARK  Name = 
REMARK  3 active torsions:
REMARK  status: ('A' for Active; 'I' for Inactive)
REMARK    1  A    between atoms: O_1  and  C_2
REMARK    2  A    between atoms: C_7  and  N_8
REMARK    3  A    between atoms: C_11  and  C_12
REMARK                            x       y       z     vdW  Elec       q    Type
REMARK                         _______ _______ _______ _____ _____    ______ ____
ROOT
ATOM      1  N   UNL     1       3.325   1.952  19.318  0.00  0.00    +0.000 NA
ATOM      2  C   UNL     1       4.568   2.654  19.572  0.00  0.00    +0.000 C 
ATOM      3  C   UNL     1       4.561   4.075  19.045  0.00  0.00    +0.000 C 
ATOM      4  C   UNL     1       3.995   4.223  17.617  0.00  0.00    +0.000 C 
ATOM      5  C   UNL     1       3.049   3.110  17.115  0.00  0.00    +0.000 C 
ATOM      6  C   UNL     1       3.133   1.795  17.879  0.00  0.00    +0.000 C 
ENDROOT
BRANCH   1  12
ATOM      7  C   UNL     1       2.382   2.796  21.528  0.00  0.00    +0.000 C 
ATOM      8  C   UNL     1       2.541   4.316  21.539  0.00  0.00    +0.000 C 
ATOM      9  C   UNL     1       1.398   5.070  20.866  0.00  0.00    +0.000 C 
ATOM     10  C   UNL     1       0.801   4.437  19.615  0.00  0.00    +0.000 C 
ATOM     11  C   UNL     1       0.863   2.915  19.534  0.00  0.00    +0.000 C 
ATOM     12  C   UNL     1       2.107   2.202  20.121  0.00  0.00    +0.000 C 
BRANCH   7  13
ATOM     13  O   UNL     1       1.274   2.459  22.381  0.00  0.00    +0.000 OA
ATOM     14  H   UNL     1       1.061   3.248  22.906  0.00  0.00    +0.000 HD
ENDBRANCH   7  13
ENDBRANCH   1  12
BRANCH   4  15
ATOM     15  C   UNL     1       5.124   4.423  16.623  0.00  0.00    +0.000 A 
ATOM     16  C   UNL     1       4.892   4.347  15.242  0.00  0.00    +0.000 A 
ATOM     17  C   UNL     1       5.940   4.520  14.339  0.00  0.00    +0.000 A 
ATOM     18  C   UNL     1       7.218   4.787  14.809  0.00  0.00    +0.000 A 
ATOM     19  C   UNL     1       7.458   4.880  16.179  0.00  0.00    +0.000 A 
ATOM     20  C   UNL     1       6.417   4.698  17.082  0.00  0.00    +0.000 A 
ENDBRANCH   4  15
TORSDOF 3
ENDMDL
MODEL 2
REMARK VINA RESULT:      -7.4      0.096      1.109
REMARK  Name = 
REMARK  3 active torsions:
REMARK  status: ('A' for Active; 'I' for Inactive)
REMARK    1  A    between atoms: O_1  and  C_2
REMARK    2  A    between atoms: C_7  and  N_8
REMARK    3  A    between atoms: C_11  and  C_12
REMARK                            x       y       z     vdW  Elec       q    Type
REMARK                         _______ _______ _______ _____ _____    ______ ____
ROOT
ATOM      1  N   UNL     1       3.409   1.978  19.335  0.00  0.00    +0.000 NA
ATOM      2  C   UNL     1       4.613   2.748  19.575  0.00  0.00    +0.000 C 
ATOM      3  C   UNL     1       4.548   4.144  18.989  0.00  0.00    +0.000 C 
ATOM      4  C   UNL     1       3.996   4.206  17.549  0.00  0.00    +0.000 C 
ATOM      5  C   UNL     1       3.110   3.030  17.083  0.00  0.00    +0.000 C 
ATOM      6  C   UNL     1       3.246   1.753  17.902  0.00  0.00    +0.000 C 
ENDROOT
BRANCH   1  12
ATOM      7  C   UNL     1       2.401   2.808  21.522  0.00  0.00    +0.000 C 
ATOM      8  C   UNL     1       2.526   4.331  21.531  0.00  0.00    +0.000 C 
ATOM      9  C   UNL     1       1.381   5.056  20.832  0.00  0.00    +0.000 C 
ATOM     10  C   UNL     1       0.824   4.405  19.571  0.00  0.00    +0.000 C 
ATOM     11  C   UNL     1       0.922   2.886  19.497  0.00  0.00    +0.000 C 
ATOM     12  C   UNL     1       2.169   2.202  20.112  0.00  0.00    +0.000 C 
BRANCH   7  13
ATOM     13  O   UNL     1       1.284   2.448  22.354  0.00  0.00    +0.000 OA
ATOM     14  H   UNL     1       0.718   3.234  22.436  0.00  0.00    +0.000 HD
ENDBRANCH   7  13
ENDBRANCH   1  12
BRANCH   4  15
ATOM     15  C   UNL     1       5.128   4.418  16.561  0.00  0.00    +0.000 A 
ATOM     16  C   UNL     1       6.402   4.813  16.995  0.00  0.00    +0.000 A 
ATOM     17  C   UNL     1       7.430   5.018  16.076  0.00  0.00    +0.000 A 
ATOM     18  C   UNL     1       7.197   4.811  14.724  0.00  0.00    +0.000 A 
ATOM     19  C   UNL     1       5.938   4.404  14.281  0.00  0.00    +0.000 A 
ATOM     20  C   UNL     1       4.909   4.209  15.195  0.00  0.00    +0.000 A 
ENDBRANCH   4  15
TORSDOF 3
ENDMDL
MODEL 3
REMARK VINA RESULT:      -7.3      2.018      3.652
REMARK  Name = 
REMARK  3 active torsions:
REMARK  status: ('A' for Active; 'I' for Inactive)
REMARK    1  A    between atoms: O_1  and  C_2
REMARK    2  A    between atoms: C_7  and  N_8
REMARK    3  A    between atoms: C_11  and  C_12
REMARK                            x       y       z     vdW  Elec       q    Type
REMARK                         _______ _______ _______ _____ _____    ______ ____
ROOT
ATOM      1  N   UNL     1       5.218   5.896  17.961  0.00  0.00    +0.000 NA
ATOM      2  C   UNL     1       4.478   6.009  16.720  0.00  0.00    +0.000 C 
ATOM      3  C   UNL     1       4.457   4.720  15.924  0.00  0.00    +0.000 C 
ATOM      4  C   UNL     1       5.825   4.015  15.818  0.00  0.00    +0.000 C 
ATOM      5  C   UNL     1       6.875   4.346  16.901  0.00  0.00    +0.000 C 
ATOM      6  C   UNL     1       6.626   5.636  17.672  0.00  0.00    +0.000 C 
ENDROOT
BRANCH   1  12
ATOM      7  C   UNL     1       3.185   5.604  19.466  0.00  0.00    +0.000 C 
ATOM      8  C   UNL     1       2.150   4.800  18.681  0.00  0.00    +0.000 C 
ATOM      9  C   UNL     1       2.326   3.288  18.777  0.00  0.00    +0.000 C 
ATOM     10  C   UNL     1       3.758   2.764  18.792  0.00  0.00    +0.000 C 
ATOM     11  C   UNL     1       4.811   3.694  19.383  0.00  0.00    +0.000 C 
ATOM     12  C   UNL     1       4.655   5.218  19.150  0.00  0.00    +0.000 C 
BRANCH   7  13
ATOM     13  O   UNL     1       2.954   5.378  20.868  0.00  0.00    +0.000 OA
ATOM     14  H   UNL     1       3.776   5.017  21.243  0.00  0.00    +0.000 HD
ENDBRANCH   7  13
ENDBRANCH   1  12
BRANCH   4  15
ATOM     15  C   UNL     1       6.424   4.233  14.441  0.00  0.00    +0.000 A 
ATOM     16  C   UNL     1       7.443   5.175  14.237  0.00  0.00    +0.000 A 
ATOM     17  C   UNL     1       7.975   5.375  12.964  0.00  0.00    +0.000 A 
ATOM     18  C   UNL     1       7.506   4.626  11.894  0.00  0.00    +0.000 A 
ATOM     19  C   UNL     1       6.502   3.677  12.087  0.00  0.00    +0.000 A 
ATOM     20  C   UNL     1       5.963   3.482  13.354  0.00  0.00    +0.000 A 
ENDBRANCH   4  15
TORSDOF 3
ENDMDL
MODEL 4
REMARK VINA RESULT:      -7.2      1.994      3.492
REMARK  Name = 
REMARK  3 active torsions:
REMARK  status: ('A' for Active; 'I' for Inactive)
REMARK    1  A    between atoms: O_1  and  C_2
REMARK    2  A    between atoms: C_7  and  N_8
REMARK    3  A    between atoms: C_11  and  C_12
REMARK                            x       y       z     vdW  Elec       q    Type
REMARK                         _______ _______ _______ _____ _____    ______ ____
ROOT
ATOM      1  N   UNL     1       5.191   5.884  17.993  0.00  0.00    +0.000 NA
ATOM      2  C   UNL     1       4.448   5.983  16.751  0.00  0.00    +0.000 C 
ATOM      3  C   UNL     1       4.446   4.691  15.960  0.00  0.00    +0.000 C 
ATOM      4  C   UNL     1       5.825   4.006  15.855  0.00  0.00    +0.000 C 
ATOM      5  C   UNL     1       6.869   4.355  16.937  0.00  0.00    +0.000 C 
ATOM      6  C   UNL     1       6.602   5.644  17.704  0.00  0.00    +0.000 C 
ENDROOT
BRANCH   1  12
ATOM      7  C   UNL     1       3.164   5.571  19.503  0.00  0.00    +0.000 C 
ATOM      8  C   UNL     1       2.136   4.755  18.720  0.00  0.00    +0.000 C 
ATOM      9  C   UNL     1       2.330   3.245  18.819  0.00  0.00    +0.000 C 
ATOM     10  C   UNL     1       3.767   2.738  18.831  0.00  0.00    +0.000 C 
ATOM     11  C   UNL     1       4.811   3.680  19.419  0.00  0.00    +0.000 C 
ATOM     12  C   UNL     1       4.637   5.202  19.183  0.00  0.00    +0.000 C 
BRANCH   7  13
ATOM     13  O   UNL     1       2.938   5.345  20.905  0.00  0.00    +0.000 OA
ATOM     14  H   UNL     1       2.040   4.987  21.000  0.00  0.00    +0.000 HD
ENDBRANCH   7  13
ENDBRANCH   1  12
BRANCH   4  15
ATOM     15  C   UNL     1       6.419   4.229  14.477  0.00  0.00    +0.000 A 
ATOM     16  C   UNL     1       5.964   3.503  13.368  0.00  0.00    +0.000 A 
ATOM     17  C   UNL     1       6.528   3.708  12.109  0.00  0.00    +0.000 A 
ATOM     18  C   UNL     1       7.534   4.651  11.950  0.00  0.00    +0.000 A 
ATOM     19  C   UNL     1       7.985   5.389  13.043  0.00  0.00    +0.000 A 
ATOM     20  C   UNL     1       7.431   5.179  14.301  0.00  0.00    +0.000 A 
ENDBRANCH   4  15
TORSDOF 3
ENDMDL
MODEL 5
REMARK VINA RESULT:      -7.1      1.751      3.095
REMARK  Name = 
REMARK  3 active torsions:
REMARK  status: ('A' for Active; 'I' for Inactive)
REMARK    1  A    between atoms: O_1  and  C_2
REMARK    2  A    between atoms: C_7  and  N_8
REMARK    3  A    between atoms: C_11  and  C_12
REMARK                            x       y       z     vdW  Elec       q    Type
REMARK                         _______ _______ _______ _____ _____    ______ ____
ROOT
ATOM      1  N   UNL     1       3.503   5.196  17.595  0.00  0.00    +0.000 NA
ATOM      2  C   UNL     1       3.469   4.039  16.722  0.00  0.00    +0.000 C 
ATOM      3  C   UNL     1       4.828   3.394  16.543  0.00  0.00    +0.000 C 
ATOM      4  C   UNL     1       5.976   4.390  16.279  0.00  0.00    +0.000 C 
ATOM      5  C   UNL     1       5.766   5.848  16.743  0.00  0.00    +0.000 C 
ATOM      6  C   UNL     1       4.316   6.246  16.988  0.00  0.00    +0.000 C 
ENDROOT
BRANCH   1  12
ATOM      7  C   UNL     1       2.230   5.200  19.801  0.00  0.00    +0.000 C 
ATOM      8  C   UNL     1       1.427   3.902  19.864  0.00  0.00    +0.000 C 
ATOM      9  C   UNL     1       2.203   2.712  20.418  0.00  0.00    +0.000 C 
ATOM     10  C   UNL     1       3.673   2.609  20.026  0.00  0.00    +0.000 C 
ATOM     11  C   UNL     1       4.390   3.926  19.748  0.00  0.00    +0.000 C 
ATOM     12  C   UNL     1       3.590   5.065  19.066  0.00  0.00    +0.000 C 
BRANCH   7  13
ATOM     13  O   UNL     1       2.488   5.630  21.148  0.00  0.00    +0.000 OA
ATOM     14  H   UNL     1       1.905   6.386  21.329  0.00  0.00    +0.000 HD
ENDBRANCH   7  13
ENDBRANCH   1  12
BRANCH   4  15
ATOM     15  C   UNL     1       6.362   4.369  14.811  0.00  0.00    +0.000 A 
ATOM     16  C   UNL     1       5.684   3.551  13.897  0.00  0.00    +0.000 A 
ATOM     17  C   UNL     1       6.057   3.532  12.554  0.00  0.00    +0.000 A 
ATOM     18  C   UNL     1       7.095   4.341  12.115  0.00  0.00    +0.000 A 
ATOM     19  C   UNL     1       7.767   5.170  13.012  0.00  0.00    +0.000 A 
ATOM     20  C   UNL     1       7.404   5.184  14.353  0.00  0.00    +0.000 A 
ENDBRANCH   4  15
TORSDOF 3
ENDMDL
MODEL 6
REMARK VINA RESULT:      -7.1      1.729      3.191
REMARK  Name = 
REMARK  3 active torsions:
REMARK  status: ('A' for Active; 'I' for Inactive)
REMARK    1  A    between atoms: O_1  and  C_2
REMARK    2  A    between atoms: C_7  and  N_8
REMARK    3  A    between atoms: C_11  and  C_12
REMARK                            x       y       z     vdW  Elec       q    Type
REMARK                         _______ _______ _______ _____ _____    ______ ____
ROOT
ATOM      1  N   UNL     1       3.483   5.177  17.641  0.00  0.00    +0.000 NA
ATOM      2  C   UNL     1       3.439   4.035  16.750  0.00  0.00    +0.000 C 
ATOM      3  C   UNL     1       4.791   3.376  16.567  0.00  0.00    +0.000 C 
ATOM      4  C   UNL     1       5.953   4.362  16.325  0.00  0.00    +0.000 C 
ATOM      5  C   UNL     1       5.758   5.815  16.812  0.00  0.00    +0.000 C 
ATOM      6  C   UNL     1       4.312   6.227  17.055  0.00  0.00    +0.000 C 
ENDROOT
BRANCH   1  12
ATOM      7  C   UNL     1       2.203   5.194  19.843  0.00  0.00    +0.000 C 
ATOM      8  C   UNL     1       1.353   3.924  19.884  0.00  0.00    +0.000 C 
ATOM      9  C   UNL     1       2.085   2.699  20.423  0.00  0.00    +0.000 C 
ATOM     10  C   UNL     1       3.551   2.550  20.034  0.00  0.00    +0.000 C 
ATOM     11  C   UNL     1       4.316   3.844  19.777  0.00  0.00    +0.000 C 
ATOM     12  C   UNL     1       3.560   5.021  19.110  0.00  0.00    +0.000 C 
BRANCH   7  13
ATOM     13  O   UNL     1       2.472   5.594  21.197  0.00  0.00    +0.000 OA
ATOM     14  H   UNL     1       3.431   5.521  21.337  0.00  0.00    +0.000 HD
ENDBRANCH   7  13
ENDBRANCH   1  12
BRANCH   4  15
ATOM     15  C   UNL     1       6.347   4.361  14.860  0.00  0.00    +0.000 A 
ATOM     16  C   UNL     1       7.411   5.148  14.397  0.00  0.00    +0.000 A 
ATOM     17  C   UNL     1       7.754   5.147  13.045  0.00  0.00    +0.000 A 
ATOM     18  C   UNL     1       7.051   4.349  12.155  0.00  0.00    +0.000 A 
ATOM     19  C   UNL     1       6.000   3.551  12.606  0.00  0.00    +0.000 A 
ATOM     20  C   UNL     1       5.649   3.557  13.951  0.00  0.00    +0.000 A 
ENDBRANCH   4  15
TORSDOF 3
ENDMDL
MODEL 7
REMARK VINA RESULT:      -7.0      2.114      3.185
REMARK  Name = 
REMARK  3 active torsions:
REMARK  status: ('A' for Active; 'I' for Inactive)
REMARK    1  A    between atoms: O_1  and  C_2
REMARK    2  A    between atoms: C_7  and  N_8
REMARK    3  A    between atoms: C_11  and  C_12
REMARK                            x       y       z     vdW  Elec       q    Type
REMARK                         _______ _______ _______ _____ _____    ______ ____
ROOT
ATOM      1  N   UNL     1       2.150   4.589  17.977  0.00  0.00    +0.000 NA
ATOM      2  C   UNL     1       3.258   4.232  17.113  0.00  0.00    +0.000 C 
ATOM      3  C   UNL     1       4.524   3.906  17.879  0.00  0.00    +0.000 C 
ATOM      4  C   UNL     1       4.859   4.902  19.010  0.00  0.00    +0.000 C 
ATOM      5  C   UNL     1       3.692   5.737  19.582  0.00  0.00    +0.000 C 
ATOM      6  C   UNL     1       2.460   5.825  18.690  0.00  0.00    +0.000 C 
ENDROOT
BRANCH   1  12
ATOM      7  C   UNL     1       2.083   2.187  18.820  0.00  0.00    +0.000 C 
ATOM      8  C   UNL     1       3.096   2.076  19.959  0.00  0.00    +0.000 C 
ATOM      9  C   UNL     1       2.547   2.475  21.325  0.00  0.00    +0.000 C 
ATOM     10  C   UNL     1       1.579   3.653  21.358  0.00  0.00    +0.000 C 
ATOM     11  C   UNL     1       0.739   3.870  20.105  0.00  0.00    +0.000 C 
ATOM     12  C   UNL     1       1.385   3.570  18.729  0.00  0.00    +0.000 C 
BRANCH   7  13
ATOM     13  O   UNL     1       1.071   1.186  19.025  0.00  0.00    +0.000 OA
ATOM     14  H   UNL     1       0.723   1.305  19.925  0.00  0.00    +0.000 HD
ENDBRANCH   7  13
ENDBRANCH   1  12
BRANCH   4  15
ATOM     15  C   UNL     1       5.987   5.822  18.583  0.00  0.00    +0.000 A 
ATOM     16  C   UNL     1       7.226   5.798  19.239  0.00  0.00    +0.000 A 
ATOM     17  C   UNL     1       8.251   6.658  18.845  0.00  0.00    +0.000 A 
ATOM     18  C   UNL     1       8.049   7.532  17.786  0.00  0.00    +0.000 A 
ATOM     19  C   UNL     1       6.825   7.555  17.117  0.00  0.00    +0.000 A 
ATOM     20  C   UNL     1       5.799   6.705  17.514  0.00  0.00    +0.000 A 
ENDBRANCH   4  15
TORSDOF 3
ENDMDL
MODEL 8
REMARK VINA RESULT:      -7.0      2.916      6.286
REMARK  Name = 
REMARK  3 active torsions:
REMARK  status: ('A' for Active; 'I' for Inactive)
REMARK    1  A    between atoms: O_1  and  C_2
REMARK    2  A    between atoms: C_7  and  N_8
REMARK    3  A    between atoms: C_11  and  C_12
REMARK                            x       y       z     vdW  Elec       q    Type
REMARK                         _______ _______ _______ _____ _____    ______ ____
ROOT
ATOM      1  N   UNL     1       5.078   6.475  18.105  0.00  0.00    +0.000 NA
ATOM      2  C   UNL     1       5.483   5.560  19.154  0.00  0.00    +0.000 C 
ATOM      3  C   UNL     1       5.057   4.130  18.888  0.00  0.00    +0.000 C 
ATOM      4  C   UNL     1       3.600   3.980  18.403  0.00  0.00    +0.000 C 
ATOM      5  C   UNL     1       2.945   5.214  17.745  0.00  0.00    +0.000 C 
ATOM      6  C   UNL     1       3.620   6.545  18.049  0.00  0.00    +0.000 C 
ENDROOT
BRANCH   1  12
ATOM      7  C   UNL     1       7.259   6.047  16.862  0.00  0.00    +0.000 C 
ATOM      8  C   UNL     1       7.406   4.534  16.711  0.00  0.00    +0.000 C 
ATOM      9  C   UNL     1       6.702   3.956  15.488  0.00  0.00    +0.000 C 
ATOM     10  C   UNL     1       5.357   4.570  15.118  0.00  0.00    +0.000 C 
ATOM     11  C   UNL     1       5.159   6.035  15.490  0.00  0.00    +0.000 C 
ATOM     12  C   UNL     1       5.790   6.546  16.810  0.00  0.00    +0.000 C 
BRANCH   7  13
ATOM     13  O   UNL     1       7.984   6.675  15.791  0.00  0.00    +0.000 OA
ATOM     14  H   UNL     1       7.394   6.702  15.018  0.00  0.00    +0.000 HD
ENDBRANCH   7  13
ENDBRANCH   1  12
BRANCH   4  15
ATOM     15  C   UNL     1       2.720   3.472  19.530  0.00  0.00    +0.000 A 
ATOM     16  C   UNL     1       1.322   3.532  19.439  0.00  0.00    +0.000 A 
ATOM     17  C   UNL     1       0.525   3.074  20.488  0.00  0.00    +0.000 A 
ATOM     18  C   UNL     1       1.119   2.538  21.621  0.00  0.00    +0.000 A 
ATOM     19  C   UNL     1       2.508   2.459  21.717  0.00  0.00    +0.000 A 
ATOM     20  C   UNL     1       3.305   2.924  20.677  0.00  0.00    +0.000 A 
ENDBRANCH   4  15
TORSDOF 3
ENDMDL
MODEL 9
REMARK VINA RESULT:      -7.0      2.918      6.369
REMARK  Name = 
REMARK  3 active torsions:
REMARK  status: ('A' for Active; 'I' for Inactive)
REMARK    1  A    between atoms: O_1  and  C_2
REMARK    2  A    between atoms: C_7  and  N_8
REMARK    3  A    between atoms: C_11  and  C_12
REMARK                            x       y       z     vdW  Elec       q    Type
REMARK                         _______ _______ _______ _____ _____    ______ ____
ROOT
ATOM      1  N   UNL     1       5.112   6.462  18.103  0.00  0.00    +0.000 NA
ATOM      2  C   UNL     1       5.522   5.527  19.132  0.00  0.00    +0.000 C 
ATOM      3  C   UNL     1       5.067   4.108  18.856  0.00  0.00    +0.000 C 
ATOM      4  C   UNL     1       3.599   3.987  18.397  0.00  0.00    +0.000 C 
ATOM      5  C   UNL     1       2.952   5.241  17.768  0.00  0.00    +0.000 C 
ATOM      6  C   UNL     1       3.655   6.557  18.076  0.00  0.00    +0.000 C 
ENDROOT
BRANCH   1  12
ATOM      7  C   UNL     1       7.254   5.992  16.808  0.00  0.00    +0.000 C 
ATOM      8  C   UNL     1       7.348   4.478  16.621  0.00  0.00    +0.000 C 
ATOM      9  C   UNL     1       6.601   3.950  15.401  0.00  0.00    +0.000 C 
ATOM     10  C   UNL     1       5.270   4.615  15.071  0.00  0.00    +0.000 C 
ATOM     11  C   UNL     1       5.127   6.078  15.479  0.00  0.00    +0.000 C 
ATOM     12  C   UNL     1       5.801   6.538  16.796  0.00  0.00    +0.000 C 
BRANCH   7  13
ATOM     13  O   UNL     1       7.978   6.619  15.735  0.00  0.00    +0.000 OA
ATOM     14  H   UNL     1       8.688   7.149  16.135  0.00  0.00    +0.000 HD
ENDBRANCH   7  13
ENDBRANCH   1  12
BRANCH   4  15
ATOM     15  C   UNL     1       2.733   3.479  19.534  0.00  0.00    +0.000 A 
ATOM     16  C   UNL     1       3.304   2.883  20.667  0.00  0.00    +0.000 A 
ATOM     17  C   UNL     1       2.496   2.408  21.699  0.00  0.00    +0.000 A 
ATOM     18  C   UNL     1       1.117   2.542  21.613  0.00  0.00    +0.000 A 
ATOM     19  C   UNL     1       0.538   3.147  20.498  0.00  0.00    +0.000 A 
ATOM     20  C   UNL     1       1.341   3.612  19.463  0.00  0.00    +0.000 A 
ENDBRANCH   4  15
TORSDOF 3
ENDMDL
