MODEL 1
REMARK VINA RESULT:      -8.7      0.000      0.000
REMARK  Name = 
REMARK  4 active torsions:
REMARK  status: ('A' for Active; 'I' for Inactive)
REMARK    1  A    between atoms: C_6  and  N_7
REMARK    2  A    between atoms: N_7  and  C_8
REMARK    3  A    between atoms: C_8  and  N_10
REMARK    4  A    between atoms: C_18  and  C_19
REMARK                            x       y       z     vdW  Elec       q    Type
REMARK                         _______ _______ _______ _____ _____    ______ ____
ROOT
ATOM      1  N   UNL     1       4.144   4.675  18.055  0.00  0.00    +0.000 N 
ATOM      2  C   UNL     1       3.184   3.974  17.186  0.00  0.00    +0.000 C 
ATOM      3  C   UNL     1       2.495   2.829  17.914  0.00  0.00    +0.000 C 
ATOM      4  N   UNL     1       2.171   3.181  19.283  0.00  0.00    +0.000 N 
ATOM      5  C   UNL     1       1.388   2.440  20.123  0.00  0.00    +0.000 A 
ATOM      6  C   UNL     1       1.427   3.034  21.365  0.00  0.00    +0.000 A 
ATOM      7  C   UNL     1       2.255   4.177  21.262  0.00  0.00    +0.000 A 
ATOM      8  C   UNL     1       2.694   4.263  19.952  0.00  0.00    +0.000 A 
ATOM      9  C   UNL     1       3.594   5.282  19.291  0.00  0.00    +0.000 C 
ENDROOT
BRANCH   9  10
ATOM     10  C   UNL     1       2.907   6.617  19.077  0.00  0.00    +0.000 A 
ATOM     11  C   UNL     1       2.974   7.346  17.881  0.00  0.00    +0.000 A 
ATOM     12  C   UNL     1       2.332   8.576  17.767  0.00  0.00    +0.000 A 
ATOM     13  C   UNL     1       1.598   9.033  18.845  0.00  0.00    +0.000 A 
ATOM     14  N   UNL     1       1.468   8.352  20.001  0.00  0.00    +0.000 NA
ATOM     15  C   UNL     1       2.127   7.170  20.091  0.00  0.00    +0.000 A 
ENDBRANCH   9  10
BRANCH   1  16
ATOM     16  C   UNL     1       5.528   4.649  17.788  0.00  0.00    +0.000 C 
ATOM     17  S   UNL     1       6.656   5.466  18.717  0.00  0.00    +0.000 S 
BRANCH  16  18
ATOM     18  N   UNL     1       5.799   3.820  16.709  0.00  0.00    +0.000 N 
ATOM     19  H   UNL     1       5.899   2.857  16.994  0.00  0.00    +0.000 HD
BRANCH  18  25
ATOM     20  F   UNL     1       5.385   3.067  11.947  0.00  0.00    +0.000 F 
ATOM     21  C   UNL     1       5.963   3.683  12.985  0.00  0.00    +0.000 A 
ATOM     22  C   UNL     1       7.016   4.560  12.749  0.00  0.00    +0.000 A 
ATOM     23  C   UNL     1       7.633   5.187  13.822  0.00  0.00    +0.000 A 
ATOM     24  C   UNL     1       7.180   4.936  15.117  0.00  0.00    +0.000 A 
ATOM     25  C   UNL     1       6.112   4.053  15.358  0.00  0.00    +0.000 A 
ATOM     26  C   UNL     1       5.513   3.417  14.276  0.00  0.00    +0.000 A 
ENDBRANCH  18  25
ENDBRANCH  16  18
ENDBRANCH   1  16
TORSDOF 4
ENDMDL
MODEL 2
REMARK VINA RESULT:      -8.7      0.905      1.319
REMARK  Name = 
REMARK  4 active torsions:
REMARK  status: ('A' for Active; 'I' for Inactive)
REMARK    1  A    between atoms: C_6  and  N_7
REMARK    2  A    between atoms: N_7  and  C_8
REMARK    3  A    between atoms: C_8  and  N_10
REMARK    4  A    between atoms: C_18  and  C_19
REMARK                            x       y       z     vdW  Elec       q    Type
REMARK                         _______ _______ _______ _____ _____    ______ ____
ROOT
ATOM      1  N   UNL     1       4.082   4.703  17.910  0.00  0.00    +0.000 N 
ATOM      2  C   UNL     1       3.073   4.007  17.093  0.00  0.00    +0.000 C 
ATOM      3  C   UNL     1       2.427   2.858  17.853  0.00  0.00    +0.000 C 
ATOM      4  N   UNL     1       2.182   3.203  19.241  0.00  0.00    +0.000 N 
ATOM      5  C   UNL     1       1.449   2.457  20.121  0.00  0.00    +0.000 A 
ATOM      6  C   UNL     1       1.559   3.044  21.362  0.00  0.00    +0.000 A 
ATOM      7  C   UNL     1       2.381   4.187  21.217  0.00  0.00    +0.000 A 
ATOM      8  C   UNL     1       2.743   4.281  19.885  0.00  0.00    +0.000 A 
ATOM      9  C   UNL     1       3.604   5.303  19.179  0.00  0.00    +0.000 C 
ENDROOT
BRANCH   9  10
ATOM     10  C   UNL     1       2.908   6.640  19.012  0.00  0.00    +0.000 A 
ATOM     11  C   UNL     1       2.974   7.414  17.846  0.00  0.00    +0.000 A 
ATOM     12  C   UNL     1       2.322   8.642  17.775  0.00  0.00    +0.000 A 
ATOM     13  C   UNL     1       1.579   9.052  18.866  0.00  0.00    +0.000 A 
ATOM     14  N   UNL     1       1.450   8.326  19.994  0.00  0.00    +0.000 NA
ATOM     15  C   UNL     1       2.118   7.147  20.043  0.00  0.00    +0.000 A 
ENDBRANCH   9  10
BRANCH   1  16
ATOM     16  C   UNL     1       5.449   4.678  17.564  0.00  0.00    +0.000 C 
ATOM     17  S   UNL     1       6.625   5.510  18.416  0.00  0.00    +0.000 S 
BRANCH  16  18
ATOM     18  N   UNL     1       5.660   3.836  16.481  0.00  0.00    +0.000 N 
ATOM     19  H   UNL     1       5.519   2.867  16.728  0.00  0.00    +0.000 HD
BRANCH  18  25
ATOM     20  F   UNL     1       8.639   5.806  13.216  0.00  0.00    +0.000 F 
ATOM     21  C   UNL     1       7.606   5.012  13.525  0.00  0.00    +0.000 A 
ATOM     22  C   UNL     1       6.906   4.387  12.499  0.00  0.00    +0.000 A 
ATOM     23  C   UNL     1       5.822   3.578  12.810  0.00  0.00    +0.000 A 
ATOM     24  C   UNL     1       5.459   3.399  14.145  0.00  0.00    +0.000 A 
ATOM     25  C   UNL     1       6.169   4.029  15.184  0.00  0.00    +0.000 A 
ATOM     26  C   UNL     1       7.243   4.850  14.859  0.00  0.00    +0.000 A 
ENDBRANCH  18  25
ENDBRANCH  16  18
ENDBRANCH   1  16
TORSDOF 4
ENDMDL
MODEL 3
REMARK VINA RESULT:      -8.2      3.872      7.403
REMARK  Name = 
REMARK  4 active torsions:
REMARK  status: ('A' for Active; 'I' for Inactive)
REMARK    1  A    between atoms: C_6  and  N_7
REMARK    2  A    between atoms: N_7  and  C_8
REMARK    3  A    between atoms: C_8  and  N_10
REMARK    4  A    between atoms: C_18  and  C_19
REMARK                            x       y       z     vdW  Elec       q    Type
REMARK                         _______ _______ _______ _____ _____    ______ ____
ROOT
ATOM      1  N   UNL     1       2.756   6.426  19.544  0.00  0.00    +0.000 N 
ATOM      2  C   UNL     1       2.701   5.614  20.772  0.00  0.00    +0.000 C 
ATOM      3  C   UNL     1       1.935   4.318  20.558  0.00  0.00    +0.000 C 
ATOM      4  N   UNL     1       2.227   3.729  19.265  0.00  0.00    +0.000 N 
ATOM      5  C   UNL     1       1.843   2.480  18.862  0.00  0.00    +0.000 A 
ATOM      6  C   UNL     1       2.191   2.341  17.537  0.00  0.00    +0.000 A 
ATOM      7  C   UNL     1       2.814   3.546  17.135  0.00  0.00    +0.000 A 
ATOM      8  C   UNL     1       2.844   4.392  18.229  0.00  0.00    +0.000 A 
ATOM      9  C   UNL     1       3.393   5.794  18.363  0.00  0.00    +0.000 C 
ENDROOT
BRANCH   9  10
ATOM     10  C   UNL     1       4.909   5.830  18.380  0.00  0.00    +0.000 A 
ATOM     11  C   UNL     1       5.682   6.613  17.512  0.00  0.00    +0.000 A 
ATOM     12  C   UNL     1       7.072   6.577  17.576  0.00  0.00    +0.000 A 
ATOM     13  C   UNL     1       7.662   5.784  18.542  0.00  0.00    +0.000 A 
ATOM     14  N   UNL     1       6.964   5.044  19.427  0.00  0.00    +0.000 NA
ATOM     15  C   UNL     1       5.612   5.079  19.322  0.00  0.00    +0.000 A 
ENDBRANCH   9  10
BRANCH   1  16
ATOM     16  C   UNL     1       2.115   7.679  19.465  0.00  0.00    +0.000 C 
ATOM     17  S   UNL     1       1.845   8.481  18.021  0.00  0.00    +0.000 S 
BRANCH  16  18
ATOM     18  N   UNL     1       1.708   8.096  20.724  0.00  0.00    +0.000 N 
ATOM     19  H   UNL     1       1.968   7.432  21.440  0.00  0.00    +0.000 HD
BRANCH  18  25
ATOM     20  F   UNL     1       0.034  12.636  20.728  0.00  0.00    +0.000 F 
ATOM     21  C   UNL     1       0.060  11.401  21.245  0.00  0.00    +0.000 A 
ATOM     22  C   UNL     1      -0.697  11.127  22.379  0.00  0.00    +0.000 A 
ATOM     23  C   UNL     1      -0.660   9.855  22.931  0.00  0.00    +0.000 A 
ATOM     24  C   UNL     1       0.129   8.870  22.335  0.00  0.00    +0.000 A 
ATOM     25  C   UNL     1       0.893   9.145  21.186  0.00  0.00    +0.000 A 
ATOM     26  C   UNL     1       0.860  10.428  20.652  0.00  0.00    +0.000 A 
ENDBRANCH  18  25
ENDBRANCH  16  18
ENDBRANCH   1  16
TORSDOF 4
ENDMDL
MODEL 4
REMARK VINA RESULT:      -8.0      3.859      7.413
REMARK  Name = 
REMARK  4 active torsions:
REMARK  status: ('A' for Active; 'I' for Inactive)
REMARK    1  A    between atoms: C_6  and  N_7
REMARK    2  A    between atoms: N_7  and  C_8
REMARK    3  A    between atoms: C_8  and  N_10
REMARK    4  A    between atoms: C_18  and  C_19
REMARK                            x       y       z     vdW  Elec       q    Type
REMARK                         _______ _______ _______ _____ _____    ______ ____
ROOT
ATOM      1  N   UNL     1       2.684   6.504  19.465  0.00  0.00    +0.000 N 
ATOM      2  C   UNL     1       2.767   5.741  20.723  0.00  0.00    +0.000 C 
ATOM      3  C   UNL     1       2.065   4.396  20.615  0.00  0.00    +0.000 C 
ATOM      4  N   UNL     1       2.296   3.772  19.325  0.00  0.00    +0.000 N 
ATOM      5  C   UNL     1       1.958   2.489  18.999  0.00  0.00    +0.000 A 
ATOM      6  C   UNL     1       2.216   2.315  17.657  0.00  0.00    +0.000 A 
ATOM      7  C   UNL     1       2.735   3.536  17.165  0.00  0.00    +0.000 A 
ATOM      8  C   UNL     1       2.796   4.426  18.223  0.00  0.00    +0.000 A 
ATOM      9  C   UNL     1       3.269   5.861  18.264  0.00  0.00    +0.000 C 
ENDROOT
BRANCH   9  10
ATOM     10  C   UNL     1       4.777   5.983  18.165  0.00  0.00    +0.000 A 
ATOM     11  C   UNL     1       5.672   5.294  18.995  0.00  0.00    +0.000 A 
ATOM     12  C   UNL     1       7.045   5.474  18.856  0.00  0.00    +0.000 A 
ATOM     13  C   UNL     1       7.498   6.313  17.856  0.00  0.00    +0.000 A 
ATOM     14  N   UNL     1       6.681   6.966  17.005  0.00  0.00    +0.000 NA
ATOM     15  C   UNL     1       5.348   6.792  17.183  0.00  0.00    +0.000 A 
ENDBRANCH   9  10
BRANCH   1  16
ATOM     16  C   UNL     1       1.966   7.715  19.390  0.00  0.00    +0.000 C 
ATOM     17  S   UNL     1       1.933   8.677  18.020  0.00  0.00    +0.000 S 
BRANCH  16  18
ATOM     18  N   UNL     1       1.270   7.941  20.569  0.00  0.00    +0.000 N 
ATOM     19  H   UNL     1       1.226   7.111  21.142  0.00  0.00    +0.000 HD
BRANCH  18  25
ATOM     20  F   UNL     1      -1.084  12.149  20.162  0.00  0.00    +0.000 F 
ATOM     21  C   UNL     1      -0.653  11.120  20.901  0.00  0.00    +0.000 A 
ATOM     22  C   UNL     1      -0.893  11.124  22.271  0.00  0.00    +0.000 A 
ATOM     23  C   UNL     1      -0.432  10.070  23.047  0.00  0.00    +0.000 A 
ATOM     24  C   UNL     1       0.256   9.020  22.438  0.00  0.00    +0.000 A 
ATOM     25  C   UNL     1       0.497   9.012  21.052  0.00  0.00    +0.000 A 
ATOM     26  C   UNL     1       0.045  10.082  20.289  0.00  0.00    +0.000 A 
ENDBRANCH  18  25
ENDBRANCH  16  18
ENDBRANCH   1  16
TORSDOF 4
ENDMDL
MODEL 5
REMARK VINA RESULT:      -8.0      4.048      7.387
REMARK  Name = 
REMARK  4 active torsions:
REMARK  status: ('A' for Active; 'I' for Inactive)
REMARK    1  A    between atoms: C_6  and  N_7
REMARK    2  A    between atoms: N_7  and  C_8
REMARK    3  A    between atoms: C_8  and  N_10
REMARK    4  A    between atoms: C_18  and  C_19
REMARK                            x       y       z     vdW  Elec       q    Type
REMARK                         _______ _______ _______ _____ _____    ______ ____
ROOT
ATOM      1  N   UNL     1       2.790   6.386  19.494  0.00  0.00    +0.000 N 
ATOM      2  C   UNL     1       2.731   5.592  20.734  0.00  0.00    +0.000 C 
ATOM      3  C   UNL     1       1.988   4.280  20.529  0.00  0.00    +0.000 C 
ATOM      4  N   UNL     1       2.308   3.677  19.249  0.00  0.00    +0.000 N 
ATOM      5  C   UNL     1       1.949   2.416  18.861  0.00  0.00    +0.000 A 
ATOM      6  C   UNL     1       2.319   2.263  17.543  0.00  0.00    +0.000 A 
ATOM      7  C   UNL     1       2.928   3.472  17.131  0.00  0.00    +0.000 A 
ATOM      8  C   UNL     1       2.929   4.334  18.213  0.00  0.00    +0.000 A 
ATOM      9  C   UNL     1       3.454   5.746  18.333  0.00  0.00    +0.000 C 
ENDROOT
BRANCH   9  10
ATOM     10  C   UNL     1       4.969   5.806  18.371  0.00  0.00    +0.000 A 
ATOM     11  C   UNL     1       5.741   6.594  17.506  0.00  0.00    +0.000 A 
ATOM     12  C   UNL     1       7.131   6.581  17.590  0.00  0.00    +0.000 A 
ATOM     13  C   UNL     1       7.720   5.806  18.571  0.00  0.00    +0.000 A 
ATOM     14  N   UNL     1       7.021   5.063  19.453  0.00  0.00    +0.000 NA
ATOM     15  C   UNL     1       5.671   5.076  19.329  0.00  0.00    +0.000 A 
ENDBRANCH   9  10
BRANCH   1  16
ATOM     16  C   UNL     1       2.132   7.628  19.388  0.00  0.00    +0.000 C 
ATOM     17  S   UNL     1       1.892   8.416  17.931  0.00  0.00    +0.000 S 
BRANCH  16  18
ATOM     18  N   UNL     1       1.679   8.045  20.631  0.00  0.00    +0.000 N 
ATOM     19  H   UNL     1       1.822   7.338  21.338  0.00  0.00    +0.000 HD
BRANCH  18  25
ATOM     20  F   UNL     1      -1.429  10.325  23.557  0.00  0.00    +0.000 F 
ATOM     21  C   UNL     1      -0.630  10.315  22.483  0.00  0.00    +0.000 A 
ATOM     22  C   UNL     1      -0.575  11.444  21.672  0.00  0.00    +0.000 A 
ATOM     23  C   UNL     1       0.236  11.433  20.546  0.00  0.00    +0.000 A 
ATOM     24  C   UNL     1       0.990  10.296  20.253  0.00  0.00    +0.000 A 
ATOM     25  C   UNL     1       0.938   9.156  21.074  0.00  0.00    +0.000 A 
ATOM     26  C   UNL     1       0.109   9.172  22.190  0.00  0.00    +0.000 A 
ENDBRANCH  18  25
ENDBRANCH  16  18
ENDBRANCH   1  16
TORSDOF 4
ENDMDL
MODEL 6
REMARK VINA RESULT:      -8.0      3.016      5.585
REMARK  Name = 
REMARK  4 active torsions:
REMARK  status: ('A' for Active; 'I' for Inactive)
REMARK    1  A    between atoms: C_6  and  N_7
REMARK    2  A    between atoms: N_7  and  C_8
REMARK    3  A    between atoms: C_8  and  N_10
REMARK    4  A    between atoms: C_18  and  C_19
REMARK                            x       y       z     vdW  Elec       q    Type
REMARK                         _______ _______ _______ _____ _____    ______ ____
ROOT
ATOM      1  N   UNL     1       5.577   4.919  17.600  0.00  0.00    +0.000 N 
ATOM      2  C   UNL     1       6.277   4.647  18.867  0.00  0.00    +0.000 C 
ATOM      3  C   UNL     1       7.605   5.386  18.947  0.00  0.00    +0.000 C 
ATOM      4  N   UNL     1       7.508   6.725  18.399  0.00  0.00    +0.000 N 
ATOM      5  C   UNL     1       8.471   7.690  18.499  0.00  0.00    +0.000 A 
ATOM      6  C   UNL     1       8.066   8.768  17.744  0.00  0.00    +0.000 A 
ATOM      7  C   UNL     1       6.811   8.440  17.179  0.00  0.00    +0.000 A 
ATOM      8  C   UNL     1       6.470   7.171  17.613  0.00  0.00    +0.000 A 
ATOM      9  C   UNL     1       5.244   6.337  17.320  0.00  0.00    +0.000 C 
ENDROOT
BRANCH   9  10
ATOM     10  C   UNL     1       4.008   6.840  18.040  0.00  0.00    +0.000 A 
ATOM     11  C   UNL     1       3.202   7.886  17.570  0.00  0.00    +0.000 A 
ATOM     12  C   UNL     1       2.093   8.305  18.299  0.00  0.00    +0.000 A 
ATOM     13  C   UNL     1       1.788   7.636  19.469  0.00  0.00    +0.000 A 
ATOM     14  N   UNL     1       2.506   6.598  19.943  0.00  0.00    +0.000 NA
ATOM     15  C   UNL     1       3.596   6.231  19.225  0.00  0.00    +0.000 A 
ENDBRANCH   9  10
BRANCH   1  16
ATOM     16  C   UNL     1       5.359   3.899  16.650  0.00  0.00    +0.000 C 
ATOM     17  S   UNL     1       6.134   3.849  15.167  0.00  0.00    +0.000 S 
BRANCH  16  18
ATOM     18  N   UNL     1       4.480   2.950  17.150  0.00  0.00    +0.000 N 
ATOM     19  H   UNL     1       4.599   2.055  16.697  0.00  0.00    +0.000 HD
BRANCH  18  25
ATOM     20  F   UNL     1       2.159   2.074  21.305  0.00  0.00    +0.000 F 
ATOM     21  C   UNL     1       2.176   2.561  20.058  0.00  0.00    +0.000 A 
ATOM     22  C   UNL     1       1.007   3.090  19.523  0.00  0.00    +0.000 A 
ATOM     23  C   UNL     1       1.013   3.578  18.224  0.00  0.00    +0.000 A 
ATOM     24  C   UNL     1       2.193   3.539  17.481  0.00  0.00    +0.000 A 
ATOM     25  C   UNL     1       3.378   3.008  18.022  0.00  0.00    +0.000 A 
ATOM     26  C   UNL     1       3.355   2.506  19.318  0.00  0.00    +0.000 A 
ENDBRANCH  18  25
ENDBRANCH  16  18
ENDBRANCH   1  16
TORSDOF 4
ENDMDL
MODEL 7
REMARK VINA RESULT:      -7.8      4.077      7.448
REMARK  Name = 
REMARK  4 active torsions:
REMARK  status: ('A' for Active; 'I' for Inactive)
REMARK    1  A    between atoms: C_6  and  N_7
REMARK    2  A    between atoms: N_7  and  C_8
REMARK    3  A    between atoms: C_8  and  N_10
REMARK    4  A    between atoms: C_18  and  C_19
REMARK                            x       y       z     vdW  Elec       q    Type
REMARK                         _______ _______ _______ _____ _____    ______ ____
ROOT
ATOM      1  N   UNL     1       2.727   6.512  19.393  0.00  0.00    +0.000 N 
ATOM      2  C   UNL     1       2.791   5.749  20.652  0.00  0.00    +0.000 C 
ATOM      3  C   UNL     1       2.096   4.401  20.532  0.00  0.00    +0.000 C 
ATOM      4  N   UNL     1       2.352   3.779  19.247  0.00  0.00    +0.000 N 
ATOM      5  C   UNL     1       2.024   2.494  18.915  0.00  0.00    +0.000 A 
ATOM      6  C   UNL     1       2.306   2.322  17.577  0.00  0.00    +0.000 A 
ATOM      7  C   UNL     1       2.829   3.545  17.095  0.00  0.00    +0.000 A 
ATOM      8  C   UNL     1       2.868   4.435  18.153  0.00  0.00    +0.000 A 
ATOM      9  C   UNL     1       3.335   5.871  18.202  0.00  0.00    +0.000 C 
ENDROOT
BRANCH   9  10
ATOM     10  C   UNL     1       4.845   5.999  18.130  0.00  0.00    +0.000 A 
ATOM     11  C   UNL     1       5.728   5.290  18.956  0.00  0.00    +0.000 A 
ATOM     12  C   UNL     1       7.103   5.475  18.843  0.00  0.00    +0.000 A 
ATOM     13  C   UNL     1       7.569   6.342  17.872  0.00  0.00    +0.000 A 
ATOM     14  N   UNL     1       6.763   7.015  17.026  0.00  0.00    +0.000 NA
ATOM     15  C   UNL     1       5.428   6.834  17.178  0.00  0.00    +0.000 A 
ENDBRANCH   9  10
BRANCH   1  16
ATOM     16  C   UNL     1       2.006   7.720  19.306  0.00  0.00    +0.000 C 
ATOM     17  S   UNL     1       1.884   8.614  17.895  0.00  0.00    +0.000 S 
BRANCH  16  18
ATOM     18  N   UNL     1       1.389   8.007  20.515  0.00  0.00    +0.000 N 
ATOM     19  H   UNL     1       1.253   7.175  21.071  0.00  0.00    +0.000 HD
BRANCH  18  25
ATOM     20  F   UNL     1      -1.521  10.386  23.562  0.00  0.00    +0.000 F 
ATOM     21  C   UNL     1      -0.678  10.375  22.522  0.00  0.00    +0.000 A 
ATOM     22  C   UNL     1      -0.431  11.562  21.840  0.00  0.00    +0.000 A 
ATOM     23  C   UNL     1       0.426  11.554  20.749  0.00  0.00    +0.000 A 
ATOM     24  C   UNL     1       1.032  10.359  20.360  0.00  0.00    +0.000 A 
ATOM     25  C   UNL     1       0.785   9.159  21.050  0.00  0.00    +0.000 A 
ATOM     26  C   UNL     1      -0.089   9.176  22.131  0.00  0.00    +0.000 A 
ENDBRANCH  18  25
ENDBRANCH  16  18
ENDBRANCH   1  16
TORSDOF 4
ENDMDL
MODEL 8
REMARK VINA RESULT:      -7.8      2.827      3.360
REMARK  Name = 
REMARK  4 active torsions:
REMARK  status: ('A' for Active; 'I' for Inactive)
REMARK    1  A    between atoms: C_6  and  N_7
REMARK    2  A    between atoms: N_7  and  C_8
REMARK    3  A    between atoms: C_8  and  N_10
REMARK    4  A    between atoms: C_18  and  C_19
REMARK                            x       y       z     vdW  Elec       q    Type
REMARK                         _______ _______ _______ _____ _____    ______ ____
ROOT
ATOM      1  N   UNL     1       3.076   4.805  17.765  0.00  0.00    +0.000 N 
ATOM      2  C   UNL     1       1.817   4.180  17.325  0.00  0.00    +0.000 C 
ATOM      3  C   UNL     1       1.397   3.046  18.248  0.00  0.00    +0.000 C 
ATOM      4  N   UNL     1       1.644   3.368  19.641  0.00  0.00    +0.000 N 
ATOM      5  C   UNL     1       1.204   2.637  20.708  0.00  0.00    +0.000 A 
ATOM      6  C   UNL     1       1.751   3.187  21.847  0.00  0.00    +0.000 A 
ATOM      7  C   UNL     1       2.540   4.292  21.446  0.00  0.00    +0.000 A 
ATOM      8  C   UNL     1       2.446   4.401  20.070  0.00  0.00    +0.000 A 
ATOM      9  C   UNL     1       3.079   5.396  19.125  0.00  0.00    +0.000 C 
ENDROOT
BRANCH   9  10
ATOM     10  C   UNL     1       2.440   6.769  19.208  0.00  0.00    +0.000 A 
ATOM     11  C   UNL     1       2.340   7.651  18.123  0.00  0.00    +0.000 A 
ATOM     12  C   UNL     1       1.757   8.905  18.282  0.00  0.00    +0.000 A 
ATOM     13  C   UNL     1       1.245   9.235  19.523  0.00  0.00    +0.000 A 
ATOM     14  N   UNL     1       1.279   8.408  20.587  0.00  0.00    +0.000 NA
ATOM     15  C   UNL     1       1.877   7.204  20.407  0.00  0.00    +0.000 A 
ENDBRANCH   9  10
BRANCH   1  16
ATOM     16  C   UNL     1       4.247   4.721  16.985  0.00  0.00    +0.000 C 
ATOM     17  S   UNL     1       4.710   3.332  16.173  0.00  0.00    +0.000 S 
BRANCH  16  18
ATOM     18  N   UNL     1       4.897   5.947  16.951  0.00  0.00    +0.000 N 
ATOM     19  H   UNL     1       4.511   6.555  16.243  0.00  0.00    +0.000 HD
BRANCH  18  25
ATOM     20  F   UNL     1       8.463   9.159  17.564  0.00  0.00    +0.000 F 
ATOM     21  C   UNL     1       7.863   8.007  17.885  0.00  0.00    +0.000 A 
ATOM     22  C   UNL     1       8.450   7.181  18.838  0.00  0.00    +0.000 A 
ATOM     23  C   UNL     1       7.843   5.976  19.161  0.00  0.00    +0.000 A 
ATOM     24  C   UNL     1       6.651   5.617  18.533  0.00  0.00    +0.000 A 
ATOM     25  C   UNL     1       6.053   6.453  17.571  0.00  0.00    +0.000 A 
ATOM     26  C   UNL     1       6.679   7.650  17.244  0.00  0.00    +0.000 A 
ENDBRANCH  18  25
ENDBRANCH  16  18
ENDBRANCH   1  16
TORSDOF 4
ENDMDL
MODEL 9
REMARK VINA RESULT:      -7.8      3.850      7.339
REMARK  Name = 
REMARK  4 active torsions:
REMARK  status: ('A' for Active; 'I' for Inactive)
REMARK    1  A    between atoms: C_6  and  N_7
REMARK    2  A    between atoms: N_7  and  C_8
REMARK    3  A    between atoms: C_8  and  N_10
REMARK    4  A    between atoms: C_18  and  C_19
REMARK                            x       y       z     vdW  Elec       q    Type
REMARK                         _______ _______ _______ _____ _____    ______ ____
ROOT
ATOM      1  N   UNL     1       2.482   6.811  19.436  0.00  0.00    +0.000 N 
ATOM      2  C   UNL     1       2.415   6.166  20.759  0.00  0.00    +0.000 C 
ATOM      3  C   UNL     1       1.588   4.890  20.723  0.00  0.00    +0.000 C 
ATOM      4  N   UNL     1       1.829   4.128  19.513  0.00  0.00    +0.000 N 
ATOM      5  C   UNL     1       1.382   2.857  19.279  0.00  0.00    +0.000 A 
ATOM      6  C   UNL     1       1.699   2.534  17.978  0.00  0.00    +0.000 A 
ATOM      7  C   UNL     1       2.366   3.648  17.416  0.00  0.00    +0.000 A 
ATOM      8  C   UNL     1       2.455   4.624  18.393  0.00  0.00    +0.000 A 
ATOM      9  C   UNL     1       3.068   6.004  18.338  0.00  0.00    +0.000 C 
ENDROOT
BRANCH   9  10
ATOM     10  C   UNL     1       4.585   5.971  18.331  0.00  0.00    +0.000 A 
ATOM     11  C   UNL     1       5.378   6.723  17.453  0.00  0.00    +0.000 A 
ATOM     12  C   UNL     1       6.766   6.624  17.495  0.00  0.00    +0.000 A 
ATOM     13  C   UNL     1       7.335   5.800  18.447  0.00  0.00    +0.000 A 
ATOM     14  N   UNL     1       6.618   5.089  19.340  0.00  0.00    +0.000 NA
ATOM     15  C   UNL     1       5.268   5.186  19.258  0.00  0.00    +0.000 A 
ENDBRANCH   9  10
BRANCH   1  16
ATOM     16  C   UNL     1       1.897   8.072  19.206  0.00  0.00    +0.000 C 
ATOM     17  S   UNL     1       2.081   8.920  17.774  0.00  0.00    +0.000 S 
BRANCH  16  18
ATOM     18  N   UNL     1       1.125   8.455  20.294  0.00  0.00    +0.000 N 
ATOM     19  H   UNL     1       1.083   7.730  20.996  0.00  0.00    +0.000 HD
BRANCH  18  25
ATOM     20  F   UNL     1      -2.002  11.932  19.051  0.00  0.00    +0.000 F 
ATOM     21  C   UNL     1      -1.247  11.315  19.968  0.00  0.00    +0.000 A 
ATOM     22  C   UNL     1      -1.202  11.826  21.261  0.00  0.00    +0.000 A 
ATOM     23  C   UNL     1      -0.405  11.203  22.211  0.00  0.00    +0.000 A 
ATOM     24  C   UNL     1       0.328  10.070  21.857  0.00  0.00    +0.000 A 
ATOM     25  C   UNL     1       0.281   9.551  20.550  0.00  0.00    +0.000 A 
ATOM     26  C   UNL     1      -0.507  10.193  19.603  0.00  0.00    +0.000 A 
ENDBRANCH  18  25
ENDBRANCH  16  18
ENDBRANCH   1  16
TORSDOF 4
ENDMDL
