MODEL 1
REMARK VINA RESULT:      -8.4      0.000      0.000
REMARK  Name = 
REMARK  5 active torsions:
REMARK  status: ('A' for Active; 'I' for Inactive)
REMARK    1  A    between atoms: C_1  and  C_2
REMARK    2  A    between atoms: C_5  and  C_6
REMARK    3  A    between atoms: C_13  and  O_14
REMARK    4  A    between atoms: O_14  and  C_15
REMARK    5  A    between atoms: C_20  and  C_21
REMARK                            x       y       z     vdW  Elec       q    Type
REMARK                         _______ _______ _______ _____ _____    ______ ____
ROOT
ATOM      1  C   UNL     1       0.895   9.275  20.509  0.00  0.00    +0.000 A 
ATOM      2  C   UNL     1       1.343   9.514  19.226  0.00  0.00    +0.000 A 
ATOM      3  N   UNL     1       2.046   8.485  18.627  0.00  0.00    +0.000 NA
ATOM      4  C   UNL     1       2.165   7.456  19.441  0.00  0.00    +0.000 A 
ATOM      5  N   UNL     1       2.771   6.280  19.093  0.00  0.00    +0.000 N 
ATOM      6  C   UNL     1       3.323   6.163  17.743  0.00  0.00    +0.000 C 
ATOM      7  C   UNL     1       3.145   4.719  17.281  0.00  0.00    +0.000 C 
ATOM      8  C   UNL     1       3.802   3.727  18.248  0.00  0.00    +0.000 C 
ATOM      9  C   UNL     1       3.390   4.003  19.699  0.00  0.00    +0.000 C 
ATOM     10  C   UNL     1       3.483   5.475  20.087  0.00  0.00    +0.000 C 
ATOM     11  S   UNL     1       1.378   7.696  20.965  0.00  0.00    +0.000 S 
ENDROOT
BRANCH   1  16
ATOM     12  C   UNL     1      -2.119  12.856  22.868  0.00  0.00    +0.000 C 
ATOM     13  C   UNL     1      -1.214  11.741  22.492  0.00  0.00    +0.000 A 
ATOM     14  N   UNL     1      -0.614  10.939  23.345  0.00  0.00    +0.000 NA
ATOM     15  N   UNL     1       0.175  10.004  22.706  0.00  0.00    +0.000 NA
ATOM     16  C   UNL     1       0.147  10.126  21.394  0.00  0.00    +0.000 A 
ATOM     17  S   UNL     1      -0.863  11.407  20.846  0.00  0.00    +0.000 S 
ENDBRANCH   1  16
BRANCH   8  18
ATOM     18  O   UNL     1       5.236   3.792  18.133  0.00  0.00    +0.000 OA
BRANCH  18  19
ATOM     19  C   UNL     1       5.781   4.109  16.912  0.00  0.00    +0.000 A 
ATOM     20  C   UNL     1       5.372   3.529  15.702  0.00  0.00    +0.000 A 
ATOM     21  C   UNL     1       5.988   3.858  14.492  0.00  0.00    +0.000 A 
ATOM     22  C   UNL     1       6.999   4.805  14.463  0.00  0.00    +0.000 A 
ATOM     23  C   UNL     1       7.391   5.421  15.648  0.00  0.00    +0.000 A 
ATOM     24  C   UNL     1       6.800   5.077  16.887  0.00  0.00    +0.000 A 
BRANCH  24  25
ATOM     25  C   UNL     1       7.333   5.778  18.113  0.00  0.00    +0.000 C 
ATOM     26  F   UNL     1       6.426   6.086  19.079  0.00  0.00    +0.000 F 
ATOM     27  F   UNL     1       8.291   5.032  18.741  0.00  0.00    +0.000 F 
ATOM     28  F   UNL     1       7.951   6.956  17.799  0.00  0.00    +0.000 F 
ENDBRANCH  24  25
ENDBRANCH  18  19
ENDBRANCH   8  18
TORSDOF 4
ENDMDL
MODEL 2
REMARK VINA RESULT:      -7.9      3.488      4.998
REMARK  Name = 
REMARK  5 active torsions:
REMARK  status: ('A' for Active; 'I' for Inactive)
REMARK    1  A    between atoms: C_1  and  C_2
REMARK    2  A    between atoms: C_5  and  C_6
REMARK    3  A    between atoms: C_13  and  O_14
REMARK    4  A    between atoms: O_14  and  C_15
REMARK    5  A    between atoms: C_20  and  C_21
REMARK                            x       y       z     vdW  Elec       q    Type
REMARK                         _______ _______ _______ _____ _____    ______ ____
ROOT
ATOM      1  C   UNL     1      -0.137  12.567  20.058  0.00  0.00    +0.000 A 
ATOM      2  C   UNL     1      -0.507  11.706  21.070  0.00  0.00    +0.000 A 
ATOM      3  N   UNL     1      -0.037  10.409  20.966  0.00  0.00    +0.000 NA
ATOM      4  C   UNL     1       0.679  10.251  19.872  0.00  0.00    +0.000 A 
ATOM      5  N   UNL     1       1.308   9.083  19.540  0.00  0.00    +0.000 N 
ATOM      6  C   UNL     1       1.172   7.945  20.448  0.00  0.00    +0.000 C 
ATOM      7  C   UNL     1       2.479   7.157  20.424  0.00  0.00    +0.000 C 
ATOM      8  C   UNL     1       2.846   6.706  19.005  0.00  0.00    +0.000 C 
ATOM      9  C   UNL     1       2.766   7.870  18.010  0.00  0.00    +0.000 C 
ATOM     10  C   UNL     1       1.489   8.695  18.140  0.00  0.00    +0.000 C 
ATOM     11  S   UNL     1       0.841  11.706  18.945  0.00  0.00    +0.000 S 
ENDROOT
BRANCH   1  16
ATOM     12  C   UNL     1      -0.451  17.642  18.786  0.00  0.00    +0.000 C 
ATOM     13  C   UNL     1      -0.620  16.265  19.313  0.00  0.00    +0.000 A 
ATOM     14  N   UNL     1      -1.562  15.891  20.152  0.00  0.00    +0.000 NA
ATOM     15  N   UNL     1      -1.463  14.553  20.476  0.00  0.00    +0.000 NA
ATOM     16  C   UNL     1      -0.454  13.957  19.873  0.00  0.00    +0.000 A 
ATOM     17  S   UNL     1       0.451  15.006  18.853  0.00  0.00    +0.000 S 
ENDBRANCH   1  16
BRANCH   8  18
ATOM     18  O   UNL     1       1.971   5.645  18.577  0.00  0.00    +0.000 OA
BRANCH  18  19
ATOM     19  C   UNL     1       2.498   4.386  18.422  0.00  0.00    +0.000 A 
ATOM     20  C   UNL     1       3.294   4.001  17.331  0.00  0.00    +0.000 A 
ATOM     21  C   UNL     1       3.771   2.695  17.203  0.00  0.00    +0.000 A 
ATOM     22  C   UNL     1       3.496   1.756  18.185  0.00  0.00    +0.000 A 
ATOM     23  C   UNL     1       2.744   2.129  19.294  0.00  0.00    +0.000 A 
ATOM     24  C   UNL     1       2.226   3.439  19.425  0.00  0.00    +0.000 A 
BRANCH  24  25
ATOM     25  C   UNL     1       1.387   3.720  20.649  0.00  0.00    +0.000 C 
ATOM     26  F   UNL     1       0.308   4.529  20.473  0.00  0.00    +0.000 F 
ATOM     27  F   UNL     1       0.891   2.567  21.192  0.00  0.00    +0.000 F 
ATOM     28  F   UNL     1       2.119   4.295  21.649  0.00  0.00    +0.000 F 
ENDBRANCH  24  25
ENDBRANCH  18  19
ENDBRANCH   8  18
TORSDOF 4
ENDMDL
MODEL 3
REMARK VINA RESULT:      -7.8      2.119      3.806
REMARK  Name = 
REMARK  5 active torsions:
REMARK  status: ('A' for Active; 'I' for Inactive)
REMARK    1  A    between atoms: C_1  and  C_2
REMARK    2  A    between atoms: C_5  and  C_6
REMARK    3  A    between atoms: C_13  and  O_14
REMARK    4  A    between atoms: O_14  and  C_15
REMARK    5  A    between atoms: C_20  and  C_21
REMARK                            x       y       z     vdW  Elec       q    Type
REMARK                         _______ _______ _______ _____ _____    ______ ____
ROOT
ATOM      1  C   UNL     1      -0.357  11.087  22.210  0.00  0.00    +0.000 A 
ATOM      2  C   UNL     1      -0.558   9.819  22.713  0.00  0.00    +0.000 A 
ATOM      3  N   UNL     1       0.038   8.786  22.012  0.00  0.00    +0.000 NA
ATOM      4  C   UNL     1       0.685   9.240  20.958  0.00  0.00    +0.000 A 
ATOM      5  N   UNL     1       1.407   8.446  20.111  0.00  0.00    +0.000 N 
ATOM      6  C   UNL     1       1.460   7.011  20.390  0.00  0.00    +0.000 C 
ATOM      7  C   UNL     1       2.839   6.497  19.981  0.00  0.00    +0.000 C 
ATOM      8  C   UNL     1       3.145   6.798  18.510  0.00  0.00    +0.000 C 
ATOM      9  C   UNL     1       2.868   8.267  18.169  0.00  0.00    +0.000 C 
ATOM     10  C   UNL     1       1.524   8.769  18.688  0.00  0.00    +0.000 C 
ATOM     11  S   UNL     1       0.622  10.965  20.809  0.00  0.00    +0.000 S 
ENDROOT
BRANCH   1  16
ATOM     12  C   UNL     1      -3.009  15.239  23.998  0.00  0.00    +0.000 C 
ATOM     13  C   UNL     1      -2.011  14.256  23.507  0.00  0.00    +0.000 A 
ATOM     14  N   UNL     1      -0.737  14.513  23.307  0.00  0.00    +0.000 NA
ATOM     15  N   UNL     1      -0.055  13.410  22.836  0.00  0.00    +0.000 NA
ATOM     16  C   UNL     1      -0.832  12.354  22.696  0.00  0.00    +0.000 A 
ATOM     17  S   UNL     1      -2.468  12.644  23.140  0.00  0.00    +0.000 S 
ENDBRANCH   1  16
BRANCH   8  18
ATOM     18  O   UNL     1       2.359   5.948  17.652  0.00  0.00    +0.000 OA
BRANCH  18  19
ATOM     19  C   UNL     1       2.405   4.590  17.856  0.00  0.00    +0.000 A 
ATOM     20  C   UNL     1       1.338   3.843  18.377  0.00  0.00    +0.000 A 
ATOM     21  C   UNL     1       1.452   2.469  18.602  0.00  0.00    +0.000 A 
ATOM     22  C   UNL     1       2.625   1.807  18.272  0.00  0.00    +0.000 A 
ATOM     23  C   UNL     1       3.679   2.524  17.716  0.00  0.00    +0.000 A 
ATOM     24  C   UNL     1       3.592   3.922  17.510  0.00  0.00    +0.000 A 
BRANCH  24  25
ATOM     25  C   UNL     1       4.813   4.603  16.941  0.00  0.00    +0.000 C 
ATOM     26  F   UNL     1       5.586   5.297  17.819  0.00  0.00    +0.000 F 
ATOM     27  F   UNL     1       5.657   3.706  16.347  0.00  0.00    +0.000 F 
ATOM     28  F   UNL     1       4.489   5.490  15.954  0.00  0.00    +0.000 F 
ENDBRANCH  24  25
ENDBRANCH  18  19
ENDBRANCH   8  18
TORSDOF 4
ENDMDL
MODEL 4
REMARK VINA RESULT:      -7.8      3.573      5.052
REMARK  Name = 
REMARK  5 active torsions:
REMARK  status: ('A' for Active; 'I' for Inactive)
REMARK    1  A    between atoms: C_1  and  C_2
REMARK    2  A    between atoms: C_5  and  C_6
REMARK    3  A    between atoms: C_13  and  O_14
REMARK    4  A    between atoms: O_14  and  C_15
REMARK    5  A    between atoms: C_20  and  C_21
REMARK                            x       y       z     vdW  Elec       q    Type
REMARK                         _______ _______ _______ _____ _____    ______ ____
ROOT
ATOM      1  C   UNL     1      -0.020  12.684  19.866  0.00  0.00    +0.000 A 
ATOM      2  C   UNL     1      -0.442  11.864  20.892  0.00  0.00    +0.000 A 
ATOM      3  N   UNL     1      -0.003  10.554  20.842  0.00  0.00    +0.000 NA
ATOM      4  C   UNL     1       0.742  10.344  19.776  0.00  0.00    +0.000 A 
ATOM      5  N   UNL     1       1.350   9.151  19.498  0.00  0.00    +0.000 N 
ATOM      6  C   UNL     1       1.157   8.045  20.436  0.00  0.00    +0.000 C 
ATOM      7  C   UNL     1       2.444   7.225  20.476  0.00  0.00    +0.000 C 
ATOM      8  C   UNL     1       2.841   6.721  19.083  0.00  0.00    +0.000 C 
ATOM      9  C   UNL     1       2.821   7.856  18.051  0.00  0.00    +0.000 C 
ATOM     10  C   UNL     1       1.562   8.715  18.117  0.00  0.00    +0.000 C 
ATOM     11  S   UNL     1       0.968  11.765  18.811  0.00  0.00    +0.000 S 
ENDROOT
BRANCH   1  16
ATOM     12  C   UNL     1      -1.726  17.639  19.749  0.00  0.00    +0.000 C 
ATOM     13  C   UNL     1      -1.051  16.331  19.553  0.00  0.00    +0.000 A 
ATOM     14  N   UNL     1      -0.129  16.088  18.647  0.00  0.00    +0.000 NA
ATOM     15  N   UNL     1       0.307  14.780  18.692  0.00  0.00    +0.000 NA
ATOM     16  C   UNL     1      -0.295  14.075  19.630  0.00  0.00    +0.000 A 
ATOM     17  S   UNL     1      -1.447  14.979  20.533  0.00  0.00    +0.000 S 
ENDBRANCH   1  16
BRANCH   8  18
ATOM     18  O   UNL     1       1.953   5.669  18.660  0.00  0.00    +0.000 OA
BRANCH  18  19
ATOM     19  C   UNL     1       2.473   4.412  18.468  0.00  0.00    +0.000 A 
ATOM     20  C   UNL     1       3.254   4.053  17.359  0.00  0.00    +0.000 A 
ATOM     21  C   UNL     1       3.725   2.748  17.192  0.00  0.00    +0.000 A 
ATOM     22  C   UNL     1       3.457   1.786  18.153  0.00  0.00    +0.000 A 
ATOM     23  C   UNL     1       2.718   2.133  19.279  0.00  0.00    +0.000 A 
ATOM     24  C   UNL     1       2.207   3.442  19.450  0.00  0.00    +0.000 A 
BRANCH  24  25
ATOM     25  C   UNL     1       1.383   3.694  20.689  0.00  0.00    +0.000 C 
ATOM     26  F   UNL     1       0.829   2.603  21.283  0.00  0.00    +0.000 F 
ATOM     27  F   UNL     1       2.120   4.303  21.667  0.00  0.00    +0.000 F 
ATOM     28  F   UNL     1       0.345   4.548  20.447  0.00  0.00    +0.000 F 
ENDBRANCH  24  25
ENDBRANCH  18  19
ENDBRANCH   8  18
TORSDOF 4
ENDMDL
MODEL 5
REMARK VINA RESULT:      -7.8      2.302      3.238
REMARK  Name = 
REMARK  5 active torsions:
REMARK  status: ('A' for Active; 'I' for Inactive)
REMARK    1  A    between atoms: C_1  and  C_2
REMARK    2  A    between atoms: C_5  and  C_6
REMARK    3  A    between atoms: C_13  and  O_14
REMARK    4  A    between atoms: O_14  and  C_15
REMARK    5  A    between atoms: C_20  and  C_21
REMARK                            x       y       z     vdW  Elec       q    Type
REMARK                         _______ _______ _______ _____ _____    ______ ____
ROOT
ATOM      1  C   UNL     1      -0.314  11.658  21.505  0.00  0.00    +0.000 A 
ATOM      2  C   UNL     1       0.252  11.979  20.289  0.00  0.00    +0.000 A 
ATOM      3  N   UNL     1       0.901  10.951  19.630  0.00  0.00    +0.000 NA
ATOM      4  C   UNL     1       0.861   9.838  20.334  0.00  0.00    +0.000 A 
ATOM      5  N   UNL     1       1.381   8.649  19.902  0.00  0.00    +0.000 N 
ATOM      6  C   UNL     1       2.022   8.615  18.588  0.00  0.00    +0.000 C 
ATOM      7  C   UNL     1       1.748   7.250  17.960  0.00  0.00    +0.000 C 
ATOM      8  C   UNL     1       2.234   6.104  18.856  0.00  0.00    +0.000 C 
ATOM      9  C   UNL     1       1.738   6.271  20.298  0.00  0.00    +0.000 C 
ATOM     10  C   UNL     1       1.936   7.680  20.849  0.00  0.00    +0.000 C 
ATOM     11  S   UNL     1      -0.016  10.000  21.819  0.00  0.00    +0.000 S 
ENDROOT
BRANCH   1  16
ATOM     12  C   UNL     1      -3.811  14.186  24.479  0.00  0.00    +0.000 C 
ATOM     13  C   UNL     1      -2.613  13.650  23.787  0.00  0.00    +0.000 A 
ATOM     14  N   UNL     1      -1.381  14.071  23.979  0.00  0.00    +0.000 NA
ATOM     15  N   UNL     1      -0.475  13.396  23.188  0.00  0.00    +0.000 NA
ATOM     16  C   UNL     1      -1.046  12.484  22.425  0.00  0.00    +0.000 A 
ATOM     17  S   UNL     1      -2.752  12.391  22.630  0.00  0.00    +0.000 S 
ENDBRANCH   1  16
BRANCH   8  18
ATOM     18  O   UNL     1       3.672   6.037  18.846  0.00  0.00    +0.000 OA
BRANCH  18  19
ATOM     19  C   UNL     1       4.300   5.642  17.689  0.00  0.00    +0.000 A 
ATOM     20  C   UNL     1       4.866   6.534  16.765  0.00  0.00    +0.000 A 
ATOM     21  C   UNL     1       5.458   6.081  15.584  0.00  0.00    +0.000 A 
ATOM     22  C   UNL     1       5.533   4.722  15.322  0.00  0.00    +0.000 A 
ATOM     23  C   UNL     1       5.013   3.820  16.246  0.00  0.00    +0.000 A 
ATOM     24  C   UNL     1       4.382   4.262  17.433  0.00  0.00    +0.000 A 
BRANCH  24  25
ATOM     25  C   UNL     1       3.818   3.197  18.341  0.00  0.00    +0.000 C 
ATOM     26  F   UNL     1       2.476   3.236  18.563  0.00  0.00    +0.000 F 
ATOM     27  F   UNL     1       4.068   1.942  17.858  0.00  0.00    +0.000 F 
ATOM     28  F   UNL     1       4.396   3.221  19.578  0.00  0.00    +0.000 F 
ENDBRANCH  24  25
ENDBRANCH  18  19
ENDBRANCH   8  18
TORSDOF 4
ENDMDL
MODEL 6
REMARK VINA RESULT:      -7.7      0.936      1.163
REMARK  Name = 
REMARK  5 active torsions:
REMARK  status: ('A' for Active; 'I' for Inactive)
REMARK    1  A    between atoms: C_1  and  C_2
REMARK    2  A    between atoms: C_5  and  C_6
REMARK    3  A    between atoms: C_13  and  O_14
REMARK    4  A    between atoms: O_14  and  C_15
REMARK    5  A    between atoms: C_20  and  C_21
REMARK                            x       y       z     vdW  Elec       q    Type
REMARK                         _______ _______ _______ _____ _____    ______ ____
ROOT
ATOM      1  C   UNL     1       0.942   9.601  19.878  0.00  0.00    +0.000 A 
ATOM      2  C   UNL     1       1.397   9.661  18.578  0.00  0.00    +0.000 A 
ATOM      3  N   UNL     1       2.098   8.557  18.128  0.00  0.00    +0.000 NA
ATOM      4  C   UNL     1       2.207   7.648  19.074  0.00  0.00    +0.000 A 
ATOM      5  N   UNL     1       2.809   6.433  18.892  0.00  0.00    +0.000 N 
ATOM      6  C   UNL     1       3.366   6.131  17.574  0.00  0.00    +0.000 C 
ATOM      7  C   UNL     1       3.183   4.638  17.310  0.00  0.00    +0.000 C 
ATOM      8  C   UNL     1       3.830   3.783  18.406  0.00  0.00    +0.000 C 
ATOM      9  C   UNL     1       3.413   4.256  19.805  0.00  0.00    +0.000 C 
ATOM     10  C   UNL     1       3.512   5.766  19.990  0.00  0.00    +0.000 C 
ATOM     11  S   UNL     1       1.414   8.096  20.547  0.00  0.00    +0.000 S 
ENDROOT
BRANCH   1  16
ATOM     12  C   UNL     1      -1.816  12.385  23.359  0.00  0.00    +0.000 C 
ATOM     13  C   UNL     1      -1.060  11.854  22.197  0.00  0.00    +0.000 A 
ATOM     14  N   UNL     1      -0.862  12.502  21.069  0.00  0.00    +0.000 NA
ATOM     15  N   UNL     1      -0.135  11.754  20.165  0.00  0.00    +0.000 NA
ATOM     16  C   UNL     1       0.194  10.567  20.636  0.00  0.00    +0.000 A 
ATOM     17  S   UNL     1      -0.367  10.285  22.237  0.00  0.00    +0.000 S 
ENDBRANCH   1  16
BRANCH   8  18
ATOM     18  O   UNL     1       5.265   3.826  18.292  0.00  0.00    +0.000 OA
BRANCH  18  19
ATOM     19  C   UNL     1       5.815   4.126  17.069  0.00  0.00    +0.000 A 
ATOM     20  C   UNL     1       5.399   3.543  15.862  0.00  0.00    +0.000 A 
ATOM     21  C   UNL     1       6.020   3.854  14.651  0.00  0.00    +0.000 A 
ATOM     22  C   UNL     1       7.045   4.787  14.616  0.00  0.00    +0.000 A 
ATOM     23  C   UNL     1       7.445   5.406  15.797  0.00  0.00    +0.000 A 
ATOM     24  C   UNL     1       6.848   5.079  17.037  0.00  0.00    +0.000 A 
BRANCH  24  25
ATOM     25  C   UNL     1       7.390   5.782  18.259  0.00  0.00    +0.000 C 
ATOM     26  F   UNL     1       8.262   5.076  19.028  0.00  0.00    +0.000 F 
ATOM     27  F   UNL     1       8.051   6.931  17.925  0.00  0.00    +0.000 F 
ATOM     28  F   UNL     1       6.393   6.180  19.103  0.00  0.00    +0.000 F 
ENDBRANCH  24  25
ENDBRANCH  18  19
ENDBRANCH   8  18
TORSDOF 4
ENDMDL
MODEL 7
REMARK VINA RESULT:      -7.7      3.924      5.258
REMARK  Name = 
REMARK  5 active torsions:
REMARK  status: ('A' for Active; 'I' for Inactive)
REMARK    1  A    between atoms: C_1  and  C_2
REMARK    2  A    between atoms: C_5  and  C_6
REMARK    3  A    between atoms: C_13  and  O_14
REMARK    4  A    between atoms: O_14  and  C_15
REMARK    5  A    between atoms: C_20  and  C_21
REMARK                            x       y       z     vdW  Elec       q    Type
REMARK                         _______ _______ _______ _____ _____    ______ ____
ROOT
ATOM      1  C   UNL     1       0.535  12.883  19.396  0.00  0.00    +0.000 A 
ATOM      2  C   UNL     1      -0.164  12.157  20.338  0.00  0.00    +0.000 A 
ATOM      3  N   UNL     1       0.128  10.807  20.403  0.00  0.00    +0.000 NA
ATOM      4  C   UNL     1       1.033  10.475  19.506  0.00  0.00    +0.000 A 
ATOM      5  N   UNL     1       1.546   9.213  19.378  0.00  0.00    +0.000 N 
ATOM      6  C   UNL     1       1.056   8.175  20.285  0.00  0.00    +0.000 C 
ATOM      7  C   UNL     1       2.213   7.226  20.592  0.00  0.00    +0.000 C 
ATOM      8  C   UNL     1       2.808   6.624  19.314  0.00  0.00    +0.000 C 
ATOM      9  C   UNL     1       3.112   7.709  18.272  0.00  0.00    +0.000 C 
ATOM     10  C   UNL     1       1.967   8.698  18.074  0.00  0.00    +0.000 C 
ATOM     11  S   UNL     1       1.596  11.821  18.572  0.00  0.00    +0.000 S 
ENDROOT
BRANCH   1  16
ATOM     12  C   UNL     1       1.303  17.902  18.095  0.00  0.00    +0.000 C 
ATOM     13  C   UNL     1       0.786  16.569  18.494  0.00  0.00    +0.000 A 
ATOM     14  N   UNL     1      -0.463  16.311  18.813  0.00  0.00    +0.000 NA
ATOM     15  N   UNL     1      -0.647  14.987  19.154  0.00  0.00    +0.000 NA
ATOM     16  C   UNL     1       0.467  14.284  19.080  0.00  0.00    +0.000 A 
ATOM     17  S   UNL     1       1.828  15.208  18.579  0.00  0.00    +0.000 S 
ENDBRANCH   1  16
BRANCH   8  18
ATOM     18  O   UNL     1       1.905   5.654  18.750  0.00  0.00    +0.000 OA
BRANCH  18  19
ATOM     19  C   UNL     1       2.383   4.395  18.479  0.00  0.00    +0.000 A 
ATOM     20  C   UNL     1       3.082   4.062  17.308  0.00  0.00    +0.000 A 
ATOM     21  C   UNL     1       3.512   2.756  17.063  0.00  0.00    +0.000 A 
ATOM     22  C   UNL     1       3.287   1.763  18.004  0.00  0.00    +0.000 A 
ATOM     23  C   UNL     1       2.632   2.083  19.189  0.00  0.00    +0.000 A 
ATOM     24  C   UNL     1       2.162   3.394  19.440  0.00  0.00    +0.000 A 
BRANCH  24  25
ATOM     25  C   UNL     1       1.427   3.616  20.740  0.00  0.00    +0.000 C 
ATOM     26  F   UNL     1       0.975   2.504  21.380  0.00  0.00    +0.000 F 
ATOM     27  F   UNL     1       2.209   4.266  21.654  0.00  0.00    +0.000 F 
ATOM     28  F   UNL     1       0.333   4.418  20.578  0.00  0.00    +0.000 F 
ENDBRANCH  24  25
ENDBRANCH  18  19
ENDBRANCH   8  18
TORSDOF 4
ENDMDL
MODEL 8
REMARK VINA RESULT:      -7.6      3.863      5.252
REMARK  Name = 
REMARK  5 active torsions:
REMARK  status: ('A' for Active; 'I' for Inactive)
REMARK    1  A    between atoms: C_1  and  C_2
REMARK    2  A    between atoms: C_5  and  C_6
REMARK    3  A    between atoms: C_13  and  O_14
REMARK    4  A    between atoms: O_14  and  C_15
REMARK    5  A    between atoms: C_20  and  C_21
REMARK                            x       y       z     vdW  Elec       q    Type
REMARK                         _______ _______ _______ _____ _____    ______ ____
ROOT
ATOM      1  C   UNL     1       0.673  12.910  19.475  0.00  0.00    +0.000 A 
ATOM      2  C   UNL     1       0.058  12.178  20.469  0.00  0.00    +0.000 A 
ATOM      3  N   UNL     1       0.342  10.825  20.491  0.00  0.00    +0.000 NA
ATOM      4  C   UNL     1       1.158  10.496  19.511  0.00  0.00    +0.000 A 
ATOM      5  N   UNL     1       1.646   9.232  19.321  0.00  0.00    +0.000 N 
ATOM      6  C   UNL     1       1.232   8.187  20.258  0.00  0.00    +0.000 C 
ATOM      7  C   UNL     1       2.403   7.226  20.445  0.00  0.00    +0.000 C 
ATOM      8  C   UNL     1       2.873   6.635  19.111  0.00  0.00    +0.000 C 
ATOM      9  C   UNL     1       3.089   7.730  18.059  0.00  0.00    +0.000 C 
ATOM     10  C   UNL     1       1.941   8.730  17.978  0.00  0.00    +0.000 C 
ATOM     11  S   UNL     1       1.645  11.849  18.545  0.00  0.00    +0.000 S 
ENDROOT
BRANCH   1  16
ATOM     12  C   UNL     1      -0.597  17.945  18.767  0.00  0.00    +0.000 C 
ATOM     13  C   UNL     1       0.039  16.607  18.849  0.00  0.00    +0.000 A 
ATOM     14  N   UNL     1       1.255  16.325  18.433  0.00  0.00    +0.000 NA
ATOM     15  N   UNL     1       1.571  14.996  18.626  0.00  0.00    +0.000 NA
ATOM     16  C   UNL     1       0.589  14.315  19.183  0.00  0.00    +0.000 A 
ATOM     17  S   UNL     1      -0.804  15.269  19.514  0.00  0.00    +0.000 S 
ENDBRANCH   1  16
BRANCH   8  18
ATOM     18  O   UNL     1       1.913   5.679  18.622  0.00  0.00    +0.000 OA
BRANCH  18  19
ATOM     19  C   UNL     1       2.329   4.388  18.403  0.00  0.00    +0.000 A 
ATOM     20  C   UNL     1       3.005   3.972  17.246  0.00  0.00    +0.000 A 
ATOM     21  C   UNL     1       3.370   2.637  17.056  0.00  0.00    +0.000 A 
ATOM     22  C   UNL     1       3.101   1.697  18.039  0.00  0.00    +0.000 A 
ATOM     23  C   UNL     1       2.468   2.099  19.211  0.00  0.00    +0.000 A 
ATOM     24  C   UNL     1       2.063   3.440  19.407  0.00  0.00    +0.000 A 
BRANCH  24  25
ATOM     25  C   UNL     1       1.346   3.753  20.698  0.00  0.00    +0.000 C 
ATOM     26  F   UNL     1       2.071   4.390  21.657  0.00  0.00    +0.000 F 
ATOM     27  F   UNL     1       0.253   4.546  20.485  0.00  0.00    +0.000 F 
ATOM     28  F   UNL     1       0.856   2.627  21.295  0.00  0.00    +0.000 F 
ENDBRANCH  24  25
ENDBRANCH  18  19
ENDBRANCH   8  18
TORSDOF 4
ENDMDL
MODEL 9
REMARK VINA RESULT:      -7.6      2.298      3.399
REMARK  Name = 
REMARK  5 active torsions:
REMARK  status: ('A' for Active; 'I' for Inactive)
REMARK    1  A    between atoms: C_1  and  C_2
REMARK    2  A    between atoms: C_5  and  C_6
REMARK    3  A    between atoms: C_13  and  O_14
REMARK    4  A    between atoms: O_14  and  C_15
REMARK    5  A    between atoms: C_20  and  C_21
REMARK                            x       y       z     vdW  Elec       q    Type
REMARK                         _______ _______ _______ _____ _____    ______ ____
ROOT
ATOM      1  C   UNL     1      -0.538  11.788  21.588  0.00  0.00    +0.000 A 
ATOM      2  C   UNL     1       0.111  12.256  20.464  0.00  0.00    +0.000 A 
ATOM      3  N   UNL     1       0.810  11.314  19.731  0.00  0.00    +0.000 NA
ATOM      4  C   UNL     1       0.724  10.123  20.287  0.00  0.00    +0.000 A 
ATOM      5  N   UNL     1       1.279   8.994  19.750  0.00  0.00    +0.000 N 
ATOM      6  C   UNL     1       2.012   9.119  18.490  0.00  0.00    +0.000 C 
ATOM      7  C   UNL     1       1.789   7.844  17.681  0.00  0.00    +0.000 C 
ATOM      8  C   UNL     1       2.215   6.594  18.459  0.00  0.00    +0.000 C 
ATOM      9  C   UNL     1       1.618   6.584  19.872  0.00  0.00    +0.000 C 
ATOM     10  C   UNL     1       1.770   7.913  20.606  0.00  0.00    +0.000 C 
ATOM     11  S   UNL     1      -0.256  10.104  21.715  0.00  0.00    +0.000 S 
ENDROOT
BRANCH   1  16
ATOM     12  C   UNL     1      -2.750  15.122  24.974  0.00  0.00    +0.000 C 
ATOM     13  C   UNL     1      -2.363  13.992  24.093  0.00  0.00    +0.000 A 
ATOM     14  N   UNL     1      -3.003  12.845  24.016  0.00  0.00    +0.000 NA
ATOM     15  N   UNL     1      -2.407  11.981  23.122  0.00  0.00    +0.000 NA
ATOM     16  C   UNL     1      -1.338  12.499  22.549  0.00  0.00    +0.000 A 
ATOM     17  S   UNL     1      -0.989  14.100  23.072  0.00  0.00    +0.000 S 
ENDBRANCH   1  16
BRANCH   8  18
ATOM     18  O   UNL     1       3.651   6.522  18.543  0.00  0.00    +0.000 OA
BRANCH  18  19
ATOM     19  C   UNL     1       4.334   5.893  17.531  0.00  0.00    +0.000 A 
ATOM     20  C   UNL     1       4.968   6.572  16.479  0.00  0.00    +0.000 A 
ATOM     21  C   UNL     1       5.616   5.881  15.452  0.00  0.00    +0.000 A 
ATOM     22  C   UNL     1       5.678   4.497  15.479  0.00  0.00    +0.000 A 
ATOM     23  C   UNL     1       5.090   3.808  16.535  0.00  0.00    +0.000 A 
ATOM     24  C   UNL     1       4.403   4.490  17.567  0.00  0.00    +0.000 A 
BRANCH  24  25
ATOM     25  C   UNL     1       3.768   3.638  18.640  0.00  0.00    +0.000 C 
ATOM     26  F   UNL     1       3.929   4.058  19.924  0.00  0.00    +0.000 F 
ATOM     27  F   UNL     1       2.416   3.532  18.461  0.00  0.00    +0.000 F 
ATOM     28  F   UNL     1       4.230   2.353  18.612  0.00  0.00    +0.000 F 
ENDBRANCH  24  25
ENDBRANCH  18  19
ENDBRANCH   8  18
TORSDOF 4
ENDMDL
