MODEL 1
REMARK VINA RESULT:      -7.7      0.000      0.000
REMARK  Name = 
REMARK  2 active torsions:
REMARK  status: ('A' for Active; 'I' for Inactive)
REMARK    1  A    between atoms: C_2  and  C_3
REMARK    2  A    between atoms: C_3  and  C_4
REMARK                            x       y       z     vdW  Elec       q    Type
REMARK                         _______ _______ _______ _____ _____    ______ ____
ROOT
ATOM      1  O   UNL     1       7.815   5.508  14.816  0.00  0.00    +0.000 OA
ATOM      2  C   UNL     1       6.687   5.022  14.727  0.00  0.00    +0.000 C 
ATOM      3  N   UNL     1       5.954   4.656  15.880  0.00  0.00    +0.000 N 
ATOM      4  C   UNL     1       6.562   4.825  17.235  0.00  0.00    +0.000 C 
ATOM      5  C   UNL     1       6.050   3.831  18.351  0.00  0.00    +0.000 C 
ATOM      6  C   UNL     1       4.566   3.774  18.290  0.00  0.00    +0.000 A 
ATOM      7  C   UNL     1       3.947   4.273  17.170  0.00  0.00    +0.000 A 
ATOM      8  N   UNL     1       2.915   5.023  17.672  0.00  0.00    +0.000 N 
ATOM      9  C   UNL     1       2.620   4.575  18.948  0.00  0.00    +0.000 A 
ATOM     10  C   UNL     1       1.655   4.994  19.872  0.00  0.00    +0.000 A 
ATOM     11  C   UNL     1       1.450   4.182  20.991  0.00  0.00    +0.000 A 
ATOM     12  C   UNL     1       2.198   3.025  21.168  0.00  0.00    +0.000 A 
ATOM     13  F   UNL     1       1.883   2.196  22.175  0.00  0.00    +0.000 F 
ATOM     14  C   UNL     1       3.284   2.719  20.342  0.00  0.00    +0.000 A 
ATOM     15  C   UNL     1       3.530   3.548  19.229  0.00  0.00    +0.000 A 
ATOM     16  C   UNL     1       4.531   4.300  15.811  0.00  0.00    +0.000 C 
ATOM     17  H   UNL     1       2.451   5.790  17.205  0.00  0.00    +0.000 HD
ENDROOT
BRANCH   2  18
ATOM     18  C   UNL     1       5.986   4.766  13.384  0.00  0.00    +0.000 C 
BRANCH  18  19
ATOM     19  C   UNL     1       6.298   3.595  12.473  0.00  0.00    +0.000 A 
ATOM     20  C   UNL     1       7.545   3.211  11.959  0.00  0.00    +0.000 A 
ATOM     21  C   UNL     1       7.682   2.097  11.124  0.00  0.00    +0.000 A 
ATOM     22  C   UNL     1       6.576   1.313  10.792  0.00  0.00    +0.000 A 
ATOM     23  C   UNL     1       5.330   1.660  11.285  0.00  0.00    +0.000 A 
ATOM     24  C   UNL     1       5.184   2.775  12.096  0.00  0.00    +0.000 A 
ENDBRANCH  18  19
ENDBRANCH   2  18
TORSDOF 2
ENDMDL
MODEL 2
REMARK VINA RESULT:      -7.6      0.127      1.007
REMARK  Name = 
REMARK  2 active torsions:
REMARK  status: ('A' for Active; 'I' for Inactive)
REMARK    1  A    between atoms: C_2  and  C_3
REMARK    2  A    between atoms: C_3  and  C_4
REMARK                            x       y       z     vdW  Elec       q    Type
REMARK                         _______ _______ _______ _____ _____    ______ ____
ROOT
ATOM      1  O   UNL     1       7.780   5.513  14.878  0.00  0.00    +0.000 OA
ATOM      2  C   UNL     1       6.640   5.060  14.775  0.00  0.00    +0.000 C 
ATOM      3  N   UNL     1       5.899   4.676  15.918  0.00  0.00    +0.000 N 
ATOM      4  C   UNL     1       6.514   4.783  17.275  0.00  0.00    +0.000 C 
ATOM      5  C   UNL     1       5.977   3.767  18.359  0.00  0.00    +0.000 C 
ATOM      6  C   UNL     1       4.491   3.751  18.300  0.00  0.00    +0.000 A 
ATOM      7  C   UNL     1       3.885   4.304  17.199  0.00  0.00    +0.000 A 
ATOM      8  N   UNL     1       2.874   5.065  17.729  0.00  0.00    +0.000 N 
ATOM      9  C   UNL     1       2.569   4.582  18.990  0.00  0.00    +0.000 A 
ATOM     10  C   UNL     1       1.617   4.996  19.930  0.00  0.00    +0.000 A 
ATOM     11  C   UNL     1       1.392   4.153  21.021  0.00  0.00    +0.000 A 
ATOM     12  C   UNL     1       2.109   2.970  21.158  0.00  0.00    +0.000 A 
ATOM     13  F   UNL     1       1.773   2.117  22.137  0.00  0.00    +0.000 F 
ATOM     14  C   UNL     1       3.185   2.664  20.319  0.00  0.00    +0.000 A 
ATOM     15  C   UNL     1       3.452   3.522  19.234  0.00  0.00    +0.000 A 
ATOM     16  C   UNL     1       4.466   4.361  15.840  0.00  0.00    +0.000 C 
ATOM     17  H   UNL     1       2.431   5.859  17.289  0.00  0.00    +0.000 HD
ENDROOT
BRANCH   2  18
ATOM     18  C   UNL     1       5.930   4.868  13.426  0.00  0.00    +0.000 C 
BRANCH  18  19
ATOM     19  C   UNL     1       6.099   3.647  12.544  0.00  0.00    +0.000 A 
ATOM     20  C   UNL     1       5.116   2.731  12.142  0.00  0.00    +0.000 A 
ATOM     21  C   UNL     1       5.422   1.643  11.318  0.00  0.00    +0.000 A 
ATOM     22  C   UNL     1       6.720   1.447  10.847  0.00  0.00    +0.000 A 
ATOM     23  C   UNL     1       7.715   2.334  11.219  0.00  0.00    +0.000 A 
ATOM     24  C   UNL     1       7.424   3.402  12.053  0.00  0.00    +0.000 A 
ENDBRANCH  18  19
ENDBRANCH   2  18
TORSDOF 2
ENDMDL
MODEL 3
REMARK VINA RESULT:      -7.5      6.529      9.270
REMARK  Name = 
REMARK  2 active torsions:
REMARK  status: ('A' for Active; 'I' for Inactive)
REMARK    1  A    between atoms: C_2  and  C_3
REMARK    2  A    between atoms: C_3  and  C_4
REMARK                            x       y       z     vdW  Elec       q    Type
REMARK                         _______ _______ _______ _____ _____    ______ ____
ROOT
ATOM      1  O   UNL     1       1.899   8.088  17.476  0.00  0.00    +0.000 OA
ATOM      2  C   UNL     1       1.940   8.092  18.707  0.00  0.00    +0.000 C 
ATOM      3  N   UNL     1       1.405   9.168  19.454  0.00  0.00    +0.000 N 
ATOM      4  C   UNL     1       0.808  10.342  18.747  0.00  0.00    +0.000 C 
ATOM      5  C   UNL     1       0.868  11.718  19.521  0.00  0.00    +0.000 C 
ATOM      6  C   UNL     1       0.430  11.492  20.924  0.00  0.00    +0.000 A 
ATOM      7  C   UNL     1       0.375  10.198  21.381  0.00  0.00    +0.000 A 
ATOM      8  N   UNL     1      -0.829  10.133  22.034  0.00  0.00    +0.000 N 
ATOM      9  C   UNL     1      -1.208  11.413  22.397  0.00  0.00    +0.000 A 
ATOM     10  C   UNL     1      -2.334  11.881  23.085  0.00  0.00    +0.000 A 
ATOM     11  C   UNL     1      -2.315  13.213  23.507  0.00  0.00    +0.000 A 
ATOM     12  C   UNL     1      -1.222  14.025  23.227  0.00  0.00    +0.000 A 
ATOM     13  F   UNL     1      -1.172  15.253  23.764  0.00  0.00    +0.000 F 
ATOM     14  C   UNL     1      -0.193  13.604  22.379  0.00  0.00    +0.000 A 
ATOM     15  C   UNL     1      -0.215  12.274  21.912  0.00  0.00    +0.000 A 
ATOM     16  C   UNL     1       1.230   9.087  20.910  0.00  0.00    +0.000 C 
ATOM     17  H   UNL     1      -1.368   9.296  22.211  0.00  0.00    +0.000 HD
ENDROOT
BRANCH   2  18
ATOM     18  C   UNL     1       2.568   6.957  19.531  0.00  0.00    +0.000 C 
BRANCH  18  19
ATOM     19  C   UNL     1       2.032   5.540  19.573  0.00  0.00    +0.000 A 
ATOM     20  C   UNL     1       1.507   4.850  20.675  0.00  0.00    +0.000 A 
ATOM     21  C   UNL     1       1.045   3.534  20.562  0.00  0.00    +0.000 A 
ATOM     22  C   UNL     1       1.070   2.871  19.334  0.00  0.00    +0.000 A 
ATOM     23  C   UNL     1       1.577   3.524  18.225  0.00  0.00    +0.000 A 
ATOM     24  C   UNL     1       2.057   4.820  18.334  0.00  0.00    +0.000 A 
ENDBRANCH  18  19
ENDBRANCH   2  18
TORSDOF 2
ENDMDL
MODEL 4
REMARK VINA RESULT:      -7.4      6.521      9.222
REMARK  Name = 
REMARK  2 active torsions:
REMARK  status: ('A' for Active; 'I' for Inactive)
REMARK    1  A    between atoms: C_2  and  C_3
REMARK    2  A    between atoms: C_3  and  C_4
REMARK                            x       y       z     vdW  Elec       q    Type
REMARK                         _______ _______ _______ _____ _____    ______ ____
ROOT
ATOM      1  O   UNL     1       2.021   8.240  17.317  0.00  0.00    +0.000 OA
ATOM      2  C   UNL     1       2.028   8.202  18.548  0.00  0.00    +0.000 C 
ATOM      3  N   UNL     1       1.487   9.259  19.316  0.00  0.00    +0.000 N 
ATOM      4  C   UNL     1       0.927  10.465  18.635  0.00  0.00    +0.000 C 
ATOM      5  C   UNL     1       0.983  11.812  19.458  0.00  0.00    +0.000 C 
ATOM      6  C   UNL     1       0.503  11.545  20.840  0.00  0.00    +0.000 A 
ATOM      7  C   UNL     1       0.417  10.236  21.249  0.00  0.00    +0.000 A 
ATOM      8  N   UNL     1      -0.805  10.166  21.866  0.00  0.00    +0.000 N 
ATOM      9  C   UNL     1      -1.176  11.439  22.264  0.00  0.00    +0.000 A 
ATOM     10  C   UNL     1      -2.315  11.899  22.936  0.00  0.00    +0.000 A 
ATOM     11  C   UNL     1      -2.289  13.215  23.405  0.00  0.00    +0.000 A 
ATOM     12  C   UNL     1      -1.178  14.021  23.184  0.00  0.00    +0.000 A 
ATOM     13  F   UNL     1      -1.126  15.228  23.764  0.00  0.00    +0.000 F 
ATOM     14  C   UNL     1      -0.131  13.613  22.351  0.00  0.00    +0.000 A 
ATOM     15  C   UNL     1      -0.158  12.302  21.837  0.00  0.00    +0.000 A 
ATOM     16  C   UNL     1       1.271   9.130  20.763  0.00  0.00    +0.000 C 
ATOM     17  H   UNL     1      -1.360   9.332  21.999  0.00  0.00    +0.000 HD
ENDROOT
BRANCH   2  18
ATOM     18  C   UNL     1       2.617   7.030  19.349  0.00  0.00    +0.000 C 
BRANCH  18  19
ATOM     19  C   UNL     1       2.082   5.613  19.299  0.00  0.00    +0.000 A 
ATOM     20  C   UNL     1       1.961   4.776  18.180  0.00  0.00    +0.000 A 
ATOM     21  C   UNL     1       1.445   3.480  18.288  0.00  0.00    +0.000 A 
ATOM     22  C   UNL     1       1.055   2.967  19.526  0.00  0.00    +0.000 A 
ATOM     23  C   UNL     1       1.166   3.763  20.652  0.00  0.00    +0.000 A 
ATOM     24  C   UNL     1       1.655   5.056  20.550  0.00  0.00    +0.000 A 
ENDBRANCH  18  19
ENDBRANCH   2  18
TORSDOF 2
ENDMDL
MODEL 5
REMARK VINA RESULT:      -7.4      1.386      1.597
REMARK  Name = 
REMARK  2 active torsions:
REMARK  status: ('A' for Active; 'I' for Inactive)
REMARK    1  A    between atoms: C_2  and  C_3
REMARK    2  A    between atoms: C_3  and  C_4
REMARK                            x       y       z     vdW  Elec       q    Type
REMARK                         _______ _______ _______ _____ _____    ______ ____
ROOT
ATOM      1  O   UNL     1       6.256   6.584  14.727  0.00  0.00    +0.000 OA
ATOM      2  C   UNL     1       6.104   5.398  15.021  0.00  0.00    +0.000 C 
ATOM      3  N   UNL     1       5.301   5.014  16.121  0.00  0.00    +0.000 N 
ATOM      4  C   UNL     1       4.648   6.058  16.967  0.00  0.00    +0.000 C 
ATOM      5  C   UNL     1       4.375   5.655  18.471  0.00  0.00    +0.000 C 
ATOM      6  C   UNL     1       3.765   4.300  18.496  0.00  0.00    +0.000 A 
ATOM      7  C   UNL     1       3.839   3.539  17.355  0.00  0.00    +0.000 A 
ATOM      8  N   UNL     1       2.573   3.031  17.217  0.00  0.00    +0.000 N 
ATOM      9  C   UNL     1       1.950   3.049  18.453  0.00  0.00    +0.000 A 
ATOM     10  C   UNL     1       0.672   2.633  18.848  0.00  0.00    +0.000 A 
ATOM     11  C   UNL     1       0.421   2.563  20.220  0.00  0.00    +0.000 A 
ATOM     12  C   UNL     1       1.406   2.915  21.136  0.00  0.00    +0.000 A 
ATOM     13  F   UNL     1       1.183   2.704  22.442  0.00  0.00    +0.000 F 
ATOM     14  C   UNL     1       2.607   3.506  20.731  0.00  0.00    +0.000 A 
ATOM     15  C   UNL     1       2.862   3.621  19.350  0.00  0.00    +0.000 A 
ATOM     16  C   UNL     1       4.918   3.614  16.345  0.00  0.00    +0.000 C 
ATOM     17  H   UNL     1       2.148   2.709  16.358  0.00  0.00    +0.000 HD
ENDROOT
BRANCH   2  18
ATOM     18  C   UNL     1       6.764   4.248  14.244  0.00  0.00    +0.000 C 
BRANCH  18  19
ATOM     19  C   UNL     1       6.134   3.558  13.051  0.00  0.00    +0.000 A 
ATOM     20  C   UNL     1       6.682   2.542  12.254  0.00  0.00    +0.000 A 
ATOM     21  C   UNL     1       5.977   1.996  11.177  0.00  0.00    +0.000 A 
ATOM     22  C   UNL     1       4.686   2.430  10.874  0.00  0.00    +0.000 A 
ATOM     23  C   UNL     1       4.112   3.428  11.642  0.00  0.00    +0.000 A 
ATOM     24  C   UNL     1       4.813   3.990  12.698  0.00  0.00    +0.000 A 
ENDBRANCH  18  19
ENDBRANCH   2  18
TORSDOF 2
ENDMDL
MODEL 6
REMARK VINA RESULT:      -7.4      1.532      1.990
REMARK  Name = 
REMARK  2 active torsions:
REMARK  status: ('A' for Active; 'I' for Inactive)
REMARK    1  A    between atoms: C_2  and  C_3
REMARK    2  A    between atoms: C_3  and  C_4
REMARK                            x       y       z     vdW  Elec       q    Type
REMARK                         _______ _______ _______ _____ _____    ______ ____
ROOT
ATOM      1  O   UNL     1       7.066   7.226  16.348  0.00  0.00    +0.000 OA
ATOM      2  C   UNL     1       6.849   6.015  16.395  0.00  0.00    +0.000 C 
ATOM      3  N   UNL     1       5.881   5.478  17.276  0.00  0.00    +0.000 N 
ATOM      4  C   UNL     1       5.127   6.383  18.195  0.00  0.00    +0.000 C 
ATOM      5  C   UNL     1       4.620   5.733  19.543  0.00  0.00    +0.000 C 
ATOM      6  C   UNL     1       3.988   4.424  19.230  0.00  0.00    +0.000 A 
ATOM      7  C   UNL     1       4.220   3.876  17.992  0.00  0.00    +0.000 A 
ATOM      8  N   UNL     1       2.980   3.460  17.581  0.00  0.00    +0.000 N 
ATOM      9  C   UNL     1       2.177   3.286  18.695  0.00  0.00    +0.000 A 
ATOM     10  C   UNL     1       0.847   2.866  18.816  0.00  0.00    +0.000 A 
ATOM     11  C   UNL     1       0.389   2.564  20.101  0.00  0.00    +0.000 A 
ATOM     12  C   UNL     1       1.230   2.701  21.199  0.00  0.00    +0.000 A 
ATOM     13  F   UNL     1       0.808   2.272  22.398  0.00  0.00    +0.000 F 
ATOM     14  C   UNL     1       2.489   3.299  21.089  0.00  0.00    +0.000 A 
ATOM     15  C   UNL     1       2.953   3.646  19.804  0.00  0.00    +0.000 A 
ATOM     16  C   UNL     1       5.441   4.080  17.182  0.00  0.00    +0.000 C 
ATOM     17  H   UNL     1       2.685   3.317  16.625  0.00  0.00    +0.000 HD
ENDROOT
BRANCH   2  18
ATOM     18  C   UNL     1       7.597   4.992  15.525  0.00  0.00    +0.000 C 
BRANCH  18  19
ATOM     19  C   UNL     1       7.236   4.674  14.088  0.00  0.00    +0.000 A 
ATOM     20  C   UNL     1       7.843   5.157  12.920  0.00  0.00    +0.000 A 
ATOM     21  C   UNL     1       7.399   4.771  11.650  0.00  0.00    +0.000 A 
ATOM     22  C   UNL     1       6.345   3.868  11.506  0.00  0.00    +0.000 A 
ATOM     23  C   UNL     1       5.725   3.368  12.638  0.00  0.00    +0.000 A 
ATOM     24  C   UNL     1       6.146   3.762  13.898  0.00  0.00    +0.000 A 
ENDBRANCH  18  19
ENDBRANCH   2  18
TORSDOF 2
ENDMDL
MODEL 7
REMARK VINA RESULT:      -7.3      5.588      7.445
REMARK  Name = 
REMARK  2 active torsions:
REMARK  status: ('A' for Active; 'I' for Inactive)
REMARK    1  A    between atoms: C_2  and  C_3
REMARK    2  A    between atoms: C_3  and  C_4
REMARK                            x       y       z     vdW  Elec       q    Type
REMARK                         _______ _______ _______ _____ _____    ______ ____
ROOT
ATOM      1  O   UNL     1       3.338   5.558  20.063  0.00  0.00    +0.000 OA
ATOM      2  C   UNL     1       2.904   6.153  19.075  0.00  0.00    +0.000 C 
ATOM      3  N   UNL     1       2.192   7.369  19.208  0.00  0.00    +0.000 N 
ATOM      4  C   UNL     1       1.926   7.932  20.566  0.00  0.00    +0.000 C 
ATOM      5  C   UNL     1       0.631   8.827  20.700  0.00  0.00    +0.000 C 
ATOM      6  C   UNL     1       0.594   9.784  19.563  0.00  0.00    +0.000 A 
ATOM      7  C   UNL     1       1.421   9.544  18.493  0.00  0.00    +0.000 A 
ATOM      8  N   UNL     1       1.974  10.770  18.225  0.00  0.00    +0.000 N 
ATOM      9  C   UNL     1       1.146  11.753  18.739  0.00  0.00    +0.000 A 
ATOM     10  C   UNL     1       1.252  13.149  18.721  0.00  0.00    +0.000 A 
ATOM     11  C   UNL     1       0.129  13.877  19.121  0.00  0.00    +0.000 A 
ATOM     12  C   UNL     1      -1.026  13.222  19.534  0.00  0.00    +0.000 A 
ATOM     13  F   UNL     1      -2.130  13.945  19.778  0.00  0.00    +0.000 F 
ATOM     14  C   UNL     1      -1.054  11.838  19.728  0.00  0.00    +0.000 A 
ATOM     15  C   UNL     1       0.083  11.089  19.366  0.00  0.00    +0.000 A 
ATOM     16  C   UNL     1       1.876   8.209  18.045  0.00  0.00    +0.000 C 
ATOM     17  H   UNL     1       2.849  10.939  17.748  0.00  0.00    +0.000 HD
ENDROOT
BRANCH   2  18
ATOM     18  C   UNL     1       3.084   5.640  17.638  0.00  0.00    +0.000 C 
BRANCH  18  19
ATOM     19  C   UNL     1       4.423   5.274  17.028  0.00  0.00    +0.000 A 
ATOM     20  C   UNL     1       4.749   4.127  16.291  0.00  0.00    +0.000 A 
ATOM     21  C   UNL     1       6.037   3.924  15.785  0.00  0.00    +0.000 A 
ATOM     22  C   UNL     1       7.040   4.875  15.980  0.00  0.00    +0.000 A 
ATOM     23  C   UNL     1       6.752   6.021  16.699  0.00  0.00    +0.000 A 
ATOM     24  C   UNL     1       5.483   6.219  17.222  0.00  0.00    +0.000 A 
ENDBRANCH  18  19
ENDBRANCH   2  18
TORSDOF 2
ENDMDL
MODEL 8
REMARK VINA RESULT:      -7.3      5.590      7.397
REMARK  Name = 
REMARK  2 active torsions:
REMARK  status: ('A' for Active; 'I' for Inactive)
REMARK    1  A    between atoms: C_2  and  C_3
REMARK    2  A    between atoms: C_3  and  C_4
REMARK                            x       y       z     vdW  Elec       q    Type
REMARK                         _______ _______ _______ _____ _____    ______ ____
ROOT
ATOM      1  O   UNL     1       3.424   5.657  20.056  0.00  0.00    +0.000 OA
ATOM      2  C   UNL     1       2.981   6.253  19.074  0.00  0.00    +0.000 C 
ATOM      3  N   UNL     1       2.215   7.433  19.219  0.00  0.00    +0.000 N 
ATOM      4  C   UNL     1       1.900   7.955  20.583  0.00  0.00    +0.000 C 
ATOM      5  C   UNL     1       0.564   8.789  20.713  0.00  0.00    +0.000 C 
ATOM      6  C   UNL     1       0.505   9.768  19.595  0.00  0.00    +0.000 A 
ATOM      7  C   UNL     1       1.360   9.587  18.536  0.00  0.00    +0.000 A 
ATOM      8  N   UNL     1       1.863  10.842  18.303  0.00  0.00    +0.000 N 
ATOM      9  C   UNL     1       0.983  11.776  18.822  0.00  0.00    +0.000 A 
ATOM     10  C   UNL     1       1.027  13.176  18.836  0.00  0.00    +0.000 A 
ATOM     11  C   UNL     1      -0.133  13.845  19.230  0.00  0.00    +0.000 A 
ATOM     12  C   UNL     1      -1.265  13.132  19.609  0.00  0.00    +0.000 A 
ATOM     13  F   UNL     1      -2.403  13.799  19.847  0.00  0.00    +0.000 F 
ATOM     14  C   UNL     1      -1.235  11.744  19.773  0.00  0.00    +0.000 A 
ATOM     15  C   UNL     1      -0.059  11.054  19.416  0.00  0.00    +0.000 A 
ATOM     16  C   UNL     1       1.881   8.284  18.068  0.00  0.00    +0.000 C 
ATOM     17  H   UNL     1       2.737  11.060  17.846  0.00  0.00    +0.000 HD
ENDROOT
BRANCH   2  18
ATOM     18  C   UNL     1       3.209   5.780  17.630  0.00  0.00    +0.000 C 
BRANCH  18  19
ATOM     19  C   UNL     1       4.573   5.494  17.034  0.00  0.00    +0.000 A 
ATOM     20  C   UNL     1       5.735   6.273  17.131  0.00  0.00    +0.000 A 
ATOM     21  C   UNL     1       6.933   5.878  16.524  0.00  0.00    +0.000 A 
ATOM     22  C   UNL     1       7.015   4.677  15.819  0.00  0.00    +0.000 A 
ATOM     23  C   UNL     1       5.888   3.881  15.708  0.00  0.00    +0.000 A 
ATOM     24  C   UNL     1       4.693   4.276  16.288  0.00  0.00    +0.000 A 
ENDBRANCH  18  19
ENDBRANCH   2  18
TORSDOF 2
ENDMDL
MODEL 9
REMARK VINA RESULT:      -7.3      4.002      6.521
REMARK  Name = 
REMARK  2 active torsions:
REMARK  status: ('A' for Active; 'I' for Inactive)
REMARK    1  A    between atoms: C_2  and  C_3
REMARK    2  A    between atoms: C_3  and  C_4
REMARK                            x       y       z     vdW  Elec       q    Type
REMARK                         _______ _______ _______ _____ _____    ______ ____
ROOT
ATOM      1  O   UNL     1       8.297   7.396  16.214  0.00  0.00    +0.000 OA
ATOM      2  C   UNL     1       7.752   7.301  17.314  0.00  0.00    +0.000 C 
ATOM      3  N   UNL     1       6.613   6.483  17.499  0.00  0.00    +0.000 N 
ATOM      4  C   UNL     1       6.031   5.742  16.339  0.00  0.00    +0.000 C 
ATOM      5  C   UNL     1       4.482   5.439  16.419  0.00  0.00    +0.000 C 
ATOM      6  C   UNL     1       4.173   4.906  17.773  0.00  0.00    +0.000 A 
ATOM      7  C   UNL     1       5.117   5.063  18.758  0.00  0.00    +0.000 A 
ATOM      8  N   UNL     1       5.167   3.834  19.362  0.00  0.00    +0.000 N 
ATOM      9  C   UNL     1       3.979   3.168  19.114  0.00  0.00    +0.000 A 
ATOM     10  C   UNL     1       3.531   1.902  19.513  0.00  0.00    +0.000 A 
ATOM     11  C   UNL     1       2.183   1.607  19.297  0.00  0.00    +0.000 A 
ATOM     12  C   UNL     1       1.346   2.538  18.693  0.00  0.00    +0.000 A 
ATOM     13  F   UNL     1       0.031   2.281  18.627  0.00  0.00    +0.000 F 
ATOM     14  C   UNL     1       1.844   3.716  18.130  0.00  0.00    +0.000 A 
ATOM     15  C   UNL     1       3.211   4.014  18.304  0.00  0.00    +0.000 A 
ATOM     16  C   UNL     1       6.094   6.171  18.838  0.00  0.00    +0.000 C 
ATOM     17  H   UNL     1       5.943   3.459  19.890  0.00  0.00    +0.000 HD
ENDROOT
BRANCH   2  18
ATOM     18  C   UNL     1       8.241   8.052  18.562  0.00  0.00    +0.000 C 
BRANCH  18  19
ATOM     19  C   UNL     1       8.627   9.518  18.575  0.00  0.00    +0.000 A 
ATOM     20  C   UNL     1       8.291  10.506  17.638  0.00  0.00    +0.000 A 
ATOM     21  C   UNL     1       8.722  11.829  17.782  0.00  0.00    +0.000 A 
ATOM     22  C   UNL     1       9.485  12.216  18.885  0.00  0.00    +0.000 A 
ATOM     23  C   UNL     1       9.831  11.268  19.832  0.00  0.00    +0.000 A 
ATOM     24  C   UNL     1       9.426   9.950  19.684  0.00  0.00    +0.000 A 
ENDBRANCH  18  19
ENDBRANCH   2  18
TORSDOF 2
ENDMDL
