MODEL 1
REMARK VINA RESULT:      -8.5      0.000      0.000
REMARK  Name = 
REMARK  4 active torsions:
REMARK  status: ('A' for Active; 'I' for Inactive)
REMARK    1  A    between atoms: C_7  and  O_8
REMARK    2  A    between atoms: O_8  and  C_9
REMARK    3  A    between atoms: C_9  and  C_10
REMARK    4  A    between atoms: C_14  and  C_16
REMARK                            x       y       z     vdW  Elec       q    Type
REMARK                         _______ _______ _______ _____ _____    ______ ____
ROOT
ATOM      1  O   UNL     1       2.384   7.066  17.749  0.00  0.00    +0.000 OA
ENDROOT
BRANCH   1   8
ATOM      2  N   UNL     1       4.940   1.755  20.100  0.00  0.00    +0.000 N 
ATOM      3  C   UNL     1       4.609   2.997  19.588  0.00  0.00    +0.000 A 
ATOM      4  N   UNL     1       3.340   3.385  19.682  0.00  0.00    +0.000 NA
ATOM      5  C   UNL     1       3.028   4.578  19.145  0.00  0.00    +0.000 A 
ATOM      6  N   UNL     1       1.724   5.000  19.404  0.00  0.00    +0.000 N 
ATOM      7  C   UNL     1       3.956   5.397  18.478  0.00  0.00    +0.000 A 
ATOM      8  C   UNL     1       3.700   6.647  17.819  0.00  0.00    +0.000 A 
ATOM      9  C   UNL     1       4.764   7.359  17.250  0.00  0.00    +0.000 A 
ATOM     10  C   UNL     1       6.052   6.841  17.290  0.00  0.00    +0.000 A 
ATOM     11  C   UNL     1       6.279   5.603  17.882  0.00  0.00    +0.000 A 
ATOM     12  C   UNL     1       5.253   4.873  18.464  0.00  0.00    +0.000 A 
ATOM     13  N   UNL     1       5.576   3.690  18.997  0.00  0.00    +0.000 NA
ATOM     14  H   UNL     1       4.119   1.171  20.125  0.00  0.00    +0.000 HD
ATOM     15  H   UNL     1       5.755   1.398  19.616  0.00  0.00    +0.000 HD
ATOM     16  H   UNL     1       1.190   4.225  19.787  0.00  0.00    +0.000 HD
ATOM     17  H   UNL     1       1.306   5.455  18.603  0.00  0.00    +0.000 HD
ENDBRANCH   1   8
BRANCH   1  18
ATOM     18  C   UNL     1       2.137   8.440  18.044  0.00  0.00    +0.000 C 
BRANCH  18  19
ATOM     19  C   UNL     1       1.123   8.619  19.178  0.00  0.00    +0.000 C 
ATOM     20  C   UNL     1       1.628   8.269  20.586  0.00  0.00    +0.000 C 
ATOM     21  C   UNL     1       0.486   8.413  21.610  0.00  0.00    +0.000 C 
ATOM     22  N   UNL     1      -0.162   9.730  21.533  0.00  0.00    +0.000 N 
ATOM     23  C   UNL     1      -0.420  10.427  22.721  0.00  0.00    +0.000 C 
ATOM     24  O   UNL     1      -0.075  10.004  23.825  0.00  0.00    +0.000 OA
ATOM     25  C   UNL     1      -0.553  10.152  20.188  0.00  0.00    +0.000 C 
ATOM     26  C   UNL     1       0.601  10.052  19.209  0.00  0.00    +0.000 C 
BRANCH  23  27
ATOM     27  C   UNL     1      -1.060  11.776  22.688  0.00  0.00    +0.000 A 
ATOM     28  C   UNL     1      -0.378  12.935  22.299  0.00  0.00    +0.000 A 
ATOM     29  C   UNL     1      -0.968  14.191  22.467  0.00  0.00    +0.000 A 
ATOM     30  C   UNL     1      -2.283  14.283  22.914  0.00  0.00    +0.000 A 
ATOM     31 CL   UNL     1      -2.999  15.831  23.140  0.00  0.00    +0.000 Cl
ATOM     32  C   UNL     1      -3.019  13.130  23.178  0.00  0.00    +0.000 A 
ATOM     33  C   UNL     1      -2.406  11.876  23.073  0.00  0.00    +0.000 A 
ENDBRANCH  23  27
ENDBRANCH  18  19
ENDBRANCH   1  18
TORSDOF 4
ENDMDL
MODEL 2
REMARK VINA RESULT:      -8.4      4.008      9.799
REMARK  Name = 
REMARK  4 active torsions:
REMARK  status: ('A' for Active; 'I' for Inactive)
REMARK    1  A    between atoms: C_7  and  O_8
REMARK    2  A    between atoms: O_8  and  C_9
REMARK    3  A    between atoms: C_9  and  C_10
REMARK    4  A    between atoms: C_14  and  C_16
REMARK                            x       y       z     vdW  Elec       q    Type
REMARK                         _______ _______ _______ _____ _____    ______ ____
ROOT
ATOM      1  O   UNL     1       1.062   8.631  21.201  0.00  0.00    +0.000 OA
ENDROOT
BRANCH   1   8
ATOM      2  N   UNL     1      -2.523  13.386  23.391  0.00  0.00    +0.000 N 
ATOM      3  C   UNL     1      -1.843  12.399  22.700  0.00  0.00    +0.000 A 
ATOM      4  N   UNL     1      -1.308  11.409  23.408  0.00  0.00    +0.000 NA
ATOM      5  C   UNL     1      -0.617  10.478  22.725  0.00  0.00    +0.000 A 
ATOM      6  N   UNL     1      -0.208   9.389  23.494  0.00  0.00    +0.000 N 
ATOM      7  C   UNL     1      -0.416  10.524  21.334  0.00  0.00    +0.000 A 
ATOM      8  C   UNL     1       0.358   9.617  20.534  0.00  0.00    +0.000 A 
ATOM      9  C   UNL     1       0.401   9.786  19.145  0.00  0.00    +0.000 A 
ATOM     10  C   UNL     1      -0.269  10.845  18.548  0.00  0.00    +0.000 A 
ATOM     11  C   UNL     1      -0.970  11.750  19.338  0.00  0.00    +0.000 A 
ATOM     12  C   UNL     1      -1.045  11.611  20.716  0.00  0.00    +0.000 A 
ATOM     13  N   UNL     1      -1.735  12.541  21.384  0.00  0.00    +0.000 NA
ATOM     14  H   UNL     1      -2.194  13.420  24.343  0.00  0.00    +0.000 HD
ATOM     15  H   UNL     1      -2.500  14.248  22.857  0.00  0.00    +0.000 HD
ATOM     16  H   UNL     1      -0.340   9.603  24.478  0.00  0.00    +0.000 HD
ATOM     17  H   UNL     1       0.721   9.075  23.244  0.00  0.00    +0.000 HD
ENDBRANCH   1   8
BRANCH   1  18
ATOM     18  C   UNL     1       0.669   7.283  20.943  0.00  0.00    +0.000 C 
BRANCH  18  19
ATOM     19  C   UNL     1       1.868   6.370  20.674  0.00  0.00    +0.000 C 
ATOM     20  C   UNL     1       1.553   4.870  20.563  0.00  0.00    +0.000 C 
ATOM     21  C   UNL     1       2.854   4.067  20.377  0.00  0.00    +0.000 C 
ATOM     22  N   UNL     1       3.663   4.577  19.260  0.00  0.00    +0.000 N 
ATOM     23  C   UNL     1       4.207   3.663  18.348  0.00  0.00    +0.000 C 
ATOM     24  O   UNL     1       3.988   2.453  18.411  0.00  0.00    +0.000 OA
ATOM     25  C   UNL     1       3.888   6.022  19.267  0.00  0.00    +0.000 C 
ATOM     26  C   UNL     1       2.589   6.793  19.397  0.00  0.00    +0.000 C 
BRANCH  23  27
ATOM     27  C   UNL     1       5.021   4.139  17.188  0.00  0.00    +0.000 A 
ATOM     28  C   UNL     1       4.483   4.343  15.912  0.00  0.00    +0.000 A 
ATOM     29  C   UNL     1       5.323   4.605  14.827  0.00  0.00    +0.000 A 
ATOM     30  C   UNL     1       6.688   4.781  15.035  0.00  0.00    +0.000 A 
ATOM     31 CL   UNL     1       7.723   5.083  13.694  0.00  0.00    +0.000 Cl
ATOM     32  C   UNL     1       7.218   4.712  16.322  0.00  0.00    +0.000 A 
ATOM     33  C   UNL     1       6.386   4.384  17.398  0.00  0.00    +0.000 A 
ENDBRANCH  23  27
ENDBRANCH  18  19
ENDBRANCH   1  18
TORSDOF 4
ENDMDL
MODEL 3
REMARK VINA RESULT:      -8.3      2.844      3.809
REMARK  Name = 
REMARK  4 active torsions:
REMARK  status: ('A' for Active; 'I' for Inactive)
REMARK    1  A    between atoms: C_7  and  O_8
REMARK    2  A    between atoms: O_8  and  C_9
REMARK    3  A    between atoms: C_9  and  C_10
REMARK    4  A    between atoms: C_14  and  C_16
REMARK                            x       y       z     vdW  Elec       q    Type
REMARK                         _______ _______ _______ _____ _____    ______ ____
ROOT
ATOM      1  O   UNL     1       2.209   7.134  19.862  0.00  0.00    +0.000 OA
ENDROOT
BRANCH   1   8
ATOM      2  N   UNL     1       5.587   3.265  16.135  0.00  0.00    +0.000 N 
ATOM      3  C   UNL     1       4.712   3.915  16.989  0.00  0.00    +0.000 A 
ATOM      4  N   UNL     1       4.676   5.243  16.939  0.00  0.00    +0.000 NA
ATOM      5  C   UNL     1       3.848   5.861  17.802  0.00  0.00    +0.000 A 
ATOM      6  N   UNL     1       3.738   7.237  17.605  0.00  0.00    +0.000 N 
ATOM      7  C   UNL     1       3.065   5.180  18.750  0.00  0.00    +0.000 A 
ATOM      8  C   UNL     1       2.209   5.756  19.750  0.00  0.00    +0.000 A 
ATOM      9  C   UNL     1       1.455   4.917  20.579  0.00  0.00    +0.000 A 
ATOM     10  C   UNL     1       1.561   3.537  20.462  0.00  0.00    +0.000 A 
ATOM     11  C   UNL     1       2.435   2.991  19.528  0.00  0.00    +0.000 A 
ATOM     12  C   UNL     1       3.192   3.788  18.682  0.00  0.00    +0.000 A 
ATOM     13  N   UNL     1       4.008   3.163  17.828  0.00  0.00    +0.000 NA
ATOM     14  H   UNL     1       6.333   3.891  15.876  0.00  0.00    +0.000 HD
ATOM     15  H   UNL     1       5.844   2.370  16.535  0.00  0.00    +0.000 HD
ATOM     16  H   UNL     1       4.465   7.544  16.965  0.00  0.00    +0.000 HD
ATOM     17  H   UNL     1       3.694   7.743  18.479  0.00  0.00    +0.000 HD
ENDBRANCH   1   8
BRANCH   1  18
ATOM     18  C   UNL     1       1.501   7.682  20.974  0.00  0.00    +0.000 C 
BRANCH  18  19
ATOM     19  C   UNL     1       1.015   9.109  20.707  0.00  0.00    +0.000 C 
ATOM     20  C   UNL     1       1.240   9.636  19.281  0.00  0.00    +0.000 C 
ATOM     21  C   UNL     1       0.783  11.103  19.180  0.00  0.00    +0.000 C 
ATOM     22  N   UNL     1      -0.595  11.287  19.659  0.00  0.00    +0.000 N 
ATOM     23  C   UNL     1      -1.480  12.057  18.892  0.00  0.00    +0.000 C 
ATOM     24  O   UNL     1      -1.166  12.539  17.803  0.00  0.00    +0.000 OA
ATOM     25  C   UNL     1      -0.881  10.696  20.966  0.00  0.00    +0.000 C 
ATOM     26  C   UNL     1      -0.472   9.237  21.026  0.00  0.00    +0.000 C 
BRANCH  23  27
ATOM     27  C   UNL     1      -2.894  12.254  19.332  0.00  0.00    +0.000 A 
ATOM     28  C   UNL     1      -3.245  13.021  20.451  0.00  0.00    +0.000 A 
ATOM     29  C   UNL     1      -4.559  13.016  20.924  0.00  0.00    +0.000 A 
ATOM     30  C   UNL     1      -5.548  12.342  20.214  0.00  0.00    +0.000 A 
ATOM     31 CL   UNL     1      -7.162  12.320  20.811  0.00  0.00    +0.000 Cl
ATOM     32  C   UNL     1      -5.237  11.685  19.025  0.00  0.00    +0.000 A 
ATOM     33  C   UNL     1      -3.909  11.635  18.587  0.00  0.00    +0.000 A 
ENDBRANCH  23  27
ENDBRANCH  18  19
ENDBRANCH   1  18
TORSDOF 4
ENDMDL
MODEL 4
REMARK VINA RESULT:      -8.2      4.039      9.706
REMARK  Name = 
REMARK  4 active torsions:
REMARK  status: ('A' for Active; 'I' for Inactive)
REMARK    1  A    between atoms: C_7  and  O_8
REMARK    2  A    between atoms: O_8  and  C_9
REMARK    3  A    between atoms: C_9  and  C_10
REMARK    4  A    between atoms: C_14  and  C_16
REMARK                            x       y       z     vdW  Elec       q    Type
REMARK                         _______ _______ _______ _____ _____    ______ ____
ROOT
ATOM      1  O   UNL     1       1.540   8.281  21.130  0.00  0.00    +0.000 OA
ENDROOT
BRANCH   1   8
ATOM      2  N   UNL     1      -1.345  12.789  17.721  0.00  0.00    +0.000 N 
ATOM      3  C   UNL     1      -0.781  11.939  18.656  0.00  0.00    +0.000 A 
ATOM      4  N   UNL     1       0.146  11.085  18.232  0.00  0.00    +0.000 NA
ATOM      5  C   UNL     1       0.656  10.239  19.145  0.00  0.00    +0.000 A 
ATOM      6  N   UNL     1       1.726   9.473  18.683  0.00  0.00    +0.000 N 
ATOM      7  C   UNL     1       0.238  10.199  20.487  0.00  0.00    +0.000 A 
ATOM      8  C   UNL     1       0.675   9.291  21.510  0.00  0.00    +0.000 A 
ATOM      9  C   UNL     1       0.188   9.435  22.815  0.00  0.00    +0.000 A 
ATOM     10  C   UNL     1      -0.739  10.425  23.111  0.00  0.00    +0.000 A 
ATOM     11  C   UNL     1      -1.197  11.264  22.100  0.00  0.00    +0.000 A 
ATOM     12  C   UNL     1      -0.732  11.159  20.797  0.00  0.00    +0.000 A 
ATOM     13  N   UNL     1      -1.244  12.006  19.899  0.00  0.00    +0.000 NA
ATOM     14  H   UNL     1      -1.254  12.388  16.802  0.00  0.00    +0.000 HD
ATOM     15  H   UNL     1      -2.274  13.056  18.027  0.00  0.00    +0.000 HD
ATOM     16  H   UNL     1       1.789   9.559  17.673  0.00  0.00    +0.000 HD
ATOM     17  H   UNL     1       1.692   8.524  19.031  0.00  0.00    +0.000 HD
ENDBRANCH   1   8
BRANCH   1  18
ATOM     18  C   UNL     1       0.978   6.976  21.001  0.00  0.00    +0.000 C 
BRANCH  18  19
ATOM     19  C   UNL     1       2.033   5.918  20.669  0.00  0.00    +0.000 C 
ATOM     20  C   UNL     1       1.493   4.522  20.321  0.00  0.00    +0.000 C 
ATOM     21  C   UNL     1       2.660   3.543  20.092  0.00  0.00    +0.000 C 
ATOM     22  N   UNL     1       3.627   4.056  19.111  0.00  0.00    +0.000 N 
ATOM     23  C   UNL     1       4.091   3.196  18.106  0.00  0.00    +0.000 C 
ATOM     24  O   UNL     1       3.677   2.043  17.978  0.00  0.00    +0.000 OA
ATOM     25  C   UNL     1       4.079   5.428  19.343  0.00  0.00    +0.000 C 
ATOM     26  C   UNL     1       2.913   6.383  19.512  0.00  0.00    +0.000 C 
BRANCH  23  27
ATOM     27  C   UNL     1       5.060   3.681  17.078  0.00  0.00    +0.000 A 
ATOM     28  C   UNL     1       6.356   4.109  17.392  0.00  0.00    +0.000 A 
ATOM     29  C   UNL     1       7.149   4.726  16.422  0.00  0.00    +0.000 A 
ATOM     30  C   UNL     1       6.696   4.811  15.108  0.00  0.00    +0.000 A 
ATOM     31 CL   UNL     1       7.666   5.590  13.921  0.00  0.00    +0.000 Cl
ATOM     32  C   UNL     1       5.462   4.268  14.753  0.00  0.00    +0.000 A 
ATOM     33  C   UNL     1       4.641   3.710  15.739  0.00  0.00    +0.000 A 
ENDBRANCH  23  27
ENDBRANCH  18  19
ENDBRANCH   1  18
TORSDOF 4
ENDMDL
MODEL 5
REMARK VINA RESULT:      -8.1      4.281     10.145
REMARK  Name = 
REMARK  4 active torsions:
REMARK  status: ('A' for Active; 'I' for Inactive)
REMARK    1  A    between atoms: C_7  and  O_8
REMARK    2  A    between atoms: O_8  and  C_9
REMARK    3  A    between atoms: C_9  and  C_10
REMARK    4  A    between atoms: C_14  and  C_16
REMARK                            x       y       z     vdW  Elec       q    Type
REMARK                         _______ _______ _______ _____ _____    ______ ____
ROOT
ATOM      1  O   UNL     1       1.408   9.798  19.754  0.00  0.00    +0.000 OA
ENDROOT
BRANCH   1   8
ATOM      2  N   UNL     1      -3.239  14.065  20.432  0.00  0.00    +0.000 N 
ATOM      3  C   UNL     1      -2.227  13.126  20.526  0.00  0.00    +0.000 A 
ATOM      4  N   UNL     1      -1.437  12.965  19.468  0.00  0.00    +0.000 NA
ATOM      5  C   UNL     1      -0.482  12.021  19.562  0.00  0.00    +0.000 A 
ATOM      6  N   UNL     1       0.407  11.998  18.488  0.00  0.00    +0.000 N 
ATOM      7  C   UNL     1      -0.309  11.200  20.690  0.00  0.00    +0.000 A 
ATOM      8  C   UNL     1       0.634  10.129  20.852  0.00  0.00    +0.000 A 
ATOM      9  C   UNL     1       0.704   9.449  22.074  0.00  0.00    +0.000 A 
ATOM     10  C   UNL     1      -0.158   9.784  23.110  0.00  0.00    +0.000 A 
ATOM     11  C   UNL     1      -1.104  10.785  22.924  0.00  0.00    +0.000 A 
ATOM     12  C   UNL     1      -1.198  11.488  21.731  0.00  0.00    +0.000 A 
ATOM     13  N   UNL     1      -2.150  12.424  21.650  0.00  0.00    +0.000 NA
ATOM     14  H   UNL     1      -3.472  14.215  19.463  0.00  0.00    +0.000 HD
ATOM     15  H   UNL     1      -3.993  13.811  21.061  0.00  0.00    +0.000 HD
ATOM     16  H   UNL     1       0.042  12.574  17.736  0.00  0.00    +0.000 HD
ATOM     17  H   UNL     1       0.657  11.055  18.223  0.00  0.00    +0.000 HD
ENDBRANCH   1   8
BRANCH   1  18
ATOM     18  C   UNL     1       1.165   8.521  19.165  0.00  0.00    +0.000 C 
BRANCH  18  19
ATOM     19  C   UNL     1       2.402   7.619  19.201  0.00  0.00    +0.000 C 
ATOM     20  C   UNL     1       2.159   6.172  19.655  0.00  0.00    +0.000 C 
ATOM     21  C   UNL     1       3.494   5.407  19.725  0.00  0.00    +0.000 C 
ATOM     22  N   UNL     1       4.254   5.506  18.470  0.00  0.00    +0.000 N 
ATOM     23  C   UNL     1       4.824   4.344  17.931  0.00  0.00    +0.000 C 
ATOM     24  O   UNL     1       4.666   3.233  18.438  0.00  0.00    +0.000 OA
ATOM     25  C   UNL     1       4.407   6.862  17.943  0.00  0.00    +0.000 C 
ATOM     26  C   UNL     1       3.075   7.576  17.832  0.00  0.00    +0.000 C 
BRANCH  23  27
ATOM     27  C   UNL     1       5.589   4.396  16.649  0.00  0.00    +0.000 A 
ATOM     28  C   UNL     1       6.951   4.711  16.585  0.00  0.00    +0.000 A 
ATOM     29  C   UNL     1       7.567   4.929  15.350  0.00  0.00    +0.000 A 
ATOM     30  C   UNL     1       6.854   4.717  14.174  0.00  0.00    +0.000 A 
ATOM     31 CL   UNL     1       7.609   5.007  12.656  0.00  0.00    +0.000 Cl
ATOM     32  C   UNL     1       5.534   4.273  14.222  0.00  0.00    +0.000 A 
ATOM     33  C   UNL     1       4.898   4.120  15.459  0.00  0.00    +0.000 A 
ENDBRANCH  23  27
ENDBRANCH  18  19
ENDBRANCH   1  18
TORSDOF 4
ENDMDL
MODEL 6
REMARK VINA RESULT:      -8.1      1.172      1.172
REMARK  Name = 
REMARK  4 active torsions:
REMARK  status: ('A' for Active; 'I' for Inactive)
REMARK    1  A    between atoms: C_7  and  O_8
REMARK    2  A    between atoms: O_8  and  C_9
REMARK    3  A    between atoms: C_9  and  C_10
REMARK    4  A    between atoms: C_14  and  C_16
REMARK                            x       y       z     vdW  Elec       q    Type
REMARK                         _______ _______ _______ _____ _____    ______ ____
ROOT
ATOM      1  O   UNL     1       3.509   7.417  18.567  0.00  0.00    +0.000 OA
ENDROOT
BRANCH   1   8
ATOM      2  N   UNL     1       3.425   1.073  18.501  0.00  0.00    +0.000 N 
ATOM      3  C   UNL     1       3.623   2.435  18.354  0.00  0.00    +0.000 A 
ATOM      4  N   UNL     1       3.155   3.231  19.311  0.00  0.00    +0.000 NA
ATOM      5  C   UNL     1       3.321   4.555  19.134  0.00  0.00    +0.000 A 
ATOM      6  N   UNL     1       2.949   5.330  20.232  0.00  0.00    +0.000 N 
ATOM      7  C   UNL     1       3.925   5.118  17.996  0.00  0.00    +0.000 A 
ATOM      8  C   UNL     1       4.084   6.512  17.693  0.00  0.00    +0.000 A 
ATOM      9  C   UNL     1       4.765   6.893  16.530  0.00  0.00    +0.000 A 
ATOM     10  C   UNL     1       5.251   5.929  15.657  0.00  0.00    +0.000 A 
ATOM     11  C   UNL     1       5.043   4.582  15.933  0.00  0.00    +0.000 A 
ATOM     12  C   UNL     1       4.381   4.165  17.079  0.00  0.00    +0.000 A 
ATOM     13  N   UNL     1       4.224   2.847  17.244  0.00  0.00    +0.000 NA
ATOM     14  H   UNL     1       2.636   0.909  19.104  0.00  0.00    +0.000 HD
ATOM     15  H   UNL     1       3.415   0.635  17.587  0.00  0.00    +0.000 HD
ATOM     16  H   UNL     1       2.432   4.755  20.890  0.00  0.00    +0.000 HD
ATOM     17  H   UNL     1       2.486   6.185  19.954  0.00  0.00    +0.000 HD
ENDBRANCH   1   8
BRANCH   1  18
ATOM     18  C   UNL     1       2.518   8.287  18.021  0.00  0.00    +0.000 C 
BRANCH  18  19
ATOM     19  C   UNL     1       1.399   8.594  19.021  0.00  0.00    +0.000 C 
ATOM     20  C   UNL     1       1.706   8.258  20.489  0.00  0.00    +0.000 C 
ATOM     21  C   UNL     1       0.470   8.537  21.366  0.00  0.00    +0.000 C 
ATOM     22  N   UNL     1      -0.046   9.900  21.174  0.00  0.00    +0.000 N 
ATOM     23  C   UNL     1      -0.378  10.662  22.303  0.00  0.00    +0.000 C 
ATOM     24  O   UNL     1      -0.201  10.255  23.452  0.00  0.00    +0.000 OA
ATOM     25  C   UNL     1      -0.242  10.299  19.780  0.00  0.00    +0.000 C 
ATOM     26  C   UNL     1       1.004  10.066  18.948  0.00  0.00    +0.000 C 
BRANCH  23  27
ATOM     27  C   UNL     1      -0.890  12.057  22.155  0.00  0.00    +0.000 A 
ATOM     28  C   UNL     1      -0.069  13.139  21.815  0.00  0.00    +0.000 A 
ATOM     29  C   UNL     1      -0.562  14.445  21.876  0.00  0.00    +0.000 A 
ATOM     30  C   UNL     1      -1.906  14.665  22.161  0.00  0.00    +0.000 A 
ATOM     31 CL   UNL     1      -2.505  16.275  22.256  0.00  0.00    +0.000 Cl
ATOM     32  C   UNL     1      -2.766  13.588  22.371  0.00  0.00    +0.000 A 
ATOM     33  C   UNL     1      -2.257  12.285  22.375  0.00  0.00    +0.000 A 
ENDBRANCH  23  27
ENDBRANCH  18  19
ENDBRANCH   1  18
TORSDOF 4
ENDMDL
MODEL 7
REMARK VINA RESULT:      -8.1      2.181      3.276
REMARK  Name = 
REMARK  4 active torsions:
REMARK  status: ('A' for Active; 'I' for Inactive)
REMARK    1  A    between atoms: C_7  and  O_8
REMARK    2  A    between atoms: O_8  and  C_9
REMARK    3  A    between atoms: C_9  and  C_10
REMARK    4  A    between atoms: C_14  and  C_16
REMARK                            x       y       z     vdW  Elec       q    Type
REMARK                         _______ _______ _______ _____ _____    ______ ____
ROOT
ATOM      1  O   UNL     1       2.069   6.872  19.986  0.00  0.00    +0.000 OA
ENDROOT
BRANCH   1   8
ATOM      2  N   UNL     1       5.732   3.483  16.065  0.00  0.00    +0.000 N 
ATOM      3  C   UNL     1       4.802   4.019  16.939  0.00  0.00    +0.000 A 
ATOM      4  N   UNL     1       4.711   5.345  17.004  0.00  0.00    +0.000 NA
ATOM      5  C   UNL     1       3.830   5.851  17.886  0.00  0.00    +0.000 A 
ATOM      6  N   UNL     1       3.668   7.234  17.805  0.00  0.00    +0.000 N 
ATOM      7  C   UNL     1       3.044   5.059  18.741  0.00  0.00    +0.000 A 
ATOM      8  C   UNL     1       2.131   5.510  19.754  0.00  0.00    +0.000 A 
ATOM      9  C   UNL     1       1.385   4.572  20.478  0.00  0.00    +0.000 A 
ATOM     10  C   UNL     1       1.554   3.214  20.245  0.00  0.00    +0.000 A 
ATOM     11  C   UNL     1       2.481   2.786  19.301  0.00  0.00    +0.000 A 
ATOM     12  C   UNL     1       3.232   3.684  18.556  0.00  0.00    +0.000 A 
ATOM     13  N   UNL     1       4.103   3.170  17.682  0.00  0.00    +0.000 NA
ATOM     14  H   UNL     1       6.459   4.158  15.890  0.00  0.00    +0.000 HD
ATOM     15  H   UNL     1       6.012   2.566  16.395  0.00  0.00    +0.000 HD
ATOM     16  H   UNL     1       4.403   7.625  17.222  0.00  0.00    +0.000 HD
ATOM     17  H   UNL     1       3.573   7.658  18.718  0.00  0.00    +0.000 HD
ENDBRANCH   1   8
BRANCH   1  18
ATOM     18  C   UNL     1       1.311   7.290  21.120  0.00  0.00    +0.000 C 
BRANCH  18  19
ATOM     19  C   UNL     1       1.050   8.799  21.120  0.00  0.00    +0.000 C 
ATOM     20  C   UNL     1       0.936   9.457  19.737  0.00  0.00    +0.000 C 
ATOM     21  C   UNL     1       0.760  10.980  19.887  0.00  0.00    +0.000 C 
ATOM     22  N   UNL     1      -0.351  11.321  20.788  0.00  0.00    +0.000 N 
ATOM     23  C   UNL     1      -1.260  12.313  20.396  0.00  0.00    +0.000 C 
ATOM     24  O   UNL     1      -1.199  12.871  19.300  0.00  0.00    +0.000 OA
ATOM     25  C   UNL     1      -0.341  10.625  22.075  0.00  0.00    +0.000 C 
ATOM     26  C   UNL     1      -0.221   9.123  21.901  0.00  0.00    +0.000 C 
BRANCH  23  27
ATOM     27  C   UNL     1      -2.412  12.678  21.273  0.00  0.00    +0.000 A 
ATOM     28  C   UNL     1      -2.256  13.135  22.588  0.00  0.00    +0.000 A 
ATOM     29  C   UNL     1      -3.369  13.280  23.420  0.00  0.00    +0.000 A 
ATOM     30  C   UNL     1      -4.648  13.084  22.907  0.00  0.00    +0.000 A 
ATOM     31 CL   UNL     1      -6.014  13.244  23.940  0.00  0.00    +0.000 Cl
ATOM     32  C   UNL     1      -4.824  12.760  21.563  0.00  0.00    +0.000 A 
ATOM     33  C   UNL     1      -3.707  12.550  20.748  0.00  0.00    +0.000 A 
ENDBRANCH  23  27
ENDBRANCH  18  19
ENDBRANCH   1  18
TORSDOF 4
ENDMDL
MODEL 8
REMARK VINA RESULT:      -8.1      2.915      3.425
REMARK  Name = 
REMARK  4 active torsions:
REMARK  status: ('A' for Active; 'I' for Inactive)
REMARK    1  A    between atoms: C_7  and  O_8
REMARK    2  A    between atoms: O_8  and  C_9
REMARK    3  A    between atoms: C_9  and  C_10
REMARK    4  A    between atoms: C_14  and  C_16
REMARK                            x       y       z     vdW  Elec       q    Type
REMARK                         _______ _______ _______ _____ _____    ______ ____
ROOT
ATOM      1  O   UNL     1       3.490   7.686  18.227  0.00  0.00    +0.000 OA
ENDROOT
BRANCH   1   8
ATOM      2  N   UNL     1       2.089   1.540  18.949  0.00  0.00    +0.000 N 
ATOM      3  C   UNL     1       2.588   2.800  18.671  0.00  0.00    +0.000 A 
ATOM      4  N   UNL     1       2.150   3.813  19.413  0.00  0.00    +0.000 NA
ATOM      5  C   UNL     1       2.617   5.037  19.106  0.00  0.00    +0.000 A 
ATOM      6  N   UNL     1       2.244   6.035  20.005  0.00  0.00    +0.000 N 
ATOM      7  C   UNL     1       3.500   5.288  18.041  0.00  0.00    +0.000 A 
ATOM      8  C   UNL     1       3.995   6.561  17.600  0.00  0.00    +0.000 A 
ATOM      9  C   UNL     1       4.920   6.617  16.549  0.00  0.00    +0.000 A 
ATOM     10  C   UNL     1       5.326   5.452  15.913  0.00  0.00    +0.000 A 
ATOM     11  C   UNL     1       4.798   4.228  16.312  0.00  0.00    +0.000 A 
ATOM     12  C   UNL     1       3.888   4.131  17.355  0.00  0.00    +0.000 A 
ATOM     13  N   UNL     1       3.433   2.910  17.652  0.00  0.00    +0.000 NA
ATOM     14  H   UNL     1       1.195   1.624  19.407  0.00  0.00    +0.000 HD
ATOM     15  H   UNL     1       2.134   0.969  18.112  0.00  0.00    +0.000 HD
ATOM     16  H   UNL     1       1.519   5.679  20.621  0.00  0.00    +0.000 HD
ATOM     17  H   UNL     1       2.022   6.904  19.538  0.00  0.00    +0.000 HD
ENDBRANCH   1   8
BRANCH   1  18
ATOM     18  C   UNL     1       2.623   8.512  17.450  0.00  0.00    +0.000 C 
BRANCH  18  19
ATOM     19  C   UNL     1       1.819   9.486  18.316  0.00  0.00    +0.000 C 
ATOM     20  C   UNL     1       2.079  10.978  18.059  0.00  0.00    +0.000 C 
ATOM     21  C   UNL     1       1.271  11.836  19.052  0.00  0.00    +0.000 C 
ATOM     22  N   UNL     1      -0.157  11.483  19.050  0.00  0.00    +0.000 N 
ATOM     23  C   UNL     1      -1.107  12.513  19.011  0.00  0.00    +0.000 C 
ATOM     24  O   UNL     1      -0.794  13.700  18.921  0.00  0.00    +0.000 OA
ATOM     25  C   UNL     1      -0.444  10.054  19.176  0.00  0.00    +0.000 C 
ATOM     26  C   UNL     1       0.322   9.235  18.154  0.00  0.00    +0.000 C 
BRANCH  23  27
ATOM     27  C   UNL     1      -2.568  12.200  18.991  0.00  0.00    +0.000 A 
ATOM     28  C   UNL     1      -3.185  11.506  17.943  0.00  0.00    +0.000 A 
ATOM     29  C   UNL     1      -4.577  11.407  17.886  0.00  0.00    +0.000 A 
ATOM     30  C   UNL     1      -5.349  11.899  18.935  0.00  0.00    +0.000 A 
ATOM     31 CL   UNL     1      -7.064  11.794  18.852  0.00  0.00    +0.000 Cl
ATOM     32  C   UNL     1      -4.739  12.473  20.049  0.00  0.00    +0.000 A 
ATOM     33  C   UNL     1      -3.349  12.631  20.073  0.00  0.00    +0.000 A 
ENDBRANCH  23  27
ENDBRANCH  18  19
ENDBRANCH   1  18
TORSDOF 4
ENDMDL
MODEL 9
REMARK VINA RESULT:      -8.0      2.980      4.054
REMARK  Name = 
REMARK  4 active torsions:
REMARK  status: ('A' for Active; 'I' for Inactive)
REMARK    1  A    between atoms: C_7  and  O_8
REMARK    2  A    between atoms: O_8  and  C_9
REMARK    3  A    between atoms: C_9  and  C_10
REMARK    4  A    between atoms: C_14  and  C_16
REMARK                            x       y       z     vdW  Elec       q    Type
REMARK                         _______ _______ _______ _____ _____    ______ ____
ROOT
ATOM      1  O   UNL     1       1.856   6.786  20.104  0.00  0.00    +0.000 OA
ENDROOT
BRANCH   1   8
ATOM      2  N   UNL     1       5.644   3.532  16.190  0.00  0.00    +0.000 N 
ATOM      3  C   UNL     1       4.692   4.036  17.058  0.00  0.00    +0.000 A 
ATOM      4  N   UNL     1       4.567   5.358  17.135  0.00  0.00    +0.000 NA
ATOM      5  C   UNL     1       3.663   5.832  18.013  0.00  0.00    +0.000 A 
ATOM      6  N   UNL     1       3.467   7.211  17.944  0.00  0.00    +0.000 N 
ATOM      7  C   UNL     1       2.889   5.011  18.852  0.00  0.00    +0.000 A 
ATOM      8  C   UNL     1       1.955   5.429  19.860  0.00  0.00    +0.000 A 
ATOM      9  C   UNL     1       1.226   4.465  20.567  0.00  0.00    +0.000 A 
ATOM     10  C   UNL     1       1.432   3.114  20.323  0.00  0.00    +0.000 A 
ATOM     11  C   UNL     1       2.380   2.719  19.384  0.00  0.00    +0.000 A 
ATOM     12  C   UNL     1       3.115   3.644  18.656  0.00  0.00    +0.000 A 
ATOM     13  N   UNL     1       4.007   3.161  17.786  0.00  0.00    +0.000 NA
ATOM     14  H   UNL     1       6.356   4.227  16.029  0.00  0.00    +0.000 HD
ATOM     15  H   UNL     1       5.945   2.620  16.513  0.00  0.00    +0.000 HD
ATOM     16  H   UNL     1       4.197   7.626  17.373  0.00  0.00    +0.000 HD
ATOM     17  H   UNL     1       3.352   7.624  18.860  0.00  0.00    +0.000 HD
ENDBRANCH   1   8
BRANCH   1  18
ATOM     18  C   UNL     1       1.159   7.170  21.289  0.00  0.00    +0.000 C 
BRANCH  18  19
ATOM     19  C   UNL     1       0.525   8.558  21.167  0.00  0.00    +0.000 C 
ATOM     20  C   UNL     1       0.376   9.341  22.481  0.00  0.00    +0.000 C 
ATOM     21  C   UNL     1      -0.350  10.676  22.223  0.00  0.00    +0.000 C 
ATOM     22  N   UNL     1       0.289  11.452  21.150  0.00  0.00    +0.000 N 
ATOM     23  C   UNL     1       0.514  12.821  21.349  0.00  0.00    +0.000 C 
ATOM     24  O   UNL     1       0.250  13.389  22.409  0.00  0.00    +0.000 OA
ATOM     25  C   UNL     1       0.555  10.708  19.919  0.00  0.00    +0.000 C 
ATOM     26  C   UNL     1       1.316   9.425  20.191  0.00  0.00    +0.000 C 
BRANCH  23  27
ATOM     27  C   UNL     1       1.175  13.645  20.292  0.00  0.00    +0.000 A 
ATOM     28  C   UNL     1       2.546  13.575  20.017  0.00  0.00    +0.000 A 
ATOM     29  C   UNL     1       3.140  14.499  19.153  0.00  0.00    +0.000 A 
ATOM     30  C   UNL     1       2.347  15.419  18.473  0.00  0.00    +0.000 A 
ATOM     31 CL   UNL     1       3.084  16.568  17.426  0.00  0.00    +0.000 Cl
ATOM     32  C   UNL     1       0.963  15.412  18.636  0.00  0.00    +0.000 A 
ATOM     33  C   UNL     1       0.377  14.530  19.552  0.00  0.00    +0.000 A 
ENDBRANCH  23  27
ENDBRANCH  18  19
ENDBRANCH   1  18
TORSDOF 4
ENDMDL
