MODEL 1
REMARK VINA RESULT:      -7.4      0.000      0.000
REMARK  Name = 
REMARK  11 active torsions:
REMARK  status: ('A' for Active; 'I' for Inactive)
REMARK    1  A    between atoms: C_1  and  O_2
REMARK    2  A    between atoms: O_2  and  C_3
REMARK    3  A    between atoms: C_3  and  C_4
REMARK    4  A    between atoms: C_4  and  C_5
REMARK    5  A    between atoms: C_5  and  C_6
REMARK    6  A    between atoms: C_6  and  N_7
REMARK    7  A    between atoms: C_9  and  C_10
REMARK    8  A    between atoms: C_10  and  C_11
REMARK    9  A    between atoms: C_10  and  N_12
REMARK   10  A    between atoms: N_12  and  C_20
REMARK   11  A    between atoms: C_13  and  C_15
REMARK                            x       y       z     vdW  Elec       q    Type
REMARK                         _______ _______ _______ _____ _____    ______ ____
ROOT
ATOM      1  N   UNL     1       6.879   6.166  17.520  0.00  0.00    +0.000 N 
ATOM      2  C   UNL     1       5.893   5.682  18.378  0.00  0.00    +0.000 A 
ATOM      3  C   UNL     1       5.213   4.614  17.787  0.00  0.00    +0.000 A 
ATOM      4  C   UNL     1       5.749   4.553  16.437  0.00  0.00    +0.000 A 
ATOM      5  C   UNL     1       5.482   3.788  15.286  0.00  0.00    +0.000 A 
ATOM      6  C   UNL     1       6.259   3.990  14.155  0.00  0.00    +0.000 A 
ATOM      7  F   UNL     1       6.024   3.290  13.038  0.00  0.00    +0.000 F 
ATOM      8  C   UNL     1       7.273   4.931  14.189  0.00  0.00    +0.000 A 
ATOM      9  N   UNL     1       7.571   5.713  15.252  0.00  0.00    +0.000 NA
ATOM     10  C   UNL     1       6.782   5.495  16.322  0.00  0.00    +0.000 A 
ENDROOT
BRANCH   3  11
ATOM     11  C   UNL     1       4.088   3.749  18.432  0.00  0.00    +0.000 C 
ATOM     12  C   UNL     1       4.536   2.941  19.654  0.00  0.00    +0.000 C 
BRANCH  11  13
ATOM     13  N   UNL     1       2.830   4.514  18.719  0.00  0.00    +0.000 N 
ATOM     14  C   UNL     1       2.883   5.593  19.619  0.00  0.00    +0.000 C 
ATOM     15  O   UNL     1       3.841   5.804  20.373  0.00  0.00    +0.000 OA
BRANCH  14  16
ATOM     16  C   UNL     1       1.654   6.517  19.635  0.00  0.00    +0.000 C 
ATOM     17  C   UNL     1       1.411   7.210  20.973  0.00  0.00    +0.000 C 
ATOM     18  C   UNL     1       1.081   8.646  20.621  0.00  0.00    +0.000 C 
ATOM     19  N   UNL     1       1.756   8.926  19.353  0.00  0.00    +0.000 NA
ATOM     20  C   UNL     1       1.855   7.652  18.632  0.00  0.00    +0.000 C 
ATOM     21  H   UNL     1       2.707   9.242  19.555  0.00  0.00    +0.000 HD
ENDBRANCH  14  16
BRANCH  13  22
ATOM     22  C   UNL     1       1.528   3.852  18.530  0.00  0.00    +0.000 C 
ATOM     23  C   UNL     1       1.405   2.358  18.400  0.00  0.00    +0.000 C 
ATOM     24  C   UNL     1       0.728   3.072  19.532  0.00  0.00    +0.000 C 
ENDBRANCH  13  22
ENDBRANCH  11  13
ENDBRANCH   3  11
BRANCH   1  25
ATOM     25  C   UNL     1       7.987   7.013  17.958  0.00  0.00    +0.000 C 
BRANCH  25  26
ATOM     26  C   UNL     1       8.035   8.537  17.697  0.00  0.00    +0.000 C 
BRANCH  26  27
ATOM     27  C   UNL     1       8.719   9.442  18.730  0.00  0.00    +0.000 C 
BRANCH  27  28
ATOM     28  C   UNL     1       9.221  10.795  18.220  0.00  0.00    +0.000 C 
BRANCH  28  30
ATOM     29  C   UNL     1       9.550  11.157  20.523  0.00  0.00    +0.000 C 
ATOM     30  O   UNL     1       9.241  11.758  19.272  0.00  0.00    +0.000 OA
ENDBRANCH  28  30
ENDBRANCH  27  28
ENDBRANCH  26  27
ENDBRANCH  25  26
ENDBRANCH   1  25
TORSDOF 9
ENDMDL
MODEL 2
REMARK VINA RESULT:      -7.3      4.033      8.162
REMARK  Name = 
REMARK  11 active torsions:
REMARK  status: ('A' for Active; 'I' for Inactive)
REMARK    1  A    between atoms: C_1  and  O_2
REMARK    2  A    between atoms: O_2  and  C_3
REMARK    3  A    between atoms: C_3  and  C_4
REMARK    4  A    between atoms: C_4  and  C_5
REMARK    5  A    between atoms: C_5  and  C_6
REMARK    6  A    between atoms: C_6  and  N_7
REMARK    7  A    between atoms: C_9  and  C_10
REMARK    8  A    between atoms: C_10  and  C_11
REMARK    9  A    between atoms: C_10  and  N_12
REMARK   10  A    between atoms: N_12  and  C_20
REMARK   11  A    between atoms: C_13  and  C_15
REMARK                            x       y       z     vdW  Elec       q    Type
REMARK                         _______ _______ _______ _____ _____    ______ ____
ROOT
ATOM      1  N   UNL     1       1.023   9.194  18.535  0.00  0.00    +0.000 N 
ATOM      2  C   UNL     1       1.873   8.108  18.331  0.00  0.00    +0.000 A 
ATOM      3  C   UNL     1       2.151   7.472  19.543  0.00  0.00    +0.000 A 
ATOM      4  C   UNL     1       1.528   8.322  20.544  0.00  0.00    +0.000 A 
ATOM      5  C   UNL     1       1.467   8.337  21.951  0.00  0.00    +0.000 A 
ATOM      6  C   UNL     1       0.711   9.317  22.575  0.00  0.00    +0.000 A 
ATOM      7  F   UNL     1       0.641   9.369  23.912  0.00  0.00    +0.000 F 
ATOM      8  C   UNL     1       0.037  10.248  21.804  0.00  0.00    +0.000 A 
ATOM      9  N   UNL     1       0.068  10.305  20.453  0.00  0.00    +0.000 NA
ATOM     10  C   UNL     1       0.827   9.346  19.889  0.00  0.00    +0.000 A 
ENDROOT
BRANCH   3  11
ATOM     11  C   UNL     1       3.001   6.181  19.749  0.00  0.00    +0.000 C 
ATOM     12  C   UNL     1       2.411   5.192  20.759  0.00  0.00    +0.000 C 
BRANCH  11  13
ATOM     13  N   UNL     1       3.371   5.494  18.468  0.00  0.00    +0.000 N 
ATOM     14  C   UNL     1       4.502   5.941  17.762  0.00  0.00    +0.000 C 
ATOM     15  O   UNL     1       5.071   7.014  17.997  0.00  0.00    +0.000 OA
BRANCH  14  16
ATOM     16  C   UNL     1       5.004   5.017  16.640  0.00  0.00    +0.000 C 
ATOM     17  C   UNL     1       5.358   5.742  15.345  0.00  0.00    +0.000 C 
ATOM     18  C   UNL     1       6.670   5.131  14.896  0.00  0.00    +0.000 C 
ATOM     19  N   UNL     1       7.346   4.667  16.108  0.00  0.00    +0.000 NA
ATOM     20  C   UNL     1       6.298   4.336  17.081  0.00  0.00    +0.000 C 
ATOM     21  H   UNL     1       7.891   5.442  16.492  0.00  0.00    +0.000 HD
ENDBRANCH  14  16
BRANCH  13  22
ATOM     22  C   UNL     1       2.327   4.791  17.702  0.00  0.00    +0.000 C 
ATOM     23  C   UNL     1       2.351   3.301  17.504  0.00  0.00    +0.000 C 
ATOM     24  C   UNL     1       1.203   3.944  18.223  0.00  0.00    +0.000 C 
ENDBRANCH  13  22
ENDBRANCH  11  13
ENDBRANCH   3  11
BRANCH   1  25
ATOM     25  C   UNL     1       0.261   9.836  17.465  0.00  0.00    +0.000 C 
BRANCH  25  26
ATOM     26  C   UNL     1      -1.266   9.655  17.295  0.00  0.00    +0.000 C 
BRANCH  26  27
ATOM     27  C   UNL     1      -2.163  10.900  17.309  0.00  0.00    +0.000 C 
BRANCH  27  28
ATOM     28  C   UNL     1      -2.836  11.265  15.984  0.00  0.00    +0.000 C 
BRANCH  28  30
ATOM     29  C   UNL     1      -3.796  10.039  14.217  0.00  0.00    +0.000 C 
ATOM     30  O   UNL     1      -2.635  10.239  15.013  0.00  0.00    +0.000 OA
ENDBRANCH  28  30
ENDBRANCH  27  28
ENDBRANCH  26  27
ENDBRANCH  25  26
ENDBRANCH   1  25
TORSDOF 9
ENDMDL
MODEL 3
REMARK VINA RESULT:      -7.1      1.840      2.550
REMARK  Name = 
REMARK  11 active torsions:
REMARK  status: ('A' for Active; 'I' for Inactive)
REMARK    1  A    between atoms: C_1  and  O_2
REMARK    2  A    between atoms: O_2  and  C_3
REMARK    3  A    between atoms: C_3  and  C_4
REMARK    4  A    between atoms: C_4  and  C_5
REMARK    5  A    between atoms: C_5  and  C_6
REMARK    6  A    between atoms: C_6  and  N_7
REMARK    7  A    between atoms: C_9  and  C_10
REMARK    8  A    between atoms: C_10  and  C_11
REMARK    9  A    between atoms: C_10  and  N_12
REMARK   10  A    between atoms: N_12  and  C_20
REMARK   11  A    between atoms: C_13  and  C_15
REMARK                            x       y       z     vdW  Elec       q    Type
REMARK                         _______ _______ _______ _____ _____    ______ ____
ROOT
ATOM      1  N   UNL     1       6.463   6.969  17.342  0.00  0.00    +0.000 N 
ATOM      2  C   UNL     1       5.169   7.143  17.829  0.00  0.00    +0.000 A 
ATOM      3  C   UNL     1       4.291   6.249  17.211  0.00  0.00    +0.000 A 
ATOM      4  C   UNL     1       5.102   5.597  16.196  0.00  0.00    +0.000 A 
ATOM      5  C   UNL     1       4.865   4.657  15.174  0.00  0.00    +0.000 A 
ATOM      6  C   UNL     1       5.936   4.223  14.407  0.00  0.00    +0.000 A 
ATOM      7  F   UNL     1       5.744   3.340  13.418  0.00  0.00    +0.000 F 
ATOM      8  C   UNL     1       7.201   4.718  14.666  0.00  0.00    +0.000 A 
ATOM      9  N   UNL     1       7.496   5.635  15.615  0.00  0.00    +0.000 NA
ATOM     10  C   UNL     1       6.426   6.041  16.326  0.00  0.00    +0.000 A 
ENDROOT
BRANCH   3  11
ATOM     11  C   UNL     1       2.773   6.066  17.516  0.00  0.00    +0.000 C 
ATOM     12  C   UNL     1       2.382   4.649  17.947  0.00  0.00    +0.000 C 
BRANCH  11  13
ATOM     13  N   UNL     1       2.221   7.093  18.460  0.00  0.00    +0.000 N 
ATOM     14  C   UNL     1       2.019   8.404  17.992  0.00  0.00    +0.000 C 
ATOM     15  O   UNL     1       2.489   8.827  16.929  0.00  0.00    +0.000 OA
BRANCH  14  16
ATOM     16  C   UNL     1       1.177   9.319  18.896  0.00  0.00    +0.000 C 
ATOM     17  C   UNL     1       1.826  10.665  19.202  0.00  0.00    +0.000 C 
ATOM     18  C   UNL     1       0.717  11.685  19.047  0.00  0.00    +0.000 C 
ATOM     19  N   UNL     1      -0.228  11.123  18.080  0.00  0.00    +0.000 NA
ATOM     20  C   UNL     1      -0.136   9.662  18.194  0.00  0.00    +0.000 C 
ATOM     21  H   UNL     1       0.079  11.380  17.140  0.00  0.00    +0.000 HD
ENDBRANCH  14  16
BRANCH  13  22
ATOM     22  C   UNL     1       2.412   6.912  19.909  0.00  0.00    +0.000 C 
ATOM     23  C   UNL     1       1.250   6.785  20.856  0.00  0.00    +0.000 C 
ATOM     24  C   UNL     1       2.235   5.663  20.721  0.00  0.00    +0.000 C 
ENDBRANCH  13  22
ENDBRANCH  11  13
ENDBRANCH   3  11
BRANCH   1  25
ATOM     25  C   UNL     1       7.657   7.474  18.020  0.00  0.00    +0.000 C 
BRANCH  25  26
ATOM     26  C   UNL     1       8.202   8.905  17.809  0.00  0.00    +0.000 C 
BRANCH  26  27
ATOM     27  C   UNL     1       8.966   9.581  18.956  0.00  0.00    +0.000 C 
BRANCH  27  28
ATOM     28  C   UNL     1       9.561  10.959  18.654  0.00  0.00    +0.000 C 
BRANCH  28  30
ATOM     29  C   UNL     1       9.040  13.087  17.792  0.00  0.00    +0.000 C 
ATOM     30  O   UNL     1       8.701  11.707  17.796  0.00  0.00    +0.000 OA
ENDBRANCH  28  30
ENDBRANCH  27  28
ENDBRANCH  26  27
ENDBRANCH  25  26
ENDBRANCH   1  25
TORSDOF 9
ENDMDL
MODEL 4
REMARK VINA RESULT:      -7.0      5.575     10.302
REMARK  Name = 
REMARK  11 active torsions:
REMARK  status: ('A' for Active; 'I' for Inactive)
REMARK    1  A    between atoms: C_1  and  O_2
REMARK    2  A    between atoms: O_2  and  C_3
REMARK    3  A    between atoms: C_3  and  C_4
REMARK    4  A    between atoms: C_4  and  C_5
REMARK    5  A    between atoms: C_5  and  C_6
REMARK    6  A    between atoms: C_6  and  N_7
REMARK    7  A    between atoms: C_9  and  C_10
REMARK    8  A    between atoms: C_10  and  C_11
REMARK    9  A    between atoms: C_10  and  N_12
REMARK   10  A    between atoms: N_12  and  C_20
REMARK   11  A    between atoms: C_13  and  C_15
REMARK                            x       y       z     vdW  Elec       q    Type
REMARK                         _______ _______ _______ _____ _____    ______ ____
ROOT
ATOM      1  N   UNL     1      -2.693  12.203  19.814  0.00  0.00    +0.000 N 
ATOM      2  C   UNL     1      -1.343  12.109  20.147  0.00  0.00    +0.000 A 
ATOM      3  C   UNL     1      -0.644  11.416  19.156  0.00  0.00    +0.000 A 
ATOM      4  C   UNL     1      -1.677  10.957  18.244  0.00  0.00    +0.000 A 
ATOM      5  C   UNL     1      -1.710  10.155  17.086  0.00  0.00    +0.000 A 
ATOM      6  C   UNL     1      -2.921   9.969  16.438  0.00  0.00    +0.000 A 
ATOM      7  F   UNL     1      -2.991   9.202  15.342  0.00  0.00    +0.000 F 
ATOM      8  C   UNL     1      -4.059  10.576  16.940  0.00  0.00    +0.000 A 
ATOM      9  N   UNL     1      -4.104  11.339  18.055  0.00  0.00    +0.000 NA
ATOM     10  C   UNL     1      -2.909  11.480  18.662  0.00  0.00    +0.000 A 
ENDROOT
BRANCH   3  11
ATOM     11  C   UNL     1       0.892  11.151  19.107  0.00  0.00    +0.000 C 
ATOM     12  C   UNL     1       1.729  12.133  19.934  0.00  0.00    +0.000 C 
BRANCH  11  13
ATOM     13  N   UNL     1       1.268   9.730  19.408  0.00  0.00    +0.000 N 
ATOM     14  C   UNL     1       1.813   8.941  18.380  0.00  0.00    +0.000 C 
ATOM     15  O   UNL     1       1.780   9.262  17.186  0.00  0.00    +0.000 OA
BRANCH  14  16
ATOM     16  C   UNL     1       2.454   7.614  18.818  0.00  0.00    +0.000 C 
ATOM     17  C   UNL     1       1.654   6.374  18.429  0.00  0.00    +0.000 C 
ATOM     18  C   UNL     1       2.679   5.393  17.897  0.00  0.00    +0.000 C 
ATOM     19  N   UNL     1       3.780   6.194  17.361  0.00  0.00    +0.000 NA
ATOM     20  C   UNL     1       3.806   7.448  18.125  0.00  0.00    +0.000 C 
ATOM     21  H   UNL     1       3.567   6.429  16.389  0.00  0.00    +0.000 HD
ENDBRANCH  14  16
BRANCH  13  22
ATOM     22  C   UNL     1       0.598   9.030  20.518  0.00  0.00    +0.000 C 
ATOM     23  C   UNL     1       1.340   8.599  21.753  0.00  0.00    +0.000 C 
ATOM     24  C   UNL     1       0.207   9.575  21.860  0.00  0.00    +0.000 C 
ENDBRANCH  13  22
ENDBRANCH  11  13
ENDBRANCH   3  11
BRANCH   1  25
ATOM     25  C   UNL     1      -3.614  13.156  20.432  0.00  0.00    +0.000 C 
BRANCH  25  26
ATOM     26  C   UNL     1      -4.721  12.733  21.426  0.00  0.00    +0.000 C 
BRANCH  26  27
ATOM     27  C   UNL     1      -6.128  13.320  21.258  0.00  0.00    +0.000 C 
BRANCH  27  28
ATOM     28  C   UNL     1      -7.257  12.315  21.012  0.00  0.00    +0.000 C 
BRANCH  28  30
ATOM     29  C   UNL     1      -7.186  10.278  19.833  0.00  0.00    +0.000 C 
ATOM     30  O   UNL     1      -6.752  10.981  20.990  0.00  0.00    +0.000 OA
ENDBRANCH  28  30
ENDBRANCH  27  28
ENDBRANCH  26  27
ENDBRANCH  25  26
ENDBRANCH   1  25
TORSDOF 9
ENDMDL
MODEL 5
REMARK VINA RESULT:      -7.0      2.779      5.317
REMARK  Name = 
REMARK  11 active torsions:
REMARK  status: ('A' for Active; 'I' for Inactive)
REMARK    1  A    between atoms: C_1  and  O_2
REMARK    2  A    between atoms: O_2  and  C_3
REMARK    3  A    between atoms: C_3  and  C_4
REMARK    4  A    between atoms: C_4  and  C_5
REMARK    5  A    between atoms: C_5  and  C_6
REMARK    6  A    between atoms: C_6  and  N_7
REMARK    7  A    between atoms: C_9  and  C_10
REMARK    8  A    between atoms: C_10  and  C_11
REMARK    9  A    between atoms: C_10  and  N_12
REMARK   10  A    between atoms: N_12  and  C_20
REMARK   11  A    between atoms: C_13  and  C_15
REMARK                            x       y       z     vdW  Elec       q    Type
REMARK                         _______ _______ _______ _____ _____    ______ ____
ROOT
ATOM      1  N   UNL     1       5.400   4.265  15.260  0.00  0.00    +0.000 N 
ATOM      2  C   UNL     1       4.496   3.546  16.041  0.00  0.00    +0.000 A 
ATOM      3  C   UNL     1       4.608   3.919  17.383  0.00  0.00    +0.000 A 
ATOM      4  C   UNL     1       5.746   4.821  17.409  0.00  0.00    +0.000 A 
ATOM      5  C   UNL     1       6.460   5.506  18.412  0.00  0.00    +0.000 A 
ATOM      6  C   UNL     1       7.500   6.343  18.036  0.00  0.00    +0.000 A 
ATOM      7  F   UNL     1       8.209   6.999  18.963  0.00  0.00    +0.000 F 
ATOM      8  C   UNL     1       7.805   6.486  16.693  0.00  0.00    +0.000 A 
ATOM      9  N   UNL     1       7.176   5.844  15.683  0.00  0.00    +0.000 NA
ATOM     10  C   UNL     1       6.184   5.030  16.093  0.00  0.00    +0.000 A 
ENDROOT
BRANCH   3  11
ATOM     11  C   UNL     1       3.737   3.408  18.571  0.00  0.00    +0.000 C 
ATOM     12  C   UNL     1       4.535   3.030  19.822  0.00  0.00    +0.000 C 
BRANCH  11  13
ATOM     13  N   UNL     1       2.592   4.315  18.911  0.00  0.00    +0.000 N 
ATOM     14  C   UNL     1       2.868   5.576  19.470  0.00  0.00    +0.000 C 
ATOM     15  O   UNL     1       3.975   5.891  19.923  0.00  0.00    +0.000 OA
BRANCH  14  16
ATOM     16  C   UNL     1       1.695   6.567  19.509  0.00  0.00    +0.000 C 
ATOM     17  C   UNL     1       1.503   7.256  20.857  0.00  0.00    +0.000 C 
ATOM     18  C   UNL     1       1.251   8.713  20.525  0.00  0.00    +0.000 C 
ATOM     19  N   UNL     1       1.930   8.970  19.254  0.00  0.00    +0.000 NA
ATOM     20  C   UNL     1       1.951   7.701  18.517  0.00  0.00    +0.000 C 
ATOM     21  H   UNL     1       2.900   9.229  19.451  0.00  0.00    +0.000 HD
ENDBRANCH  14  16
BRANCH  13  22
ATOM     22  C   UNL     1       1.267   3.730  19.181  0.00  0.00    +0.000 C 
ATOM     23  C   UNL     1       0.900   2.344  18.725  0.00  0.00    +0.000 C 
ATOM     24  C   UNL     1       0.904   2.678  20.187  0.00  0.00    +0.000 C 
ENDBRANCH  13  22
ENDBRANCH  11  13
ENDBRANCH   3  11
BRANCH   1  25
ATOM     25  C   UNL     1       5.295   4.385  13.806  0.00  0.00    +0.000 C 
BRANCH  25  26
ATOM     26  C   UNL     1       6.198   3.596  12.830  0.00  0.00    +0.000 C 
BRANCH  26  27
ATOM     27  C   UNL     1       5.539   2.667  11.802  0.00  0.00    +0.000 C 
BRANCH  27  28
ATOM     28  C   UNL     1       4.093   2.996  11.419  0.00  0.00    +0.000 C 
BRANCH  28  30
ATOM     29  C   UNL     1       2.962   4.057   9.648  0.00  0.00    +0.000 C 
ATOM     30  O   UNL     1       4.042   4.140  10.569  0.00  0.00    +0.000 OA
ENDBRANCH  28  30
ENDBRANCH  27  28
ENDBRANCH  26  27
ENDBRANCH  25  26
ENDBRANCH   1  25
TORSDOF 9
ENDMDL
MODEL 6
REMARK VINA RESULT:      -6.9      1.458      1.924
REMARK  Name = 
REMARK  11 active torsions:
REMARK  status: ('A' for Active; 'I' for Inactive)
REMARK    1  A    between atoms: C_1  and  O_2
REMARK    2  A    between atoms: O_2  and  C_3
REMARK    3  A    between atoms: C_3  and  C_4
REMARK    4  A    between atoms: C_4  and  C_5
REMARK    5  A    between atoms: C_5  and  C_6
REMARK    6  A    between atoms: C_6  and  N_7
REMARK    7  A    between atoms: C_9  and  C_10
REMARK    8  A    between atoms: C_10  and  C_11
REMARK    9  A    between atoms: C_10  and  N_12
REMARK   10  A    between atoms: N_12  and  C_20
REMARK   11  A    between atoms: C_13  and  C_15
REMARK                            x       y       z     vdW  Elec       q    Type
REMARK                         _______ _______ _______ _____ _____    ______ ____
ROOT
ATOM      1  N   UNL     1       6.437   6.928  17.192  0.00  0.00    +0.000 N 
ATOM      2  C   UNL     1       5.182   6.994  17.794  0.00  0.00    +0.000 A 
ATOM      3  C   UNL     1       4.334   6.021  17.260  0.00  0.00    +0.000 A 
ATOM      4  C   UNL     1       5.104   5.430  16.178  0.00  0.00    +0.000 A 
ATOM      5  C   UNL     1       4.859   4.462  15.185  0.00  0.00    +0.000 A 
ATOM      6  C   UNL     1       5.890   4.113  14.325  0.00  0.00    +0.000 A 
ATOM      7  F   UNL     1       5.688   3.207  13.360  0.00  0.00    +0.000 F 
ATOM      8  C   UNL     1       7.126   4.720  14.468  0.00  0.00    +0.000 A 
ATOM      9  N   UNL     1       7.423   5.669  15.383  0.00  0.00    +0.000 NA
ATOM     10  C   UNL     1       6.390   5.989  16.187  0.00  0.00    +0.000 A 
ENDROOT
BRANCH   3  11
ATOM     11  C   UNL     1       2.871   5.711  17.702  0.00  0.00    +0.000 C 
ATOM     12  C   UNL     1       2.382   4.309  17.326  0.00  0.00    +0.000 C 
BRANCH  11  13
ATOM     13  N   UNL     1       2.602   6.012  19.146  0.00  0.00    +0.000 N 
ATOM     14  C   UNL     1       2.202   7.311  19.505  0.00  0.00    +0.000 C 
ATOM     15  O   UNL     1       2.290   8.284  18.747  0.00  0.00    +0.000 OA
BRANCH  14  16
ATOM     16  C   UNL     1       1.651   7.476  20.931  0.00  0.00    +0.000 C 
ATOM     17  C   UNL     1       1.875   8.861  21.531  0.00  0.00    +0.000 C 
ATOM     18  C   UNL     1       0.560   9.223  22.192  0.00  0.00    +0.000 C 
ATOM     19  N   UNL     1      -0.483   8.508  21.457  0.00  0.00    +0.000 NA
ATOM     20  C   UNL     1       0.135   7.291  20.916  0.00  0.00    +0.000 C 
ATOM     21  H   UNL     1      -0.775   9.084  20.664  0.00  0.00    +0.000 HD
ENDBRANCH  14  16
BRANCH  13  22
ATOM     22  C   UNL     1       3.251   5.191  20.183  0.00  0.00    +0.000 C 
ATOM     23  C   UNL     1       2.514   4.107  20.920  0.00  0.00    +0.000 C 
ATOM     24  C   UNL     1       3.713   3.767  20.087  0.00  0.00    +0.000 C 
ENDBRANCH  13  22
ENDBRANCH  11  13
ENDBRANCH   3  11
BRANCH   1  25
ATOM     25  C   UNL     1       7.639   7.541  17.758  0.00  0.00    +0.000 C 
BRANCH  25  26
ATOM     26  C   UNL     1       7.835   9.072  17.856  0.00  0.00    +0.000 C 
BRANCH  26  27
ATOM     27  C   UNL     1       8.897   9.620  18.819  0.00  0.00    +0.000 C 
BRANCH  27  28
ATOM     28  C   UNL     1       9.654  10.867  18.355  0.00  0.00    +0.000 C 
BRANCH  28  30
ATOM     29  C   UNL     1      10.152  13.112  18.858  0.00  0.00    +0.000 C 
ATOM     30  O   UNL     1       9.551  11.911  19.322  0.00  0.00    +0.000 OA
ENDBRANCH  28  30
ENDBRANCH  27  28
ENDBRANCH  26  27
ENDBRANCH  25  26
ENDBRANCH   1  25
TORSDOF 9
ENDMDL
MODEL 7
REMARK VINA RESULT:      -6.8      3.724      7.087
REMARK  Name = 
REMARK  11 active torsions:
REMARK  status: ('A' for Active; 'I' for Inactive)
REMARK    1  A    between atoms: C_1  and  O_2
REMARK    2  A    between atoms: O_2  and  C_3
REMARK    3  A    between atoms: C_3  and  C_4
REMARK    4  A    between atoms: C_4  and  C_5
REMARK    5  A    between atoms: C_5  and  C_6
REMARK    6  A    between atoms: C_6  and  N_7
REMARK    7  A    between atoms: C_9  and  C_10
REMARK    8  A    between atoms: C_10  and  C_11
REMARK    9  A    between atoms: C_10  and  N_12
REMARK   10  A    between atoms: N_12  and  C_20
REMARK   11  A    between atoms: C_13  and  C_15
REMARK                            x       y       z     vdW  Elec       q    Type
REMARK                         _______ _______ _______ _____ _____    ______ ____
ROOT
ATOM      1  N   UNL     1       2.462   6.345  19.894  0.00  0.00    +0.000 N 
ATOM      2  C   UNL     1       1.765   7.551  19.888  0.00  0.00    +0.000 A 
ATOM      3  C   UNL     1       2.033   8.263  18.716  0.00  0.00    +0.000 A 
ATOM      4  C   UNL     1       3.061   7.481  18.050  0.00  0.00    +0.000 A 
ATOM      5  C   UNL     1       3.839   7.630  16.886  0.00  0.00    +0.000 A 
ATOM      6  C   UNL     1       4.718   6.616  16.536  0.00  0.00    +0.000 A 
ATOM      7  F   UNL     1       5.482   6.731  15.443  0.00  0.00    +0.000 F 
ATOM      8  C   UNL     1       4.804   5.489  17.334  0.00  0.00    +0.000 A 
ATOM      9  N   UNL     1       4.105   5.289  18.474  0.00  0.00    +0.000 NA
ATOM     10  C   UNL     1       3.276   6.305  18.785  0.00  0.00    +0.000 A 
ENDROOT
BRANCH   3  11
ATOM     11  C   UNL     1       1.405   9.623  18.283  0.00  0.00    +0.000 C 
ATOM     12  C   UNL     1       0.134   9.491  17.440  0.00  0.00    +0.000 C 
BRANCH  11  13
ATOM     13  N   UNL     1       1.207  10.582  19.419  0.00  0.00    +0.000 N 
ATOM     14  C   UNL     1       0.105  10.403  20.273  0.00  0.00    +0.000 C 
ATOM     15  O   UNL     1      -0.845   9.655  20.011  0.00  0.00    +0.000 OA
BRANCH  14  16
ATOM     16  C   UNL     1       0.125  11.214  21.579  0.00  0.00    +0.000 C 
ATOM     17  C   UNL     1      -0.780  12.443  21.565  0.00  0.00    +0.000 C 
ATOM     18  C   UNL     1      -1.484  12.431  22.907  0.00  0.00    +0.000 C 
ATOM     19  N   UNL     1      -1.550  11.030  23.326  0.00  0.00    +0.000 NA
ATOM     20  C   UNL     1      -0.396  10.350  22.725  0.00  0.00    +0.000 C 
ATOM     21  H   UNL     1      -2.395  10.613  22.929  0.00  0.00    +0.000 HD
ENDBRANCH  14  16
BRANCH  13  22
ATOM     22  C   UNL     1       1.776  11.938  19.321  0.00  0.00    +0.000 C 
ATOM     23  C   UNL     1       2.535  12.399  18.107  0.00  0.00    +0.000 C 
ATOM     24  C   UNL     1       1.274  13.100  18.516  0.00  0.00    +0.000 C 
ENDBRANCH  13  22
ENDBRANCH  11  13
ENDBRANCH   3  11
BRANCH   1  25
ATOM     25  C   UNL     1       2.132   5.224  20.775  0.00  0.00    +0.000 C 
BRANCH  25  26
ATOM     26  C   UNL     1       0.858   4.366  20.603  0.00  0.00    +0.000 C 
BRANCH  26  27
ATOM     27  C   UNL     1       1.008   2.894  20.198  0.00  0.00    +0.000 C 
BRANCH  27  28
ATOM     28  C   UNL     1       1.701   2.626  18.860  0.00  0.00    +0.000 C 
BRANCH  28  30
ATOM     29  C   UNL     1       3.645   1.755  17.856  0.00  0.00    +0.000 C 
ATOM     30  O   UNL     1       2.866   1.822  19.043  0.00  0.00    +0.000 OA
ENDBRANCH  28  30
ENDBRANCH  27  28
ENDBRANCH  26  27
ENDBRANCH  25  26
ENDBRANCH   1  25
TORSDOF 9
ENDMDL
MODEL 8
REMARK VINA RESULT:      -6.8      3.778      6.538
REMARK  Name = 
REMARK  11 active torsions:
REMARK  status: ('A' for Active; 'I' for Inactive)
REMARK    1  A    between atoms: C_1  and  O_2
REMARK    2  A    between atoms: O_2  and  C_3
REMARK    3  A    between atoms: C_3  and  C_4
REMARK    4  A    between atoms: C_4  and  C_5
REMARK    5  A    between atoms: C_5  and  C_6
REMARK    6  A    between atoms: C_6  and  N_7
REMARK    7  A    between atoms: C_9  and  C_10
REMARK    8  A    between atoms: C_10  and  C_11
REMARK    9  A    between atoms: C_10  and  N_12
REMARK   10  A    between atoms: N_12  and  C_20
REMARK   11  A    between atoms: C_13  and  C_15
REMARK                            x       y       z     vdW  Elec       q    Type
REMARK                         _______ _______ _______ _____ _____    ______ ____
ROOT
ATOM      1  N   UNL     1       3.563   7.075  18.095  0.00  0.00    +0.000 N 
ATOM      2  C   UNL     1       2.730   8.175  18.287  0.00  0.00    +0.000 A 
ATOM      3  C   UNL     1       1.888   7.964  19.382  0.00  0.00    +0.000 A 
ATOM      4  C   UNL     1       2.154   6.592  19.778  0.00  0.00    +0.000 A 
ATOM      5  C   UNL     1       1.629   5.705  20.737  0.00  0.00    +0.000 A 
ATOM      6  C   UNL     1       2.189   4.442  20.855  0.00  0.00    +0.000 A 
ATOM      7  F   UNL     1       1.706   3.568  21.748  0.00  0.00    +0.000 F 
ATOM      8  C   UNL     1       3.246   4.089  20.034  0.00  0.00    +0.000 A 
ATOM      9  N   UNL     1       3.785   4.882  19.080  0.00  0.00    +0.000 NA
ATOM     10  C   UNL     1       3.201   6.092  18.989  0.00  0.00    +0.000 A 
ENDROOT
BRANCH   3  11
ATOM     11  C   UNL     1       0.856   8.971  19.976  0.00  0.00    +0.000 C 
ATOM     12  C   UNL     1       1.067   9.291  21.458  0.00  0.00    +0.000 C 
BRANCH  11  13
ATOM     13  N   UNL     1       0.703  10.224  19.166  0.00  0.00    +0.000 N 
ATOM     14  C   UNL     1       1.141  11.443  19.714  0.00  0.00    +0.000 C 
ATOM     15  O   UNL     1       1.421  11.589  20.910  0.00  0.00    +0.000 OA
BRANCH  14  16
ATOM     16  C   UNL     1       1.243  12.624  18.735  0.00  0.00    +0.000 C 
ATOM     17  C   UNL     1       0.966  13.985  19.366  0.00  0.00    +0.000 C 
ATOM     18  C   UNL     1       2.042  14.901  18.820  0.00  0.00    +0.000 C 
ATOM     19  N   UNL     1       3.194  14.052  18.519  0.00  0.00    +0.000 NA
ATOM     20  C   UNL     1       2.670  12.719  18.197  0.00  0.00    +0.000 C 
ATOM     21  H   UNL     1       3.762  13.964  19.365  0.00  0.00    +0.000 HD
ENDBRANCH  14  16
BRANCH  13  22
ATOM     22  C   UNL     1      -0.337  10.284  18.124  0.00  0.00    +0.000 C 
ATOM     23  C   UNL     1      -1.760   9.878  18.394  0.00  0.00    +0.000 C 
ATOM     24  C   UNL     1      -1.446  11.283  17.975  0.00  0.00    +0.000 C 
ENDBRANCH  13  22
ENDBRANCH  11  13
ENDBRANCH   3  11
BRANCH   1  25
ATOM     25  C   UNL     1       4.783   7.115  17.289  0.00  0.00    +0.000 C 
BRANCH  25  26
ATOM     26  C   UNL     1       4.911   6.405  15.921  0.00  0.00    +0.000 C 
BRANCH  26  27
ATOM     27  C   UNL     1       5.389   4.948  15.887  0.00  0.00    +0.000 C 
BRANCH  27  28
ATOM     28  C   UNL     1       6.902   4.729  15.975  0.00  0.00    +0.000 C 
BRANCH  28  30
ATOM     29  C   UNL     1       7.202   4.809  13.641  0.00  0.00    +0.000 C 
ATOM     30  O   UNL     1       7.571   5.373  14.892  0.00  0.00    +0.000 OA
ENDBRANCH  28  30
ENDBRANCH  27  28
ENDBRANCH  26  27
ENDBRANCH  25  26
ENDBRANCH   1  25
TORSDOF 9
ENDMDL
MODEL 9
REMARK VINA RESULT:      -6.8      3.635      6.317
REMARK  Name = 
REMARK  11 active torsions:
REMARK  status: ('A' for Active; 'I' for Inactive)
REMARK    1  A    between atoms: C_1  and  O_2
REMARK    2  A    between atoms: O_2  and  C_3
REMARK    3  A    between atoms: C_3  and  C_4
REMARK    4  A    between atoms: C_4  and  C_5
REMARK    5  A    between atoms: C_5  and  C_6
REMARK    6  A    between atoms: C_6  and  N_7
REMARK    7  A    between atoms: C_9  and  C_10
REMARK    8  A    between atoms: C_10  and  C_11
REMARK    9  A    between atoms: C_10  and  N_12
REMARK   10  A    between atoms: N_12  and  C_20
REMARK   11  A    between atoms: C_13  and  C_15
REMARK                            x       y       z     vdW  Elec       q    Type
REMARK                         _______ _______ _______ _____ _____    ______ ____
ROOT
ATOM      1  N   UNL     1       3.500   7.033  18.070  0.00  0.00    +0.000 N 
ATOM      2  C   UNL     1       2.673   8.136  18.272  0.00  0.00    +0.000 A 
ATOM      3  C   UNL     1       1.863   7.940  19.393  0.00  0.00    +0.000 A 
ATOM      4  C   UNL     1       2.140   6.573  19.799  0.00  0.00    +0.000 A 
ATOM      5  C   UNL     1       1.642   5.698  20.784  0.00  0.00    +0.000 A 
ATOM      6  C   UNL     1       2.204   4.436  20.902  0.00  0.00    +0.000 A 
ATOM      7  F   UNL     1       1.746   3.574  21.818  0.00  0.00    +0.000 F 
ATOM      8  C   UNL     1       3.237   4.073  20.056  0.00  0.00    +0.000 A 
ATOM      9  N   UNL     1       3.749   4.853  19.077  0.00  0.00    +0.000 NA
ATOM     10  C   UNL     1       3.163   6.062  18.986  0.00  0.00    +0.000 A 
ENDROOT
BRANCH   3  11
ATOM     11  C   UNL     1       0.848   8.955  20.003  0.00  0.00    +0.000 C 
ATOM     12  C   UNL     1       1.070   9.252  21.489  0.00  0.00    +0.000 C 
BRANCH  11  13
ATOM     13  N   UNL     1       0.713  10.221  19.210  0.00  0.00    +0.000 N 
ATOM     14  C   UNL     1       1.157  11.428  19.778  0.00  0.00    +0.000 C 
ATOM     15  O   UNL     1       1.430  11.555  20.978  0.00  0.00    +0.000 OA
BRANCH  14  16
ATOM     16  C   UNL     1       1.277  12.621  18.816  0.00  0.00    +0.000 C 
ATOM     17  C   UNL     1       1.206  13.984  19.499  0.00  0.00    +0.000 C 
ATOM     18  C   UNL     1       2.306  14.805  18.859  0.00  0.00    +0.000 C 
ATOM     19  N   UNL     1       3.330  13.855  18.422  0.00  0.00    +0.000 NA
ATOM     20  C   UNL     1       2.642  12.591  18.132  0.00  0.00    +0.000 C 
ATOM     21  H   UNL     1       3.970  13.687  19.201  0.00  0.00    +0.000 HD
ENDBRANCH  14  16
BRANCH  13  22
ATOM     22  C   UNL     1      -0.319  10.304  18.162  0.00  0.00    +0.000 C 
ATOM     23  C   UNL     1      -1.737   9.863  18.402  0.00  0.00    +0.000 C 
ATOM     24  C   UNL     1      -1.445  11.289  18.042  0.00  0.00    +0.000 C 
ENDBRANCH  13  22
ENDBRANCH  11  13
ENDBRANCH   3  11
BRANCH   1  25
ATOM     25  C   UNL     1       4.697   7.062  17.230  0.00  0.00    +0.000 C 
BRANCH  25  26
ATOM     26  C   UNL     1       4.929   6.074  16.063  0.00  0.00    +0.000 C 
BRANCH  26  27
ATOM     27  C   UNL     1       5.986   4.974  16.226  0.00  0.00    +0.000 C 
BRANCH  27  28
ATOM     28  C   UNL     1       7.202   5.326  17.087  0.00  0.00    +0.000 C 
BRANCH  28  30
ATOM     29  C   UNL     1       7.368   5.611  19.418  0.00  0.00    +0.000 C 
ATOM     30  O   UNL     1       7.121   4.692  18.363  0.00  0.00    +0.000 OA
ENDBRANCH  28  30
ENDBRANCH  27  28
ENDBRANCH  26  27
ENDBRANCH  25  26
ENDBRANCH   1  25
TORSDOF 9
ENDMDL
