MODEL 1
REMARK VINA RESULT:      -8.0      0.000      0.000
REMARK  Name = 
REMARK  7 active torsions:
REMARK  status: ('A' for Active; 'I' for Inactive)
REMARK    1  A    between atoms: C_1  and  O_2
REMARK    2  A    between atoms: O_2  and  C_3
REMARK    3  A    between atoms: C_3  and  C_4
REMARK    4  A    between atoms: C_4  and  N_5
REMARK    5  A    between atoms: C_13  and  N_14
REMARK    6  A    between atoms: N_14  and  C_15
REMARK    7  A    between atoms: C_18  and  C_19
REMARK                            x       y       z     vdW  Elec       q    Type
REMARK                         _______ _______ _______ _____ _____    ______ ____
ROOT
ATOM      1  N   UNL     1       4.942   3.490  17.861  0.00  0.00    +0.000 NA
ATOM      2  C   UNL     1       5.562   4.584  17.090  0.00  0.00    +0.000 C 
ATOM      3  C   UNL     1       4.589   5.797  16.904  0.00  0.00    +0.000 C 
ATOM      4  N   UNL     1       3.817   6.118  18.135  0.00  0.00    +0.000 N 
ATOM      5  C   UNL     1       3.848   5.317  19.250  0.00  0.00    +0.000 A 
ATOM      6  N   UNL     1       3.053   5.863  20.265  0.00  0.00    +0.000 NA
ATOM      7  C   UNL     1       2.508   7.032  19.767  0.00  0.00    +0.000 A 
ATOM      8  C   UNL     1       1.571   8.055  20.356  0.00  0.00    +0.000 A 
ATOM      9  C   UNL     1       1.092   9.261  19.607  0.00  0.00    +0.000 A 
ATOM     10  C   UNL     1       1.653   9.241  18.254  0.00  0.00    +0.000 A 
ATOM     11  C   UNL     1       2.548   8.245  17.716  0.00  0.00    +0.000 A 
ATOM     12  C   UNL     1       2.956   7.157  18.471  0.00  0.00    +0.000 A 
ATOM     13  C   UNL     1       4.638   3.987  19.241  0.00  0.00    +0.000 C 
ENDROOT
BRANCH   9  14
ATOM     14  N   UNL     1       0.127  10.401  20.163  0.00  0.00    +0.000 N 
ATOM     15  H   UNL     1       0.447  10.880  21.027  0.00  0.00    +0.000 HD
BRANCH  14  16
ATOM     16  C   UNL     1      -1.198  10.894  19.539  0.00  0.00    +0.000 A 
ATOM     17  N   UNL     1      -1.778  11.664  20.455  0.00  0.00    +0.000 NA
ATOM     18  N   UNL     1      -2.922  12.292  20.394  0.00  0.00    +0.000 NA
ATOM     19  C   UNL     1      -3.729  12.232  19.347  0.00  0.00    +0.000 A 
ATOM     20  C   UNL     1      -5.001  13.002  19.467  0.00  0.00    +0.000 C 
ATOM     21  C   UNL     1      -3.367  11.497  18.227  0.00  0.00    +0.000 A 
ATOM     22  C   UNL     1      -4.329  11.521  17.167  0.00  0.00    +0.000 A 
ATOM     23  C   UNL     1      -4.158  10.864  15.995  0.00  0.00    +0.000 A 
ATOM     24  C   UNL     1      -2.983  10.161  15.825  0.00  0.00    +0.000 A 
ATOM     25  C   UNL     1      -1.968  10.089  16.875  0.00  0.00    +0.000 A 
ATOM     26  C   UNL     1      -2.082  10.765  18.207  0.00  0.00    +0.000 A 
ENDBRANCH  14  16
ENDBRANCH   9  14
BRANCH   1  27
ATOM     27  C   UNL     1       3.792   2.904  17.122  0.00  0.00    +0.000 C 
BRANCH  27  28
ATOM     28  C   UNL     1       2.695   2.297  18.014  0.00  0.00    +0.000 C 
BRANCH  28  30
ATOM     29  C   UNL     1       0.473   2.352  18.620  0.00  0.00    +0.000 C 
ATOM     30  O   UNL     1       1.485   3.013  17.882  0.00  0.00    +0.000 OA
ENDBRANCH  28  30
ENDBRANCH  27  28
ENDBRANCH   1  27
TORSDOF 5
ENDMDL
MODEL 2
REMARK VINA RESULT:      -7.9      2.704      4.020
REMARK  Name = 
REMARK  7 active torsions:
REMARK  status: ('A' for Active; 'I' for Inactive)
REMARK    1  A    between atoms: C_1  and  O_2
REMARK    2  A    between atoms: O_2  and  C_3
REMARK    3  A    between atoms: C_3  and  C_4
REMARK    4  A    between atoms: C_4  and  N_5
REMARK    5  A    between atoms: C_13  and  N_14
REMARK    6  A    between atoms: N_14  and  C_15
REMARK    7  A    between atoms: C_18  and  C_19
REMARK                            x       y       z     vdW  Elec       q    Type
REMARK                         _______ _______ _______ _____ _____    ______ ____
ROOT
ATOM      1  N   UNL     1       6.216   4.734  15.705  0.00  0.00    +0.000 NA
ATOM      2  C   UNL     1       5.333   3.574  15.927  0.00  0.00    +0.000 C 
ATOM      3  C   UNL     1       4.589   3.657  17.302  0.00  0.00    +0.000 C 
ATOM      4  N   UNL     1       4.091   5.024  17.614  0.00  0.00    +0.000 N 
ATOM      5  C   UNL     1       4.408   6.113  16.842  0.00  0.00    +0.000 A 
ATOM      6  N   UNL     1       3.790   7.265  17.346  0.00  0.00    +0.000 NA
ATOM      7  C   UNL     1       3.074   6.882  18.465  0.00  0.00    +0.000 A 
ATOM      8  C   UNL     1       2.219   7.647  19.441  0.00  0.00    +0.000 A 
ATOM      9  C   UNL     1       1.538   7.012  20.615  0.00  0.00    +0.000 A 
ATOM     10  C   UNL     1       1.870   5.585  20.648  0.00  0.00    +0.000 A 
ATOM     11  C   UNL     1       2.694   4.878  19.698  0.00  0.00    +0.000 A 
ATOM     12  C   UNL     1       3.288   5.532  18.629  0.00  0.00    +0.000 A 
ATOM     13  C   UNL     1       5.377   5.972  15.644  0.00  0.00    +0.000 C 
ENDROOT
BRANCH   9  14
ATOM     14  N   UNL     1       0.598   7.740  21.675  0.00  0.00    +0.000 N 
ATOM     15  H   UNL     1       0.376   7.194  22.531  0.00  0.00    +0.000 HD
BRANCH  14  16
ATOM     16  C   UNL     1       0.018   9.170  21.588  0.00  0.00    +0.000 A 
ATOM     17  N   UNL     1      -0.084   9.608  22.839  0.00  0.00    +0.000 NA
ATOM     18  N   UNL     1      -0.537  10.754  23.272  0.00  0.00    +0.000 NA
ATOM     19  C   UNL     1      -1.005  11.700  22.474  0.00  0.00    +0.000 A 
ATOM     20  C   UNL     1      -1.494  12.935  23.152  0.00  0.00    +0.000 C 
ATOM     21  C   UNL     1      -1.010  11.513  21.098  0.00  0.00    +0.000 A 
ATOM     22  C   UNL     1      -1.540  12.614  20.354  0.00  0.00    +0.000 A 
ATOM     23  C   UNL     1      -1.631  12.622  19.002  0.00  0.00    +0.000 A 
ATOM     24  C   UNL     1      -1.164  11.513  18.327  0.00  0.00    +0.000 A 
ATOM     25  C   UNL     1      -0.623  10.352  19.032  0.00  0.00    +0.000 A 
ATOM     26  C   UNL     1      -0.504  10.249  20.522  0.00  0.00    +0.000 A 
ENDBRANCH  14  16
ENDBRANCH   9  14
BRANCH   1  27
ATOM     27  C   UNL     1       7.323   4.757  16.699  0.00  0.00    +0.000 C 
BRANCH  27  28
ATOM     28  C   UNL     1       7.376   6.022  17.574  0.00  0.00    +0.000 C 
BRANCH  28  30
ATOM     29  C   UNL     1       7.864   8.271  17.663  0.00  0.00    +0.000 C 
ATOM     30  O   UNL     1       7.913   7.111  16.853  0.00  0.00    +0.000 OA
ENDBRANCH  28  30
ENDBRANCH  27  28
ENDBRANCH   1  27
TORSDOF 5
ENDMDL
MODEL 3
REMARK VINA RESULT:      -7.8      1.696      2.768
REMARK  Name = 
REMARK  7 active torsions:
REMARK  status: ('A' for Active; 'I' for Inactive)
REMARK    1  A    between atoms: C_1  and  O_2
REMARK    2  A    between atoms: O_2  and  C_3
REMARK    3  A    between atoms: C_3  and  C_4
REMARK    4  A    between atoms: C_4  and  N_5
REMARK    5  A    between atoms: C_13  and  N_14
REMARK    6  A    between atoms: N_14  and  C_15
REMARK    7  A    between atoms: C_18  and  C_19
REMARK                            x       y       z     vdW  Elec       q    Type
REMARK                         _______ _______ _______ _____ _____    ______ ____
ROOT
ATOM      1  N   UNL     1       4.968   4.256  17.815  0.00  0.00    +0.000 NA
ATOM      2  C   UNL     1       4.046   3.617  18.772  0.00  0.00    +0.000 C 
ATOM      3  C   UNL     1       3.424   4.651  19.770  0.00  0.00    +0.000 C 
ATOM      4  N   UNL     1       3.026   5.926  19.114  0.00  0.00    +0.000 N 
ATOM      5  C   UNL     1       3.335   6.205  17.806  0.00  0.00    +0.000 A 
ATOM      6  N   UNL     1       2.823   7.456  17.440  0.00  0.00    +0.000 NA
ATOM      7  C   UNL     1       2.182   7.972  18.551  0.00  0.00    +0.000 A 
ATOM      8  C   UNL     1       1.453   9.266  18.801  0.00  0.00    +0.000 A 
ATOM      9  C   UNL     1       0.839   9.624  20.120  0.00  0.00    +0.000 A 
ATOM     10  C   UNL     1       1.096   8.547  21.079  0.00  0.00    +0.000 A 
ATOM     11  C   UNL     1       1.801   7.316  20.810  0.00  0.00    +0.000 A 
ATOM     12  C   UNL     1       2.337   7.049  19.561  0.00  0.00    +0.000 A 
ATOM     13  C   UNL     1       4.193   5.222  16.974  0.00  0.00    +0.000 C 
ENDROOT
BRANCH   9  14
ATOM     14  N   UNL     1       0.029  10.954  20.460  0.00  0.00    +0.000 N 
ATOM     15  H   UNL     1       0.503  11.619  21.102  0.00  0.00    +0.000 HD
BRANCH  14  16
ATOM     16  C   UNL     1      -1.353  11.376  19.912  0.00  0.00    +0.000 A 
ATOM     17  N   UNL     1      -1.910  12.136  20.850  0.00  0.00    +0.000 NA
ATOM     18  N   UNL     1      -3.083  12.711  20.850  0.00  0.00    +0.000 NA
ATOM     19  C   UNL     1      -3.949  12.597  19.856  0.00  0.00    +0.000 A 
ATOM     20  C   UNL     1      -5.245  13.312  20.042  0.00  0.00    +0.000 C 
ATOM     21  C   UNL     1      -3.623  11.859  18.726  0.00  0.00    +0.000 A 
ATOM     22  C   UNL     1      -4.647  11.821  17.728  0.00  0.00    +0.000 A 
ATOM     23  C   UNL     1      -4.518  11.152  16.557  0.00  0.00    +0.000 A 
ATOM     24  C   UNL     1      -3.325  10.499  16.326  0.00  0.00    +0.000 A 
ATOM     25  C   UNL     1      -2.246  10.491  17.312  0.00  0.00    +0.000 A 
ATOM     26  C   UNL     1      -2.309  11.185  18.638  0.00  0.00    +0.000 A 
ENDBRANCH  14  16
ENDBRANCH   9  14
BRANCH   1  27
ATOM     27  C   UNL     1       6.152   4.821  18.516  0.00  0.00    +0.000 C 
BRANCH  27  28
ATOM     28  C   UNL     1       7.474   4.711  17.735  0.00  0.00    +0.000 C 
BRANCH  28  30
ATOM     29  C   UNL     1       7.402   4.892  15.440  0.00  0.00    +0.000 C 
ATOM     30  O   UNL     1       7.497   5.616  16.652  0.00  0.00    +0.000 OA
ENDBRANCH  28  30
ENDBRANCH  27  28
ENDBRANCH   1  27
TORSDOF 5
ENDMDL
MODEL 4
REMARK VINA RESULT:      -7.8      3.835      9.497
REMARK  Name = 
REMARK  7 active torsions:
REMARK  status: ('A' for Active; 'I' for Inactive)
REMARK    1  A    between atoms: C_1  and  O_2
REMARK    2  A    between atoms: O_2  and  C_3
REMARK    3  A    between atoms: C_3  and  C_4
REMARK    4  A    between atoms: C_4  and  N_5
REMARK    5  A    between atoms: C_13  and  N_14
REMARK    6  A    between atoms: N_14  and  C_15
REMARK    7  A    between atoms: C_18  and  C_19
REMARK                            x       y       z     vdW  Elec       q    Type
REMARK                         _______ _______ _______ _____ _____    ______ ____
ROOT
ATOM      1  N   UNL     1       0.426  15.210  20.325  0.00  0.00    +0.000 NA
ATOM      2  C   UNL     1      -0.090  14.748  19.023  0.00  0.00    +0.000 C 
ATOM      3  C   UNL     1       0.511  13.362  18.610  0.00  0.00    +0.000 C 
ATOM      4  N   UNL     1       0.595  12.403  19.744  0.00  0.00    +0.000 N 
ATOM      5  C   UNL     1       0.325  12.772  21.038  0.00  0.00    +0.000 A 
ATOM      6  N   UNL     1       0.458  11.673  21.897  0.00  0.00    +0.000 NA
ATOM      7  C   UNL     1       0.826  10.593  21.116  0.00  0.00    +0.000 A 
ATOM      8  C   UNL     1       1.129   9.154  21.443  0.00  0.00    +0.000 A 
ATOM      9  C   UNL     1       1.532   8.143  20.413  0.00  0.00    +0.000 A 
ATOM     10  C   UNL     1       1.602   8.793  19.102  0.00  0.00    +0.000 A 
ATOM     11  C   UNL     1       1.307  10.178  18.820  0.00  0.00    +0.000 A 
ATOM     12  C   UNL     1       0.931  11.056  19.824  0.00  0.00    +0.000 A 
ATOM     13  C   UNL     1      -0.006  14.243  21.384  0.00  0.00    +0.000 C 
ENDROOT
BRANCH   9  14
ATOM     14  N   UNL     1       1.842   6.600  20.667  0.00  0.00    +0.000 N 
ATOM     15  H   UNL     1       1.552   6.229  21.593  0.00  0.00    +0.000 HD
BRANCH  14  16
ATOM     16  C   UNL     1       2.485   5.598  19.682  0.00  0.00    +0.000 A 
ATOM     17  N   UNL     1       2.110   4.388  20.083  0.00  0.00    +0.000 NA
ATOM     18  N   UNL     1       2.415   3.224  19.574  0.00  0.00    +0.000 NA
ATOM     19  C   UNL     1       3.210   3.074  18.527  0.00  0.00    +0.000 A 
ATOM     20  C   UNL     1       3.457   1.666  18.100  0.00  0.00    +0.000 C 
ATOM     21  C   UNL     1       3.746   4.186  17.892  0.00  0.00    +0.000 A 
ATOM     22  C   UNL     1       4.584   3.881  16.773  0.00  0.00    +0.000 A 
ATOM     23  C   UNL     1       5.200   4.829  16.026  0.00  0.00    +0.000 A 
ATOM     24  C   UNL     1       4.978   6.148  16.365  0.00  0.00    +0.000 A 
ATOM     25  C   UNL     1       4.142   6.522  17.504  0.00  0.00    +0.000 A 
ATOM     26  C   UNL     1       3.441   5.543  18.395  0.00  0.00    +0.000 A 
ENDBRANCH  14  16
ENDBRANCH   9  14
BRANCH   1  27
ATOM     27  C   UNL     1       1.889  15.472  20.253  0.00  0.00    +0.000 C 
BRANCH  27  28
ATOM     28  C   UNL     1       2.329  16.337  19.058  0.00  0.00    +0.000 C 
BRANCH  28  30
ATOM     29  C   UNL     1       4.566  16.692  18.641  0.00  0.00    +0.000 C 
ATOM     30  O   UNL     1       3.484  15.801  18.447  0.00  0.00    +0.000 OA
ENDBRANCH  28  30
ENDBRANCH  27  28
ENDBRANCH   1  27
TORSDOF 5
ENDMDL
MODEL 5
REMARK VINA RESULT:      -7.8      2.823      3.529
REMARK  Name = 
REMARK  7 active torsions:
REMARK  status: ('A' for Active; 'I' for Inactive)
REMARK    1  A    between atoms: C_1  and  O_2
REMARK    2  A    between atoms: O_2  and  C_3
REMARK    3  A    between atoms: C_3  and  C_4
REMARK    4  A    between atoms: C_4  and  N_5
REMARK    5  A    between atoms: C_13  and  N_14
REMARK    6  A    between atoms: N_14  and  C_15
REMARK    7  A    between atoms: C_18  and  C_19
REMARK                            x       y       z     vdW  Elec       q    Type
REMARK                         _______ _______ _______ _____ _____    ______ ____
ROOT
ATOM      1  N   UNL     1       4.540   3.688  18.146  0.00  0.00    +0.000 NA
ATOM      2  C   UNL     1       5.296   4.719  17.411  0.00  0.00    +0.000 C 
ATOM      3  C   UNL     1       4.422   5.982  17.105  0.00  0.00    +0.000 C 
ATOM      4  N   UNL     1       3.561   6.386  18.249  0.00  0.00    +0.000 N 
ATOM      5  C   UNL     1       3.438   5.618  19.380  0.00  0.00    +0.000 A 
ATOM      6  N   UNL     1       2.587   6.241  20.302  0.00  0.00    +0.000 NA
ATOM      7  C   UNL     1       2.165   7.425  19.726  0.00  0.00    +0.000 A 
ATOM      8  C   UNL     1       1.244   8.519  20.199  0.00  0.00    +0.000 A 
ATOM      9  C   UNL     1       0.913   9.729  19.380  0.00  0.00    +0.000 A 
ATOM     10  C   UNL     1       1.595   9.636  18.087  0.00  0.00    +0.000 A 
ATOM     11  C   UNL     1       2.472   8.572  17.660  0.00  0.00    +0.000 A 
ATOM     12  C   UNL     1       2.739   7.484  18.477  0.00  0.00    +0.000 A 
ATOM     13  C   UNL     1       4.140   4.243  19.478  0.00  0.00    +0.000 C 
ENDROOT
BRANCH   9  14
ATOM     14  N   UNL     1      -0.026  10.942  19.814  0.00  0.00    +0.000 N 
ATOM     15  H   UNL     1      -0.879  10.683  20.347  0.00  0.00    +0.000 HD
BRANCH  14  16
ATOM     16  C   UNL     1       0.212  12.448  19.564  0.00  0.00    +0.000 A 
ATOM     17  N   UNL     1      -0.909  13.067  19.919  0.00  0.00    +0.000 NA
ATOM     18  N   UNL     1      -1.193  14.342  19.873  0.00  0.00    +0.000 NA
ATOM     19  C   UNL     1      -0.353  15.257  19.419  0.00  0.00    +0.000 A 
ATOM     20  C   UNL     1      -0.859  16.661  19.428  0.00  0.00    +0.000 C 
ATOM     21  C   UNL     1       0.913  14.890  18.984  0.00  0.00    +0.000 A 
ATOM     22  C   UNL     1       1.720  15.978  18.522  0.00  0.00    +0.000 A 
ATOM     23  C   UNL     1       2.982  15.821  18.057  0.00  0.00    +0.000 A 
ATOM     24  C   UNL     1       3.506  14.545  18.057  0.00  0.00    +0.000 A 
ATOM     25  C   UNL     1       2.728  13.391  18.504  0.00  0.00    +0.000 A 
ATOM     26  C   UNL     1       1.321  13.468  19.014  0.00  0.00    +0.000 A 
ENDBRANCH  14  16
ENDBRANCH   9  14
BRANCH   1  27
ATOM     27  C   UNL     1       3.429   3.151  17.315  0.00  0.00    +0.000 C 
BRANCH  27  28
ATOM     28  C   UNL     1       2.464   2.212  18.060  0.00  0.00    +0.000 C 
BRANCH  28  30
ATOM     29  C   UNL     1       0.809   2.917  19.499  0.00  0.00    +0.000 C 
ATOM     30  O   UNL     1       1.172   2.776  18.138  0.00  0.00    +0.000 OA
ENDBRANCH  28  30
ENDBRANCH  27  28
ENDBRANCH   1  27
TORSDOF 5
ENDMDL
MODEL 6
REMARK VINA RESULT:      -7.7      1.728      2.815
REMARK  Name = 
REMARK  7 active torsions:
REMARK  status: ('A' for Active; 'I' for Inactive)
REMARK    1  A    between atoms: C_1  and  O_2
REMARK    2  A    between atoms: O_2  and  C_3
REMARK    3  A    between atoms: C_3  and  C_4
REMARK    4  A    between atoms: C_4  and  N_5
REMARK    5  A    between atoms: C_13  and  N_14
REMARK    6  A    between atoms: N_14  and  C_15
REMARK    7  A    between atoms: C_18  and  C_19
REMARK                            x       y       z     vdW  Elec       q    Type
REMARK                         _______ _______ _______ _____ _____    ______ ____
ROOT
ATOM      1  N   UNL     1       5.234   3.985  17.388  0.00  0.00    +0.000 NA
ATOM      2  C   UNL     1       4.232   3.288  18.216  0.00  0.00    +0.000 C 
ATOM      3  C   UNL     1       3.586   4.238  19.279  0.00  0.00    +0.000 C 
ATOM      4  N   UNL     1       3.274   5.589  18.739  0.00  0.00    +0.000 N 
ATOM      5  C   UNL     1       3.674   5.989  17.489  0.00  0.00    +0.000 A 
ATOM      6  N   UNL     1       3.230   7.291  17.228  0.00  0.00    +0.000 NA
ATOM      7  C   UNL     1       2.539   7.715  18.348  0.00  0.00    +0.000 A 
ATOM      8  C   UNL     1       1.841   9.005  18.690  0.00  0.00    +0.000 A 
ATOM      9  C   UNL     1       1.158   9.250  20.002  0.00  0.00    +0.000 A 
ATOM     10  C   UNL     1       1.317   8.069  20.854  0.00  0.00    +0.000 A 
ATOM     11  C   UNL     1       1.994   6.845  20.499  0.00  0.00    +0.000 A 
ATOM     12  C   UNL     1       2.598   6.687  19.262  0.00  0.00    +0.000 A 
ATOM     13  C   UNL     1       4.548   5.063  16.609  0.00  0.00    +0.000 C 
ENDROOT
BRANCH   9  14
ATOM     14  N   UNL     1       0.375  10.569  20.432  0.00  0.00    +0.000 N 
ATOM     15  H   UNL     1       0.857  11.173  21.127  0.00  0.00    +0.000 HD
BRANCH  14  16
ATOM     16  C   UNL     1      -0.991  11.064  19.905  0.00  0.00    +0.000 A 
ATOM     17  N   UNL     1      -1.489  11.858  20.847  0.00  0.00    +0.000 NA
ATOM     18  N   UNL     1      -2.628  12.497  20.863  0.00  0.00    +0.000 NA
ATOM     19  C   UNL     1      -3.516  12.425  19.884  0.00  0.00    +0.000 A 
ATOM     20  C   UNL     1      -4.768  13.211  20.087  0.00  0.00    +0.000 C 
ATOM     21  C   UNL     1      -3.250  11.663  18.755  0.00  0.00    +0.000 A 
ATOM     22  C   UNL     1      -4.293  11.676  17.774  0.00  0.00    +0.000 A 
ATOM     23  C   UNL     1      -4.221  10.993  16.606  0.00  0.00    +0.000 A 
ATOM     24  C   UNL     1      -3.070  10.274  16.359  0.00  0.00    +0.000 A 
ATOM     25  C   UNL     1      -1.976  10.213  17.327  0.00  0.00    +0.000 A 
ATOM     26  C   UNL     1      -1.978  10.917  18.649  0.00  0.00    +0.000 A 
ENDBRANCH  14  16
ENDBRANCH   9  14
BRANCH   1  27
ATOM     27  C   UNL     1       6.392   4.424  18.212  0.00  0.00    +0.000 C 
BRANCH  27  28
ATOM     28  C   UNL     1       7.354   5.394  17.504  0.00  0.00    +0.000 C 
BRANCH  28  30
ATOM     29  C   UNL     1       7.920   5.803  19.700  0.00  0.00    +0.000 C 
ATOM     30  O   UNL     1       7.841   6.368  18.404  0.00  0.00    +0.000 OA
ENDBRANCH  28  30
ENDBRANCH  27  28
ENDBRANCH   1  27
TORSDOF 5
ENDMDL
MODEL 7
REMARK VINA RESULT:      -7.7      1.067      2.233
REMARK  Name = 
REMARK  7 active torsions:
REMARK  status: ('A' for Active; 'I' for Inactive)
REMARK    1  A    between atoms: C_1  and  O_2
REMARK    2  A    between atoms: O_2  and  C_3
REMARK    3  A    between atoms: C_3  and  C_4
REMARK    4  A    between atoms: C_4  and  N_5
REMARK    5  A    between atoms: C_13  and  N_14
REMARK    6  A    between atoms: N_14  and  C_15
REMARK    7  A    between atoms: C_18  and  C_19
REMARK                            x       y       z     vdW  Elec       q    Type
REMARK                         _______ _______ _______ _____ _____    ______ ____
ROOT
ATOM      1  N   UNL     1       4.602   3.834  17.860  0.00  0.00    +0.000 NA
ATOM      2  C   UNL     1       5.357   4.912  17.195  0.00  0.00    +0.000 C 
ATOM      3  C   UNL     1       4.483   6.192  16.972  0.00  0.00    +0.000 C 
ATOM      4  N   UNL     1       3.621   6.518  18.140  0.00  0.00    +0.000 N 
ATOM      5  C   UNL     1       3.498   5.678  19.218  0.00  0.00    +0.000 A 
ATOM      6  N   UNL     1       2.647   6.238  20.179  0.00  0.00    +0.000 NA
ATOM      7  C   UNL     1       2.224   7.458  19.682  0.00  0.00    +0.000 A 
ATOM      8  C   UNL     1       1.302   8.518  20.226  0.00  0.00    +0.000 A 
ATOM      9  C   UNL     1       0.970   9.779  19.487  0.00  0.00    +0.000 A 
ATOM     10  C   UNL     1       1.653   9.771  18.191  0.00  0.00    +0.000 A 
ATOM     11  C   UNL     1       2.531   8.738  17.696  0.00  0.00    +0.000 A 
ATOM     12  C   UNL     1       2.799   7.599  18.439  0.00  0.00    +0.000 A 
ATOM     13  C   UNL     1       4.202   4.300  19.225  0.00  0.00    +0.000 C 
ENDROOT
BRANCH   9  14
ATOM     14  N   UNL     1       0.030  10.959  20.000  0.00  0.00    +0.000 N 
ATOM     15  H   UNL     1       0.449  11.594  20.707  0.00  0.00    +0.000 HD
BRANCH  14  16
ATOM     16  C   UNL     1      -1.408  11.282  19.535  0.00  0.00    +0.000 A 
ATOM     17  N   UNL     1      -1.546  10.725  18.336  0.00  0.00    +0.000 NA
ATOM     18  N   UNL     1      -2.581  10.740  17.539  0.00  0.00    +0.000 NA
ATOM     19  C   UNL     1      -3.709  11.370  17.824  0.00  0.00    +0.000 A 
ATOM     20  C   UNL     1      -4.775  11.291  16.783  0.00  0.00    +0.000 C 
ATOM     21  C   UNL     1      -3.850  12.039  19.032  0.00  0.00    +0.000 A 
ATOM     22  C   UNL     1      -5.120  12.674  19.213  0.00  0.00    +0.000 A 
ATOM     23  C   UNL     1      -5.447  13.375  20.324  0.00  0.00    +0.000 A 
ATOM     24  C   UNL     1      -4.504  13.454  21.328  0.00  0.00    +0.000 A 
ATOM     25  C   UNL     1      -3.185  12.837  21.197  0.00  0.00    +0.000 A 
ATOM     26  C   UNL     1      -2.731  12.061  19.999  0.00  0.00    +0.000 A 
ENDBRANCH  14  16
ENDBRANCH   9  14
BRANCH   1  27
ATOM     27  C   UNL     1       3.492   3.352  16.995  0.00  0.00    +0.000 C 
BRANCH  27  28
ATOM     28  C   UNL     1       2.489   2.418  17.696  0.00  0.00    +0.000 C 
BRANCH  28  30
ATOM     29  C   UNL     1       0.717   2.683  19.143  0.00  0.00    +0.000 C 
ATOM     30  O   UNL     1       1.248   3.064  17.888  0.00  0.00    +0.000 OA
ENDBRANCH  28  30
ENDBRANCH  27  28
ENDBRANCH   1  27
TORSDOF 5
ENDMDL
MODEL 8
REMARK VINA RESULT:      -7.6      2.964      9.414
REMARK  Name = 
REMARK  7 active torsions:
REMARK  status: ('A' for Active; 'I' for Inactive)
REMARK    1  A    between atoms: C_1  and  O_2
REMARK    2  A    between atoms: O_2  and  C_3
REMARK    3  A    between atoms: C_3  and  C_4
REMARK    4  A    between atoms: C_4  and  N_5
REMARK    5  A    between atoms: C_13  and  N_14
REMARK    6  A    between atoms: N_14  and  C_15
REMARK    7  A    between atoms: C_18  and  C_19
REMARK                            x       y       z     vdW  Elec       q    Type
REMARK                         _______ _______ _______ _____ _____    ______ ____
ROOT
ATOM      1  N   UNL     1      -5.988  12.627  19.316  0.00  0.00    +0.000 NA
ATOM      2  C   UNL     1      -5.142  13.726  19.816  0.00  0.00    +0.000 C 
ATOM      3  C   UNL     1      -3.724  13.224  20.253  0.00  0.00    +0.000 C 
ATOM      4  N   UNL     1      -3.145  12.227  19.313  0.00  0.00    +0.000 N 
ATOM      5  C   UNL     1      -3.866  11.695  18.273  0.00  0.00    +0.000 A 
ATOM      6  N   UNL     1      -3.075  10.803  17.537  0.00  0.00    +0.000 NA
ATOM      7  C   UNL     1      -1.830  10.776  18.139  0.00  0.00    +0.000 A 
ATOM      8  C   UNL     1      -0.565  10.017  17.834  0.00  0.00    +0.000 A 
ATOM      9  C   UNL     1       0.685  10.137  18.652  0.00  0.00    +0.000 A 
ATOM     10  C   UNL     1       0.446  11.062  19.763  0.00  0.00    +0.000 A 
ATOM     11  C   UNL     1      -0.780  11.775  20.030  0.00  0.00    +0.000 A 
ATOM     12  C   UNL     1      -1.897  11.619  19.225  0.00  0.00    +0.000 A 
ATOM     13  C   UNL     1      -5.357  12.058  18.083  0.00  0.00    +0.000 C 
ENDROOT
BRANCH   9  14
ATOM     14  N   UNL     1       2.069   9.395  18.384  0.00  0.00    +0.000 N 
ATOM     15  H   UNL     1       2.829   9.985  17.991  0.00  0.00    +0.000 HD
BRANCH  14  16
ATOM     16  C   UNL     1       2.413   7.917  18.679  0.00  0.00    +0.000 A 
ATOM     17  N   UNL     1       1.772   7.601  19.799  0.00  0.00    +0.000 NA
ATOM     18  N   UNL     1       1.767   6.469  20.451  0.00  0.00    +0.000 NA
ATOM     19  C   UNL     1       2.462   5.409  20.071  0.00  0.00    +0.000 A 
ATOM     20  C   UNL     1       2.346   4.210  20.951  0.00  0.00    +0.000 C 
ATOM     21  C   UNL     1       3.227   5.453  18.913  0.00  0.00    +0.000 A 
ATOM     22  C   UNL     1       3.923   4.238  18.617  0.00  0.00    +0.000 A 
ATOM     23  C   UNL     1       4.721   4.085  17.533  0.00  0.00    +0.000 A 
ATOM     24  C   UNL     1       4.838   5.157  16.673  0.00  0.00    +0.000 A 
ATOM     25  C   UNL     1       4.161   6.428  16.927  0.00  0.00    +0.000 A 
ATOM     26  C   UNL     1       3.278   6.693  18.108  0.00  0.00    +0.000 A 
ENDBRANCH  14  16
ENDBRANCH   9  14
BRANCH   1  27
ATOM     27  C   UNL     1      -6.282  11.649  20.397  0.00  0.00    +0.000 C 
BRANCH  27  28
ATOM     28  C   UNL     1      -7.381  10.625  20.058  0.00  0.00    +0.000 C 
BRANCH  28  30
ATOM     29  C   UNL     1      -7.909   8.506  20.790  0.00  0.00    +0.000 C 
ATOM     30  O   UNL     1      -7.715   9.850  21.190  0.00  0.00    +0.000 OA
ENDBRANCH  28  30
ENDBRANCH  27  28
ENDBRANCH   1  27
TORSDOF 5
ENDMDL
MODEL 9
REMARK VINA RESULT:      -7.6      3.718      9.698
REMARK  Name = 
REMARK  7 active torsions:
REMARK  status: ('A' for Active; 'I' for Inactive)
REMARK    1  A    between atoms: C_1  and  O_2
REMARK    2  A    between atoms: O_2  and  C_3
REMARK    3  A    between atoms: C_3  and  C_4
REMARK    4  A    between atoms: C_4  and  N_5
REMARK    5  A    between atoms: C_13  and  N_14
REMARK    6  A    between atoms: N_14  and  C_15
REMARK    7  A    between atoms: C_18  and  C_19
REMARK                            x       y       z     vdW  Elec       q    Type
REMARK                         _______ _______ _______ _____ _____    ______ ____
ROOT
ATOM      1  N   UNL     1      -1.844  13.086  22.767  0.00  0.00    +0.000 NA
ATOM      2  C   UNL     1      -2.551  13.100  21.472  0.00  0.00    +0.000 C 
ATOM      3  C   UNL     1      -1.638  12.608  20.299  0.00  0.00    +0.000 C 
ATOM      4  N   UNL     1      -0.806  11.430  20.663  0.00  0.00    +0.000 N 
ATOM      5  C   UNL     1      -0.739  10.949  21.947  0.00  0.00    +0.000 A 
ATOM      6  N   UNL     1       0.095   9.825  22.003  0.00  0.00    +0.000 NA
ATOM      7  C   UNL     1       0.564   9.605  20.721  0.00  0.00    +0.000 A 
ATOM      8  C   UNL     1       1.494   8.574  20.137  0.00  0.00    +0.000 A 
ATOM      9  C   UNL     1       1.881   8.539  18.689  0.00  0.00    +0.000 A 
ATOM     10  C   UNL     1       1.240   9.658  17.994  0.00  0.00    +0.000 A 
ATOM     11  C   UNL     1       0.353  10.632  18.581  0.00  0.00    +0.000 A 
ATOM     12  C   UNL     1       0.033  10.598  19.930  0.00  0.00    +0.000 A 
ATOM     13  C   UNL     1      -1.476  11.673  23.098  0.00  0.00    +0.000 C 
ENDROOT
BRANCH   9  14
ATOM     14  N   UNL     1       2.833   7.471  17.987  0.00  0.00    +0.000 N 
ATOM     15  H   UNL     1       3.485   7.850  17.272  0.00  0.00    +0.000 HD
BRANCH  14  16
ATOM     16  C   UNL     1       2.919   5.956  18.278  0.00  0.00    +0.000 A 
ATOM     17  N   UNL     1       3.663   5.431  17.310  0.00  0.00    +0.000 NA
ATOM     18  N   UNL     1       4.002   4.184  17.120  0.00  0.00    +0.000 NA
ATOM     19  C   UNL     1       3.610   3.196  17.909  0.00  0.00    +0.000 A 
ATOM     20  C   UNL     1       4.083   1.835  17.524  0.00  0.00    +0.000 C 
ATOM     21  C   UNL     1       2.820   3.460  19.019  0.00  0.00    +0.000 A 
ATOM     22  C   UNL     1       2.472   2.303  19.786  0.00  0.00    +0.000 A 
ATOM     23  C   UNL     1       1.707   2.355  20.903  0.00  0.00    +0.000 A 
ATOM     24  C   UNL     1       1.269   3.597  21.317  0.00  0.00    +0.000 A 
ATOM     25  C   UNL     1       1.581   4.813  20.569  0.00  0.00    +0.000 A 
ATOM     26  C   UNL     1       2.401   4.847  19.316  0.00  0.00    +0.000 A 
ENDBRANCH  14  16
ENDBRANCH   9  14
BRANCH   1  27
ATOM     27  C   UNL     1      -0.720  14.060  22.768  0.00  0.00    +0.000 C 
BRANCH  27  28
ATOM     28  C   UNL     1      -0.971  15.331  23.598  0.00  0.00    +0.000 C 
BRANCH  28  30
ATOM     29  C   UNL     1      -1.926  15.438  25.692  0.00  0.00    +0.000 C 
ATOM     30  O   UNL     1      -0.758  15.087  24.972  0.00  0.00    +0.000 OA
ENDBRANCH  28  30
ENDBRANCH  27  28
ENDBRANCH   1  27
TORSDOF 5
ENDMDL
