MODEL 1
REMARK VINA RESULT:      -7.6      0.000      0.000
REMARK  Name = 
REMARK  6 active torsions:
REMARK  status: ('A' for Active; 'I' for Inactive)
REMARK    1  A    between atoms: C_2  and  C_24
REMARK    2  A    between atoms: N_3  and  C_4
REMARK    3  A    between atoms: C_8  and  C_9
REMARK    4  A    between atoms: C_9  and  N_10
REMARK    5  A    between atoms: N_14  and  C_15
REMARK    6  A    between atoms: C_15  and  C_16
REMARK                            x       y       z     vdW  Elec       q    Type
REMARK                         _______ _______ _______ _____ _____    ______ ____
ROOT
ATOM      1  C   UNL     1       2.833   5.021  18.347  0.00  0.00    +0.000 A 
ATOM      2  C   UNL     1       2.072   3.894  18.661  0.00  0.00    +0.000 A 
ATOM      3  C   UNL     1       1.279   3.880  19.808  0.00  0.00    +0.000 A 
ATOM      4  C   UNL     1       1.202   5.013  20.615  0.00  0.00    +0.000 A 
ATOM      5  C   UNL     1       1.941   6.168  20.307  0.00  0.00    +0.000 A 
ATOM      6  C   UNL     1       2.813   6.130  19.202  0.00  0.00    +0.000 A 
ENDROOT
BRANCH   1   9
ATOM      7  O   UNL     1       5.531   4.170  18.053  0.00  0.00    +0.000 OA
ATOM      8  C   UNL     1       4.902   4.641  17.112  0.00  0.00    +0.000 C 
ATOM      9  N   UNL     1       3.589   5.087  17.152  0.00  0.00    +0.000 N 
ATOM     10  H   UNL     1       3.075   5.078  16.281  0.00  0.00    +0.000 HD
BRANCH   8  11
ATOM     11  C   UNL     1       5.566   4.648  15.783  0.00  0.00    +0.000 A 
ATOM     12  C   UNL     1       6.880   5.093  15.618  0.00  0.00    +0.000 A 
ATOM     13  C   UNL     1       7.490   4.986  14.364  0.00  0.00    +0.000 A 
ATOM     14  C   UNL     1       6.792   4.447  13.271  0.00  0.00    +0.000 A 
ATOM     15 CL   UNL     1       7.624   4.326  11.766  0.00  0.00    +0.000 Cl
ATOM     16  C   UNL     1       5.469   4.018  13.436  0.00  0.00    +0.000 A 
ATOM     17 CL   UNL     1       4.547   3.344  12.144  0.00  0.00    +0.000 Cl
ATOM     18  C   UNL     1       4.861   4.115  14.693  0.00  0.00    +0.000 A 
ENDBRANCH   8  11
ENDBRANCH   1   9
BRANCH   5  19
ATOM     19  C   UNL     1       1.739   7.443  21.118  0.00  0.00    +0.000 C 
BRANCH  19  20
ATOM     20  N   UNL     1       0.889   8.504  20.502  0.00  0.00    +0.000 NA
ATOM     21  C   UNL     1       1.536   9.090  19.323  0.00  0.00    +0.000 C 
ATOM     22  C   UNL     1       0.677   9.896  18.342  0.00  0.00    +0.000 C 
ATOM     23  C   UNL     1      -0.098  11.132  18.800  0.00  0.00    +0.000 C 
ATOM     24  N   UNL     1       0.012  11.613  20.171  0.00  0.00    +0.000 NA
ATOM     25  C   UNL     1      -0.498  10.611  21.113  0.00  0.00    +0.000 C 
ATOM     26  C   UNL     1       0.446   9.463  21.525  0.00  0.00    +0.000 C 
BRANCH  24  27
ATOM     27  C   UNL     1       1.306  12.181  20.560  0.00  0.00    +0.000 C 
BRANCH  27  28
ATOM     28  C   UNL     1       1.636  13.409  19.757  0.00  0.00    +0.000 A 
ATOM     29  C   UNL     1       2.674  13.495  18.769  0.00  0.00    +0.000 A 
ATOM     30  C   UNL     1       2.749  14.739  18.184  0.00  0.00    +0.000 A 
ATOM     31  S   UNL     1       1.571  15.811  18.801  0.00  0.00    +0.000 S 
ATOM     32  C   UNL     1       0.955  14.611  19.850  0.00  0.00    +0.000 A 
ENDBRANCH  27  28
ENDBRANCH  24  27
ENDBRANCH  19  20
ENDBRANCH   5  19
TORSDOF 6
ENDMDL
MODEL 2
REMARK VINA RESULT:      -7.5      2.019      3.044
REMARK  Name = 
REMARK  6 active torsions:
REMARK  status: ('A' for Active; 'I' for Inactive)
REMARK    1  A    between atoms: C_2  and  C_24
REMARK    2  A    between atoms: N_3  and  C_4
REMARK    3  A    between atoms: C_8  and  C_9
REMARK    4  A    between atoms: C_9  and  N_10
REMARK    5  A    between atoms: N_14  and  C_15
REMARK    6  A    between atoms: C_15  and  C_16
REMARK                            x       y       z     vdW  Elec       q    Type
REMARK                         _______ _______ _______ _____ _____    ______ ____
ROOT
ATOM      1  C   UNL     1       2.837   5.084  18.324  0.00  0.00    +0.000 A 
ATOM      2  C   UNL     1       2.015   3.984  18.571  0.00  0.00    +0.000 A 
ATOM      3  C   UNL     1       1.205   3.954  19.705  0.00  0.00    +0.000 A 
ATOM      4  C   UNL     1       1.174   5.048  20.568  0.00  0.00    +0.000 A 
ATOM      5  C   UNL     1       1.976   6.176  20.329  0.00  0.00    +0.000 A 
ATOM      6  C   UNL     1       2.862   6.149  19.234  0.00  0.00    +0.000 A 
ENDROOT
BRANCH   1   9
ATOM      7  O   UNL     1       5.397   3.901  17.944  0.00  0.00    +0.000 OA
ATOM      8  C   UNL     1       4.854   4.552  17.058  0.00  0.00    +0.000 C 
ATOM      9  N   UNL     1       3.615   5.170  17.144  0.00  0.00    +0.000 N 
ATOM     10  H   UNL     1       3.118   5.325  16.277  0.00  0.00    +0.000 HD
BRANCH   8  11
ATOM     11  C   UNL     1       5.533   4.608  15.738  0.00  0.00    +0.000 A 
ATOM     12  C   UNL     1       6.839   5.084  15.601  0.00  0.00    +0.000 A 
ATOM     13  C   UNL     1       7.466   5.023  14.353  0.00  0.00    +0.000 A 
ATOM     14  C   UNL     1       6.794   4.497  13.237  0.00  0.00    +0.000 A 
ATOM     15 CL   UNL     1       7.647   4.432  11.741  0.00  0.00    +0.000 Cl
ATOM     16  C   UNL     1       5.478   4.035  13.375  0.00  0.00    +0.000 A 
ATOM     17 CL   UNL     1       4.588   3.374  12.055  0.00  0.00    +0.000 Cl
ATOM     18  C   UNL     1       4.854   4.087  14.626  0.00  0.00    +0.000 A 
ENDBRANCH   8  11
ENDBRANCH   1   9
BRANCH   5  19
ATOM     19  C   UNL     1       1.828   7.418  21.201  0.00  0.00    +0.000 C 
BRANCH  19  20
ATOM     20  N   UNL     1       1.586   8.710  20.495  0.00  0.00    +0.000 NA
ATOM     21  C   UNL     1       0.617   9.542  21.217  0.00  0.00    +0.000 C 
ATOM     22  C   UNL     1       0.535  11.034  20.876  0.00  0.00    +0.000 C 
ATOM     23  C   UNL     1       0.208  11.504  19.457  0.00  0.00    +0.000 C 
ATOM     24  N   UNL     1      -0.097  10.542  18.407  0.00  0.00    +0.000 NA
ATOM     25  C   UNL     1       1.058   9.678  18.145  0.00  0.00    +0.000 C 
ATOM     26  C   UNL     1       1.282   8.470  19.076  0.00  0.00    +0.000 C 
BRANCH  24  27
ATOM     27  C   UNL     1      -1.360   9.809  18.542  0.00  0.00    +0.000 C 
BRANCH  27  28
ATOM     28  C   UNL     1      -2.411  10.339  17.605  0.00  0.00    +0.000 A 
ATOM     29  C   UNL     1      -2.444  10.112  16.188  0.00  0.00    +0.000 A 
ATOM     30  C   UNL     1      -3.525  10.710  15.580  0.00  0.00    +0.000 A 
ATOM     31  S   UNL     1      -4.517  11.534  16.699  0.00  0.00    +0.000 S 
ATOM     32  C   UNL     1      -3.504  11.090  18.002  0.00  0.00    +0.000 A 
ENDBRANCH  27  28
ENDBRANCH  24  27
ENDBRANCH  19  20
ENDBRANCH   5  19
TORSDOF 6
ENDMDL
MODEL 3
REMARK VINA RESULT:      -7.4      4.279      6.443
REMARK  Name = 
REMARK  6 active torsions:
REMARK  status: ('A' for Active; 'I' for Inactive)
REMARK    1  A    between atoms: C_2  and  C_24
REMARK    2  A    between atoms: N_3  and  C_4
REMARK    3  A    between atoms: C_8  and  C_9
REMARK    4  A    between atoms: C_9  and  N_10
REMARK    5  A    between atoms: N_14  and  C_15
REMARK    6  A    between atoms: C_15  and  C_16
REMARK                            x       y       z     vdW  Elec       q    Type
REMARK                         _______ _______ _______ _____ _____    ______ ____
ROOT
ATOM      1  C   UNL     1       1.648   9.475  18.013  0.00  0.00    +0.000 A 
ATOM      2  C   UNL     1       2.548  10.539  17.934  0.00  0.00    +0.000 A 
ATOM      3  C   UNL     1       2.129  11.836  18.227  0.00  0.00    +0.000 A 
ATOM      4  C   UNL     1       0.822  12.066  18.653  0.00  0.00    +0.000 A 
ATOM      5  C   UNL     1      -0.096  11.008  18.762  0.00  0.00    +0.000 A 
ATOM      6  C   UNL     1       0.315   9.720  18.366  0.00  0.00    +0.000 A 
ENDROOT
BRANCH   1   9
ATOM      7  O   UNL     1       2.259   7.576  20.042  0.00  0.00    +0.000 OA
ATOM      8  C   UNL     1       2.337   7.290  18.852  0.00  0.00    +0.000 C 
ATOM      9  N   UNL     1       2.066   8.141  17.790  0.00  0.00    +0.000 N 
ATOM     10  H   UNL     1       1.787   7.711  16.918  0.00  0.00    +0.000 HD
BRANCH   8  11
ATOM     11  C   UNL     1       2.655   5.880  18.509  0.00  0.00    +0.000 A 
ATOM     12  C   UNL     1       3.919   5.501  18.051  0.00  0.00    +0.000 A 
ATOM     13  C   UNL     1       4.196   4.148  17.836  0.00  0.00    +0.000 A 
ATOM     14  C   UNL     1       3.214   3.170  18.067  0.00  0.00    +0.000 A 
ATOM     15 CL   UNL     1       3.643   1.521  17.803  0.00  0.00    +0.000 Cl
ATOM     16  C   UNL     1       1.942   3.556  18.510  0.00  0.00    +0.000 A 
ATOM     17 CL   UNL     1       0.685   2.415  18.817  0.00  0.00    +0.000 Cl
ATOM     18  C   UNL     1       1.668   4.909  18.735  0.00  0.00    +0.000 A 
ENDBRANCH   8  11
ENDBRANCH   1   9
BRANCH   5  19
ATOM     19  C   UNL     1      -1.477  11.253  19.361  0.00  0.00    +0.000 C 
BRANCH  19  20
ATOM     20  N   UNL     1      -1.577  12.310  20.409  0.00  0.00    +0.000 NA
ATOM     21  C   UNL     1      -1.245  11.781  21.737  0.00  0.00    +0.000 C 
ATOM     22  C   UNL     1      -0.911  12.772  22.857  0.00  0.00    +0.000 C 
ATOM     23  C   UNL     1      -1.915  13.840  23.295  0.00  0.00    +0.000 C 
ATOM     24  N   UNL     1      -3.243  13.900  22.699  0.00  0.00    +0.000 NA
ATOM     25  C   UNL     1      -3.154  14.187  21.264  0.00  0.00    +0.000 C 
ATOM     26  C   UNL     1      -2.866  13.009  20.310  0.00  0.00    +0.000 C 
BRANCH  24  27
ATOM     27  C   UNL     1      -4.152  12.797  23.023  0.00  0.00    +0.000 C 
BRANCH  27  28
ATOM     28  C   UNL     1      -5.572  13.273  23.167  0.00  0.00    +0.000 A 
ATOM     29  C   UNL     1      -6.737  12.507  22.827  0.00  0.00    +0.000 A 
ATOM     30  C   UNL     1      -7.909  13.188  23.068  0.00  0.00    +0.000 A 
ATOM     31  S   UNL     1      -7.626  14.743  23.715  0.00  0.00    +0.000 S 
ATOM     32  C   UNL     1      -5.935  14.507  23.678  0.00  0.00    +0.000 A 
ENDBRANCH  27  28
ENDBRANCH  24  27
ENDBRANCH  19  20
ENDBRANCH   5  19
TORSDOF 6
ENDMDL
MODEL 4
REMARK VINA RESULT:      -7.4      3.730      6.462
REMARK  Name = 
REMARK  6 active torsions:
REMARK  status: ('A' for Active; 'I' for Inactive)
REMARK    1  A    between atoms: C_2  and  C_24
REMARK    2  A    between atoms: N_3  and  C_4
REMARK    3  A    between atoms: C_8  and  C_9
REMARK    4  A    between atoms: C_9  and  N_10
REMARK    5  A    between atoms: N_14  and  C_15
REMARK    6  A    between atoms: C_15  and  C_16
REMARK                            x       y       z     vdW  Elec       q    Type
REMARK                         _______ _______ _______ _____ _____    ______ ____
ROOT
ATOM      1  C   UNL     1       0.262  10.408  19.388  0.00  0.00    +0.000 A 
ATOM      2  C   UNL     1      -0.894  10.637  18.639  0.00  0.00    +0.000 A 
ATOM      3  C   UNL     1      -1.496  11.894  18.644  0.00  0.00    +0.000 A 
ATOM      4  C   UNL     1      -0.913  12.942  19.353  0.00  0.00    +0.000 A 
ATOM      5  C   UNL     1       0.263  12.743  20.096  0.00  0.00    +0.000 A 
ATOM      6  C   UNL     1       0.802  11.443  20.162  0.00  0.00    +0.000 A 
ENDROOT
BRANCH   1   9
ATOM      7  O   UNL     1       2.189   9.638  17.441  0.00  0.00    +0.000 OA
ATOM      8  C   UNL     1       1.860   8.883  18.351  0.00  0.00    +0.000 C 
ATOM      9  N   UNL     1       0.931   9.162  19.343  0.00  0.00    +0.000 N 
ATOM     10  H   UNL     1       1.031   8.661  20.217  0.00  0.00    +0.000 HD
BRANCH   8  11
ATOM     11  C   UNL     1       2.587   7.594  18.464  0.00  0.00    +0.000 A 
ATOM     12  C   UNL     1       3.642   7.265  17.609  0.00  0.00    +0.000 A 
ATOM     13  C   UNL     1       4.357   6.082  17.822  0.00  0.00    +0.000 A 
ATOM     14  C   UNL     1       4.018   5.220  18.877  0.00  0.00    +0.000 A 
ATOM     15 CL   UNL     1       4.966   3.795  19.087  0.00  0.00    +0.000 Cl
ATOM     16  C   UNL     1       2.949   5.545  19.722  0.00  0.00    +0.000 A 
ATOM     17 CL   UNL     1       2.474   4.539  21.041  0.00  0.00    +0.000 Cl
ATOM     18  C   UNL     1       2.240   6.733  19.517  0.00  0.00    +0.000 A 
ENDBRANCH   8  11
ENDBRANCH   1   9
BRANCH   5  19
ATOM     19  C   UNL     1       0.965  13.928  20.750  0.00  0.00    +0.000 C 
BRANCH  19  20
ATOM     20  N   UNL     1       1.614  14.913  19.837  0.00  0.00    +0.000 NA
ATOM     21  C   UNL     1       2.678  14.286  19.044  0.00  0.00    +0.000 C 
ATOM     22  C   UNL     1       3.185  15.015  17.795  0.00  0.00    +0.000 C 
ATOM     23  C   UNL     1       3.783  16.420  17.886  0.00  0.00    +0.000 C 
ATOM     24  N   UNL     1       3.944  17.076  19.177  0.00  0.00    +0.000 NA
ATOM     25  C   UNL     1       2.641  17.297  19.812  0.00  0.00    +0.000 C 
ATOM     26  C   UNL     1       2.005  16.120  20.580  0.00  0.00    +0.000 C 
BRANCH  24  27
ATOM     27  C   UNL     1       4.947  16.503  20.078  0.00  0.00    +0.000 C 
BRANCH  27  28
ATOM     28  C   UNL     1       6.269  16.307  19.386  0.00  0.00    +0.000 A 
ATOM     29  C   UNL     1       6.802  15.043  18.967  0.00  0.00    +0.000 A 
ATOM     30  C   UNL     1       8.028  15.161  18.352  0.00  0.00    +0.000 A 
ATOM     31  S   UNL     1       8.545  16.786  18.257  0.00  0.00    +0.000 S 
ATOM     32  C   UNL     1       7.127  17.336  19.037  0.00  0.00    +0.000 A 
ENDBRANCH  27  28
ENDBRANCH  24  27
ENDBRANCH  19  20
ENDBRANCH   5  19
TORSDOF 6
ENDMDL
MODEL 5
REMARK VINA RESULT:      -7.3      6.010     10.869
REMARK  Name = 
REMARK  6 active torsions:
REMARK  status: ('A' for Active; 'I' for Inactive)
REMARK    1  A    between atoms: C_2  and  C_24
REMARK    2  A    between atoms: N_3  and  C_4
REMARK    3  A    between atoms: C_8  and  C_9
REMARK    4  A    between atoms: C_9  and  N_10
REMARK    5  A    between atoms: N_14  and  C_15
REMARK    6  A    between atoms: C_15  and  C_16
REMARK                            x       y       z     vdW  Elec       q    Type
REMARK                         _______ _______ _______ _____ _____    ______ ____
ROOT
ATOM      1  C   UNL     1      -0.209  10.524  20.395  0.00  0.00    +0.000 A 
ATOM      2  C   UNL     1       0.036  10.813  19.052  0.00  0.00    +0.000 A 
ATOM      3  C   UNL     1       0.914  10.022  18.312  0.00  0.00    +0.000 A 
ATOM      4  C   UNL     1       1.509   8.907  18.900  0.00  0.00    +0.000 A 
ATOM      5  C   UNL     1       1.261   8.583  20.244  0.00  0.00    +0.000 A 
ATOM      6  C   UNL     1       0.451   9.448  21.004  0.00  0.00    +0.000 A 
ENDROOT
BRANCH   1   9
ATOM      7  O   UNL     1       0.390  12.787  22.012  0.00  0.00    +0.000 OA
ATOM      8  C   UNL     1      -0.755  12.362  21.904  0.00  0.00    +0.000 C 
ATOM      9  N   UNL     1      -1.149  11.268  21.148  0.00  0.00    +0.000 N 
ATOM     10  H   UNL     1      -2.109  11.254  20.827  0.00  0.00    +0.000 HD
BRANCH   8  11
ATOM     11  C   UNL     1      -1.837  13.140  22.561  0.00  0.00    +0.000 A 
ATOM     12  C   UNL     1      -1.563  14.248  23.366  0.00  0.00    +0.000 A 
ATOM     13  C   UNL     1      -2.621  15.004  23.879  0.00  0.00    +0.000 A 
ATOM     14  C   UNL     1      -3.953  14.654  23.602  0.00  0.00    +0.000 A 
ATOM     15 CL   UNL     1      -5.199  15.653  24.251  0.00  0.00    +0.000 Cl
ATOM     16  C   UNL     1      -4.224  13.532  22.808  0.00  0.00    +0.000 A 
ATOM     17 CL   UNL     1      -5.831  13.040  22.421  0.00  0.00    +0.000 Cl
ATOM     18  C   UNL     1      -3.165  12.782  22.285  0.00  0.00    +0.000 A 
ENDBRANCH   8  11
ENDBRANCH   1   9
BRANCH   5  19
ATOM     19  C   UNL     1       1.806   7.284  20.830  0.00  0.00    +0.000 C 
BRANCH  19  20
ATOM     20  N   UNL     1       1.754   6.077  19.955  0.00  0.00    +0.000 NA
ATOM     21  C   UNL     1       1.723   4.843  20.746  0.00  0.00    +0.000 C 
ATOM     22  C   UNL     1       1.279   3.546  20.062  0.00  0.00    +0.000 C 
ATOM     23  C   UNL     1       2.022   3.000  18.842  0.00  0.00    +0.000 C 
ATOM     24  N   UNL     1       3.212   3.670  18.336  0.00  0.00    +0.000 NA
ATOM     25  C   UNL     1       2.888   5.023  17.872  0.00  0.00    +0.000 C 
ATOM     26  C   UNL     1       2.802   6.145  18.926  0.00  0.00    +0.000 C 
BRANCH  24  27
ATOM     27  C   UNL     1       4.404   3.611  19.188  0.00  0.00    +0.000 C 
BRANCH  27  28
ATOM     28  C   UNL     1       5.559   4.357  18.578  0.00  0.00    +0.000 A 
ATOM     29  C   UNL     1       6.019   4.205  17.227  0.00  0.00    +0.000 A 
ATOM     30  C   UNL     1       7.091   5.018  16.936  0.00  0.00    +0.000 A 
ATOM     31  S   UNL     1       7.548   5.980  18.272  0.00  0.00    +0.000 S 
ATOM     32  C   UNL     1       6.309   5.313  19.242  0.00  0.00    +0.000 A 
ENDBRANCH  27  28
ENDBRANCH  24  27
ENDBRANCH  19  20
ENDBRANCH   5  19
TORSDOF 6
ENDMDL
MODEL 6
REMARK VINA RESULT:      -7.3      3.422      6.274
REMARK  Name = 
REMARK  6 active torsions:
REMARK  status: ('A' for Active; 'I' for Inactive)
REMARK    1  A    between atoms: C_2  and  C_24
REMARK    2  A    between atoms: N_3  and  C_4
REMARK    3  A    between atoms: C_8  and  C_9
REMARK    4  A    between atoms: C_9  and  N_10
REMARK    5  A    between atoms: N_14  and  C_15
REMARK    6  A    between atoms: C_15  and  C_16
REMARK                            x       y       z     vdW  Elec       q    Type
REMARK                         _______ _______ _______ _____ _____    ______ ____
ROOT
ATOM      1  C   UNL     1       0.438  10.330  19.386  0.00  0.00    +0.000 A 
ATOM      2  C   UNL     1      -0.649  10.564  18.542  0.00  0.00    +0.000 A 
ATOM      3  C   UNL     1      -1.233  11.828  18.482  0.00  0.00    +0.000 A 
ATOM      4  C   UNL     1      -0.698  12.878  19.227  0.00  0.00    +0.000 A 
ATOM      5  C   UNL     1       0.409  12.673  20.068  0.00  0.00    +0.000 A 
ATOM      6  C   UNL     1       0.924  11.368  20.192  0.00  0.00    +0.000 A 
ENDROOT
BRANCH   1   9
ATOM      7  O   UNL     1       2.179   9.336  17.367  0.00  0.00    +0.000 OA
ATOM      8  C   UNL     1       1.928   8.684  18.375  0.00  0.00    +0.000 C 
ATOM      9  N   UNL     1       1.092   9.075  19.411  0.00  0.00    +0.000 N 
ATOM     10  H   UNL     1       1.266   8.665  20.319  0.00  0.00    +0.000 HD
BRANCH   8  11
ATOM     11  C   UNL     1       2.654   7.401  18.555  0.00  0.00    +0.000 A 
ATOM     12  C   UNL     1       2.426   6.575  19.658  0.00  0.00    +0.000 A 
ATOM     13  C   UNL     1       3.063   5.332  19.730  0.00  0.00    +0.000 A 
ATOM     14  C   UNL     1       3.935   4.913  18.711  0.00  0.00    +0.000 A 
ATOM     15 CL   UNL     1       4.659   3.356  18.862  0.00  0.00    +0.000 Cl
ATOM     16  C   UNL     1       4.174   5.752  17.615  0.00  0.00    +0.000 A 
ATOM     17 CL   UNL     1       5.227   5.309  16.324  0.00  0.00    +0.000 Cl
ATOM     18  C   UNL     1       3.528   6.991  17.537  0.00  0.00    +0.000 A 
ENDBRANCH   8  11
ENDBRANCH   1   9
BRANCH   5  19
ATOM     19  C   UNL     1       1.069  13.857  20.766  0.00  0.00    +0.000 C 
BRANCH  19  20
ATOM     20  N   UNL     1       1.682  14.898  19.890  0.00  0.00    +0.000 NA
ATOM     21  C   UNL     1       2.727  14.328  19.033  0.00  0.00    +0.000 C 
ATOM     22  C   UNL     1       3.191  15.129  17.812  0.00  0.00    +0.000 C 
ATOM     23  C   UNL     1       3.779  16.533  17.964  0.00  0.00    +0.000 C 
ATOM     24  N   UNL     1       3.972  17.119  19.283  0.00  0.00    +0.000 NA
ATOM     25  C   UNL     1       2.686  17.290  19.967  0.00  0.00    +0.000 C 
ATOM     26  C   UNL     1       2.083  16.066  20.687  0.00  0.00    +0.000 C 
BRANCH  24  27
ATOM     27  C   UNL     1       5.006  16.508  20.122  0.00  0.00    +0.000 C 
BRANCH  27  28
ATOM     28  C   UNL     1       6.287  16.298  19.360  0.00  0.00    +0.000 A 
ATOM     29  C   UNL     1       7.182  17.342  18.948  0.00  0.00    +0.000 A 
ATOM     30  C   UNL     1       8.281  16.863  18.272  0.00  0.00    +0.000 A 
ATOM     31  S   UNL     1       8.259  15.160  18.138  0.00  0.00    +0.000 S 
ATOM     32  C   UNL     1       6.780  15.060  18.987  0.00  0.00    +0.000 A 
ENDBRANCH  27  28
ENDBRANCH  24  27
ENDBRANCH  19  20
ENDBRANCH   5  19
TORSDOF 6
ENDMDL
MODEL 7
REMARK VINA RESULT:      -7.2      5.989     10.723
REMARK  Name = 
REMARK  6 active torsions:
REMARK  status: ('A' for Active; 'I' for Inactive)
REMARK    1  A    between atoms: C_2  and  C_24
REMARK    2  A    between atoms: N_3  and  C_4
REMARK    3  A    between atoms: C_8  and  C_9
REMARK    4  A    between atoms: C_9  and  N_10
REMARK    5  A    between atoms: N_14  and  C_15
REMARK    6  A    between atoms: C_15  and  C_16
REMARK                            x       y       z     vdW  Elec       q    Type
REMARK                         _______ _______ _______ _____ _____    ______ ____
ROOT
ATOM      1  C   UNL     1       0.016  10.085  19.825  0.00  0.00    +0.000 A 
ATOM      2  C   UNL     1       0.460  10.339  18.526  0.00  0.00    +0.000 A 
ATOM      3  C   UNL     1       1.479   9.567  17.970  0.00  0.00    +0.000 A 
ATOM      4  C   UNL     1       2.020   8.504  18.691  0.00  0.00    +0.000 A 
ATOM      5  C   UNL     1       1.574   8.216  19.992  0.00  0.00    +0.000 A 
ATOM      6  C   UNL     1       0.615   9.066  20.576  0.00  0.00    +0.000 A 
ENDROOT
BRANCH   1   9
ATOM      7  O   UNL     1       0.230  12.064  21.859  0.00  0.00    +0.000 OA
ATOM      8  C   UNL     1      -0.854  11.758  21.374  0.00  0.00    +0.000 C 
ATOM      9  N   UNL     1      -1.065  10.807  20.386  0.00  0.00    +0.000 N 
ATOM     10  H   UNL     1      -1.891  10.918  19.812  0.00  0.00    +0.000 HD
BRANCH   8  11
ATOM     11  C   UNL     1      -2.041  12.538  21.810  0.00  0.00    +0.000 A 
ATOM     12  C   UNL     1      -2.586  13.552  21.020  0.00  0.00    +0.000 A 
ATOM     13  C   UNL     1      -3.762  14.187  21.431  0.00  0.00    +0.000 A 
ATOM     14  C   UNL     1      -4.391  13.823  22.633  0.00  0.00    +0.000 A 
ATOM     15 CL   UNL     1      -5.851  14.637  23.056  0.00  0.00    +0.000 Cl
ATOM     16  C   UNL     1      -3.832  12.817  23.431  0.00  0.00    +0.000 A 
ATOM     17 CL   UNL     1      -4.545  12.312  24.918  0.00  0.00    +0.000 Cl
ATOM     18  C   UNL     1      -2.661  12.173  23.015  0.00  0.00    +0.000 A 
ENDBRANCH   8  11
ENDBRANCH   1   9
BRANCH   5  19
ATOM     19  C   UNL     1       2.074   6.968  20.712  0.00  0.00    +0.000 C 
BRANCH  19  20
ATOM     20  N   UNL     1       1.898   5.667  20.004  0.00  0.00    +0.000 NA
ATOM     21  C   UNL     1       2.525   4.566  20.742  0.00  0.00    +0.000 C 
ATOM     22  C   UNL     1       2.124   3.128  20.394  0.00  0.00    +0.000 C 
ATOM     23  C   UNL     1       2.312   2.575  18.981  0.00  0.00    +0.000 C 
ATOM     24  N   UNL     1       2.939   3.383  17.943  0.00  0.00    +0.000 NA
ATOM     25  C   UNL     1       2.134   4.576  17.660  0.00  0.00    +0.000 C 
ATOM     26  C   UNL     1       2.296   5.793  18.594  0.00  0.00    +0.000 C 
BRANCH  24  27
ATOM     27  C   UNL     1       4.367   3.664  18.111  0.00  0.00    +0.000 C 
BRANCH  27  28
ATOM     28  C   UNL     1       4.994   4.139  16.828  0.00  0.00    +0.000 A 
ATOM     29  C   UNL     1       5.149   5.514  16.446  0.00  0.00    +0.000 A 
ATOM     30  C   UNL     1       5.762   5.658  15.222  0.00  0.00    +0.000 A 
ATOM     31  S   UNL     1       6.170   4.152  14.527  0.00  0.00    +0.000 S 
ATOM     32  C   UNL     1       5.530   3.303  15.864  0.00  0.00    +0.000 A 
ENDBRANCH  27  28
ENDBRANCH  24  27
ENDBRANCH  19  20
ENDBRANCH   5  19
TORSDOF 6
ENDMDL
MODEL 8
REMARK VINA RESULT:      -7.2      3.724      6.038
REMARK  Name = 
REMARK  6 active torsions:
REMARK  status: ('A' for Active; 'I' for Inactive)
REMARK    1  A    between atoms: C_2  and  C_24
REMARK    2  A    between atoms: N_3  and  C_4
REMARK    3  A    between atoms: C_8  and  C_9
REMARK    4  A    between atoms: C_9  and  N_10
REMARK    5  A    between atoms: N_14  and  C_15
REMARK    6  A    between atoms: C_15  and  C_16
REMARK                            x       y       z     vdW  Elec       q    Type
REMARK                         _______ _______ _______ _____ _____    ______ ____
ROOT
ATOM      1  C   UNL     1       0.386   9.067  21.486  0.00  0.00    +0.000 A 
ATOM      2  C   UNL     1      -0.181   9.333  22.733  0.00  0.00    +0.000 A 
ATOM      3  C   UNL     1      -0.726  10.588  23.002  0.00  0.00    +0.000 A 
ATOM      4  C   UNL     1      -0.754  11.563  22.007  0.00  0.00    +0.000 A 
ATOM      5  C   UNL     1      -0.209  11.311  20.737  0.00  0.00    +0.000 A 
ATOM      6  C   UNL     1       0.426  10.074  20.513  0.00  0.00    +0.000 A 
ENDROOT
BRANCH   1   9
ATOM      7  O   UNL     1       2.182   8.474  19.360  0.00  0.00    +0.000 OA
ATOM      8  C   UNL     1       1.759   7.596  20.105  0.00  0.00    +0.000 C 
ATOM      9  N   UNL     1       0.881   7.780  21.163  0.00  0.00    +0.000 N 
ATOM     10  H   UNL     1       0.916   7.100  21.911  0.00  0.00    +0.000 HD
BRANCH   8  11
ATOM     11  C   UNL     1       2.306   6.227  19.926  0.00  0.00    +0.000 A 
ATOM     12  C   UNL     1       3.358   5.963  19.046  0.00  0.00    +0.000 A 
ATOM     13  C   UNL     1       3.901   4.676  18.989  0.00  0.00    +0.000 A 
ATOM     14  C   UNL     1       3.392   3.647  19.798  0.00  0.00    +0.000 A 
ATOM     15 CL   UNL     1       4.134   2.094  19.687  0.00  0.00    +0.000 Cl
ATOM     16  C   UNL     1       2.325   3.911  20.666  0.00  0.00    +0.000 A 
ATOM     17 CL   UNL     1       1.647   2.702  21.693  0.00  0.00    +0.000 Cl
ATOM     18  C   UNL     1       1.789   5.202  20.732  0.00  0.00    +0.000 A 
ENDBRANCH   8  11
ENDBRANCH   1   9
BRANCH   5  19
ATOM     19  C   UNL     1      -0.373  12.335  19.618  0.00  0.00    +0.000 C 
BRANCH  19  20
ATOM     20  N   UNL     1       0.088  13.724  19.906  0.00  0.00    +0.000 NA
ATOM     21  C   UNL     1      -0.302  14.650  18.837  0.00  0.00    +0.000 C 
ATOM     22  C   UNL     1      -0.271  16.155  19.125  0.00  0.00    +0.000 C 
ATOM     23  C   UNL     1       1.021  16.853  19.553  0.00  0.00    +0.000 C 
ATOM     24  N   UNL     1       2.272  16.112  19.638  0.00  0.00    +0.000 NA
ATOM     25  C   UNL     1       2.184  15.060  20.655  0.00  0.00    +0.000 C 
ATOM     26  C   UNL     1       1.515  13.728  20.259  0.00  0.00    +0.000 C 
BRANCH  24  27
ATOM     27  C   UNL     1       2.845  15.655  18.368  0.00  0.00    +0.000 C 
BRANCH  27  28
ATOM     28  C   UNL     1       4.348  15.717  18.384  0.00  0.00    +0.000 A 
ATOM     29  C   UNL     1       5.124  16.808  18.901  0.00  0.00    +0.000 A 
ATOM     30  C   UNL     1       6.480  16.594  18.793  0.00  0.00    +0.000 A 
ATOM     31  S   UNL     1       6.836  15.081  18.086  0.00  0.00    +0.000 S 
ATOM     32  C   UNL     1       5.177  14.707  17.925  0.00  0.00    +0.000 A 
ENDBRANCH  27  28
ENDBRANCH  24  27
ENDBRANCH  19  20
ENDBRANCH   5  19
TORSDOF 6
ENDMDL
MODEL 9
REMARK VINA RESULT:      -7.1      5.942     10.793
REMARK  Name = 
REMARK  6 active torsions:
REMARK  status: ('A' for Active; 'I' for Inactive)
REMARK    1  A    between atoms: C_2  and  C_24
REMARK    2  A    between atoms: N_3  and  C_4
REMARK    3  A    between atoms: C_8  and  C_9
REMARK    4  A    between atoms: C_9  and  N_10
REMARK    5  A    between atoms: N_14  and  C_15
REMARK    6  A    between atoms: C_15  and  C_16
REMARK                            x       y       z     vdW  Elec       q    Type
REMARK                         _______ _______ _______ _____ _____    ______ ____
ROOT
ATOM      1  C   UNL     1       0.305  10.382  20.134  0.00  0.00    +0.000 A 
ATOM      2  C   UNL     1       0.646  10.588  18.796  0.00  0.00    +0.000 A 
ATOM      3  C   UNL     1       1.450   9.665  18.127  0.00  0.00    +0.000 A 
ATOM      4  C   UNL     1       1.869   8.507  18.778  0.00  0.00    +0.000 A 
ATOM      5  C   UNL     1       1.520   8.267  20.118  0.00  0.00    +0.000 A 
ATOM      6  C   UNL     1       0.792   9.255  20.808  0.00  0.00    +0.000 A 
ENDROOT
BRANCH   1   9
ATOM      7  O   UNL     1       0.178  10.731  22.955  0.00  0.00    +0.000 OA
ATOM      8  C   UNL     1      -0.549  11.366  22.198  0.00  0.00    +0.000 C 
ATOM      9  N   UNL     1      -0.567  11.266  20.814  0.00  0.00    +0.000 N 
ATOM     10  H   UNL     1      -0.895  12.074  20.301  0.00  0.00    +0.000 HD
BRANCH   8  11
ATOM     11  C   UNL     1      -1.421  12.405  22.801  0.00  0.00    +0.000 A 
ATOM     12  C   UNL     1      -2.683  12.100  23.315  0.00  0.00    +0.000 A 
ATOM     13  C   UNL     1      -3.422  13.096  23.961  0.00  0.00    +0.000 A 
ATOM     14  C   UNL     1      -2.913  14.399  24.087  0.00  0.00    +0.000 A 
ATOM     15 CL   UNL     1      -3.875  15.562  24.920  0.00  0.00    +0.000 Cl
ATOM     16  C   UNL     1      -1.654  14.705  23.555  0.00  0.00    +0.000 A 
ATOM     17 CL   UNL     1      -0.959  16.279  23.671  0.00  0.00    +0.000 Cl
ATOM     18  C   UNL     1      -0.909  13.706  22.918  0.00  0.00    +0.000 A 
ENDBRANCH   8  11
ENDBRANCH   1   9
BRANCH   5  19
ATOM     19  C   UNL     1       1.867   6.933  20.771  0.00  0.00    +0.000 C 
BRANCH  19  20
ATOM     20  N   UNL     1       1.628   5.704  19.958  0.00  0.00    +0.000 NA
ATOM     21  C   UNL     1       1.751   4.491  20.774  0.00  0.00    +0.000 C 
ATOM     22  C   UNL     1       1.167   3.183  20.232  0.00  0.00    +0.000 C 
ATOM     23  C   UNL     1       1.640   2.596  18.900  0.00  0.00    +0.000 C 
ATOM     24  N   UNL     1       2.707   3.237  18.143  0.00  0.00    +0.000 NA
ATOM     25  C   UNL     1       2.305   4.582  17.718  0.00  0.00    +0.000 C 
ATOM     26  C   UNL     1       2.444   5.732  18.736  0.00  0.00    +0.000 C 
BRANCH  24  27
ATOM     27  C   UNL     1       4.047   3.185  18.735  0.00  0.00    +0.000 C 
BRANCH  27  28
ATOM     28  C   UNL     1       5.070   3.846  17.851  0.00  0.00    +0.000 A 
ATOM     29  C   UNL     1       5.154   3.691  16.427  0.00  0.00    +0.000 A 
ATOM     30  C   UNL     1       6.184   4.417  15.873  0.00  0.00    +0.000 A 
ATOM     31  S   UNL     1       7.050   5.302  17.049  0.00  0.00    +0.000 S 
ATOM     32  C   UNL     1       6.046   4.718  18.303  0.00  0.00    +0.000 A 
ENDBRANCH  27  28
ENDBRANCH  24  27
ENDBRANCH  19  20
ENDBRANCH   5  19
TORSDOF 6
ENDMDL
