MODEL 1
REMARK VINA RESULT:      -6.2      0.000      0.000
REMARK  Name = 
REMARK  3 active torsions:
REMARK  status: ('A' for Active; 'I' for Inactive)
REMARK    1  A    between atoms: C_2  and  O_3
REMARK    2  A    between atoms: C_2  and  C_4
REMARK    3  A    between atoms: C_4  and  C_5
REMARK                            x       y       z     vdW  Elec       q    Type
REMARK                         _______ _______ _______ _____ _____    ______ ____
ROOT
ATOM      1  C   UNL     1       4.354   4.100  17.368  0.00  0.00    +0.000 A 
ATOM      2  N   UNL     1       3.824   2.922  17.641  0.00  0.00    +0.000 NA
ATOM      3  C   UNL     1       2.875   3.211  18.594  0.00  0.00    +0.000 A 
ATOM      4  C   UNL     1       1.934   2.397  19.240  0.00  0.00    +0.000 A 
ATOM      5  C   UNL     1       1.098   2.989  20.199  0.00  0.00    +0.000 A 
ATOM      6  C   UNL     1       1.201   4.351  20.511  0.00  0.00    +0.000 A 
ATOM      7  C   UNL     1       2.129   5.178  19.865  0.00  0.00    +0.000 A 
ATOM      8  C   UNL     1       2.927   4.558  18.913  0.00  0.00    +0.000 A 
ATOM      9  O   UNL     1       3.881   5.137  18.125  0.00  0.00    +0.000 OA
ENDROOT
BRANCH   1  10
ATOM     10  C   UNL     1       5.415   4.408  16.388  0.00  0.00    +0.000 C 
BRANCH  10  12
ATOM     11  O   UNL     1       7.805   4.558  16.395  0.00  0.00    +0.000 OA
ATOM     12  C   UNL     1       6.772   4.409  17.038  0.00  0.00    +0.000 C 
BRANCH  12  13
ATOM     13  O   UNL     1       6.809   4.135  18.363  0.00  0.00    +0.000 OA
ATOM     14  H   UNL     1       7.507   4.600  18.870  0.00  0.00    +0.000 HD
ENDBRANCH  12  13
ENDBRANCH  10  12
ENDBRANCH   1  10
TORSDOF 3
ENDMDL
MODEL 2
REMARK VINA RESULT:      -6.1      0.919      1.639
REMARK  Name = 
REMARK  3 active torsions:
REMARK  status: ('A' for Active; 'I' for Inactive)
REMARK    1  A    between atoms: C_2  and  O_3
REMARK    2  A    between atoms: C_2  and  C_4
REMARK    3  A    between atoms: C_4  and  C_5
REMARK                            x       y       z     vdW  Elec       q    Type
REMARK                         _______ _______ _______ _____ _____    ______ ____
ROOT
ATOM      1  C   UNL     1       4.354   4.248  17.247  0.00  0.00    +0.000 A 
ATOM      2  N   UNL     1       3.749   5.221  17.904  0.00  0.00    +0.000 NA
ATOM      3  C   UNL     1       2.839   4.556  18.692  0.00  0.00    +0.000 A 
ATOM      4  C   UNL     1       1.939   5.023  19.660  0.00  0.00    +0.000 A 
ATOM      5  C   UNL     1       1.107   4.086  20.294  0.00  0.00    +0.000 A 
ATOM      6  C   UNL     1       1.166   2.725  19.966  0.00  0.00    +0.000 A 
ATOM      7  C   UNL     1       2.068   2.244  19.008  0.00  0.00    +0.000 A 
ATOM      8  C   UNL     1       2.883   3.199  18.416  0.00  0.00    +0.000 A 
ATOM      9  O   UNL     1       3.859   2.995  17.482  0.00  0.00    +0.000 OA
ENDROOT
BRANCH   1  10
ATOM     10  C   UNL     1       5.454   4.367  16.268  0.00  0.00    +0.000 C 
BRANCH  10  12
ATOM     11  O   UNL     1       7.843   4.517  16.337  0.00  0.00    +0.000 OA
ATOM     12  C   UNL     1       6.793   4.384  16.955  0.00  0.00    +0.000 C 
BRANCH  12  13
ATOM     13  O   UNL     1       6.794   4.144  18.286  0.00  0.00    +0.000 OA
ATOM     14  H   UNL     1       7.673   4.177  18.720  0.00  0.00    +0.000 HD
ENDBRANCH  12  13
ENDBRANCH  10  12
ENDBRANCH   1  10
TORSDOF 3
ENDMDL
MODEL 3
REMARK VINA RESULT:      -6.1      1.841      2.340
REMARK  Name = 
REMARK  3 active torsions:
REMARK  status: ('A' for Active; 'I' for Inactive)
REMARK    1  A    between atoms: C_2  and  O_3
REMARK    2  A    between atoms: C_2  and  C_4
REMARK    3  A    between atoms: C_4  and  C_5
REMARK                            x       y       z     vdW  Elec       q    Type
REMARK                         _______ _______ _______ _____ _____    ______ ____
ROOT
ATOM      1  C   UNL     1       6.089   4.378  18.073  0.00  0.00    +0.000 A 
ATOM      2  N   UNL     1       5.196   4.281  17.106  0.00  0.00    +0.000 NA
ATOM      3  C   UNL     1       4.065   3.848  17.758  0.00  0.00    +0.000 A 
ATOM      4  C   UNL     1       2.762   3.613  17.296  0.00  0.00    +0.000 A 
ATOM      5  C   UNL     1       1.810   3.146  18.215  0.00  0.00    +0.000 A 
ATOM      6  C   UNL     1       2.148   2.912  19.555  0.00  0.00    +0.000 A 
ATOM      7  C   UNL     1       3.443   3.151  20.032  0.00  0.00    +0.000 A 
ATOM      8  C   UNL     1       4.351   3.628  19.096  0.00  0.00    +0.000 A 
ATOM      9  O   UNL     1       5.657   3.967  19.304  0.00  0.00    +0.000 OA
ENDROOT
BRANCH   1  10
ATOM     10  C   UNL     1       7.492   4.828  17.964  0.00  0.00    +0.000 C 
BRANCH  10  12
ATOM     11  O   UNL     1       8.124   7.013  18.714  0.00  0.00    +0.000 OA
ATOM     12  C   UNL     1       7.813   5.865  19.007  0.00  0.00    +0.000 C 
BRANCH  12  13
ATOM     13  O   UNL     1       7.841   5.441  20.292  0.00  0.00    +0.000 OA
ATOM     14  H   UNL     1       8.037   6.133  20.960  0.00  0.00    +0.000 HD
ENDBRANCH  12  13
ENDBRANCH  10  12
ENDBRANCH   1  10
TORSDOF 3
ENDMDL
MODEL 4
REMARK VINA RESULT:      -6.0      1.536      1.669
REMARK  Name = 
REMARK  3 active torsions:
REMARK  status: ('A' for Active; 'I' for Inactive)
REMARK    1  A    between atoms: C_2  and  O_3
REMARK    2  A    between atoms: C_2  and  C_4
REMARK    3  A    between atoms: C_4  and  C_5
REMARK                            x       y       z     vdW  Elec       q    Type
REMARK                         _______ _______ _______ _____ _____    ______ ____
ROOT
ATOM      1  C   UNL     1       5.621   4.957  19.217  0.00  0.00    +0.000 A 
ATOM      2  N   UNL     1       5.399   3.655  19.240  0.00  0.00    +0.000 NA
ATOM      3  C   UNL     1       4.052   3.565  19.501  0.00  0.00    +0.000 A 
ATOM      4  C   UNL     1       3.199   2.456  19.589  0.00  0.00    +0.000 A 
ATOM      5  C   UNL     1       1.849   2.686  19.897  0.00  0.00    +0.000 A 
ATOM      6  C   UNL     1       1.365   3.982  20.119  0.00  0.00    +0.000 A 
ATOM      7  C   UNL     1       2.204   5.099  20.024  0.00  0.00    +0.000 A 
ATOM      8  C   UNL     1       3.528   4.832  19.703  0.00  0.00    +0.000 A 
ATOM      9  O   UNL     1       4.537   5.734  19.521  0.00  0.00    +0.000 OA
ENDROOT
BRANCH   1  10
ATOM     10  C   UNL     1       6.897   5.651  18.950  0.00  0.00    +0.000 C 
BRANCH  10  12
ATOM     11  O   UNL     1       7.335   5.755  16.598  0.00  0.00    +0.000 OA
ATOM     12  C   UNL     1       7.516   5.176  17.663  0.00  0.00    +0.000 C 
BRANCH  12  13
ATOM     13  O   UNL     1       8.206   4.013  17.716  0.00  0.00    +0.000 OA
ATOM     14  H   UNL     1       7.760   3.280  18.190  0.00  0.00    +0.000 HD
ENDBRANCH  12  13
ENDBRANCH  10  12
ENDBRANCH   1  10
TORSDOF 3
ENDMDL
MODEL 5
REMARK VINA RESULT:      -6.0      1.942      2.442
REMARK  Name = 
REMARK  3 active torsions:
REMARK  status: ('A' for Active; 'I' for Inactive)
REMARK    1  A    between atoms: C_2  and  O_3
REMARK    2  A    between atoms: C_2  and  C_4
REMARK    3  A    between atoms: C_4  and  C_5
REMARK                            x       y       z     vdW  Elec       q    Type
REMARK                         _______ _______ _______ _____ _____    ______ ____
ROOT
ATOM      1  C   UNL     1       5.734   4.751  18.382  0.00  0.00    +0.000 A 
ATOM      2  N   UNL     1       5.046   5.209  19.412  0.00  0.00    +0.000 NA
ATOM      3  C   UNL     1       3.780   4.718  19.196  0.00  0.00    +0.000 A 
ATOM      4  C   UNL     1       2.610   4.801  19.964  0.00  0.00    +0.000 A 
ATOM      5  C   UNL     1       1.445   4.204  19.458  0.00  0.00    +0.000 A 
ATOM      6  C   UNL     1       1.444   3.549  18.220  0.00  0.00    +0.000 A 
ATOM      7  C   UNL     1       2.607   3.449  17.447  0.00  0.00    +0.000 A 
ATOM      8  C   UNL     1       3.742   4.038  17.988  0.00  0.00    +0.000 A 
ATOM      9  O   UNL     1       5.001   4.058  17.458  0.00  0.00    +0.000 OA
ENDROOT
BRANCH   1  10
ATOM     10  C   UNL     1       7.171   4.942  18.100  0.00  0.00    +0.000 C 
BRANCH  10  12
ATOM     11  O   UNL     1       8.225   7.004  18.712  0.00  0.00    +0.000 OA
ATOM     12  C   UNL     1       7.791   5.914  19.068  0.00  0.00    +0.000 C 
BRANCH  12  13
ATOM     13  O   UNL     1       7.940   5.486  20.343  0.00  0.00    +0.000 OA
ATOM     14  H   UNL     1       7.389   5.947  21.010  0.00  0.00    +0.000 HD
ENDBRANCH  12  13
ENDBRANCH  10  12
ENDBRANCH   1  10
TORSDOF 3
ENDMDL
MODEL 6
REMARK VINA RESULT:      -6.0      1.714      2.284
REMARK  Name = 
REMARK  3 active torsions:
REMARK  status: ('A' for Active; 'I' for Inactive)
REMARK    1  A    between atoms: C_2  and  O_3
REMARK    2  A    between atoms: C_2  and  C_4
REMARK    3  A    between atoms: C_4  and  C_5
REMARK                            x       y       z     vdW  Elec       q    Type
REMARK                         _______ _______ _______ _____ _____    ______ ____
ROOT
ATOM      1  C   UNL     1       5.505   4.961  19.172  0.00  0.00    +0.000 A 
ATOM      2  N   UNL     1       4.353   5.597  19.290  0.00  0.00    +0.000 NA
ATOM      3  C   UNL     1       3.429   4.579  19.331  0.00  0.00    +0.000 A 
ATOM      4  C   UNL     1       2.039   4.598  19.508  0.00  0.00    +0.000 A 
ATOM      5  C   UNL     1       1.354   3.373  19.483  0.00  0.00    +0.000 A 
ATOM      6  C   UNL     1       2.035   2.165  19.280  0.00  0.00    +0.000 A 
ATOM      7  C   UNL     1       3.425   2.130  19.112  0.00  0.00    +0.000 A 
ATOM      8  C   UNL     1       4.067   3.361  19.159  0.00  0.00    +0.000 A 
ATOM      9  O   UNL     1       5.407   3.602  19.054  0.00  0.00    +0.000 OA
ENDROOT
BRANCH   1  10
ATOM     10  C   UNL     1       6.858   5.550  19.108  0.00  0.00    +0.000 C 
BRANCH  10  12
ATOM     11  O   UNL     1       7.438   5.945  16.818  0.00  0.00    +0.000 OA
ATOM     12  C   UNL     1       7.532   5.222  17.803  0.00  0.00    +0.000 C 
BRANCH  12  13
ATOM     13  O   UNL     1       8.171   4.031  17.734  0.00  0.00    +0.000 OA
ATOM     14  H   UNL     1       8.147   3.492  18.553  0.00  0.00    +0.000 HD
ENDBRANCH  12  13
ENDBRANCH  10  12
ENDBRANCH   1  10
TORSDOF 3
ENDMDL
MODEL 7
REMARK VINA RESULT:      -5.9      1.712      2.204
REMARK  Name = 
REMARK  3 active torsions:
REMARK  status: ('A' for Active; 'I' for Inactive)
REMARK    1  A    between atoms: C_2  and  O_3
REMARK    2  A    between atoms: C_2  and  C_4
REMARK    3  A    between atoms: C_4  and  C_5
REMARK                            x       y       z     vdW  Elec       q    Type
REMARK                         _______ _______ _______ _____ _____    ______ ____
ROOT
ATOM      1  C   UNL     1       5.366   4.847  18.643  0.00  0.00    +0.000 A 
ATOM      2  N   UNL     1       4.301   5.312  18.014  0.00  0.00    +0.000 NA
ATOM      3  C   UNL     1       3.330   4.380  18.297  0.00  0.00    +0.000 A 
ATOM      4  C   UNL     1       1.967   4.335  17.972  0.00  0.00    +0.000 A 
ATOM      5  C   UNL     1       1.225   3.221  18.394  0.00  0.00    +0.000 A 
ATOM      6  C   UNL     1       1.824   2.179  19.113  0.00  0.00    +0.000 A 
ATOM      7  C   UNL     1       3.182   2.216  19.454  0.00  0.00    +0.000 A 
ATOM      8  C   UNL     1       3.878   3.341  19.032  0.00  0.00    +0.000 A 
ATOM      9  O   UNL     1       5.193   3.636  19.256  0.00  0.00    +0.000 OA
ENDROOT
BRANCH   1  10
ATOM     10  C   UNL     1       6.709   5.455  18.714  0.00  0.00    +0.000 C 
BRANCH  10  12
ATOM     11  O   UNL     1       8.096   4.233  17.191  0.00  0.00    +0.000 OA
ATOM     12  C   UNL     1       7.465   5.257  17.428  0.00  0.00    +0.000 C 
BRANCH  12  13
ATOM     13  O   UNL     1       7.501   6.310  16.578  0.00  0.00    +0.000 OA
ATOM     14  H   UNL     1       6.932   6.230  15.783  0.00  0.00    +0.000 HD
ENDBRANCH  12  13
ENDBRANCH  10  12
ENDBRANCH   1  10
TORSDOF 3
ENDMDL
MODEL 8
REMARK VINA RESULT:      -5.9      1.330      1.362
REMARK  Name = 
REMARK  3 active torsions:
REMARK  status: ('A' for Active; 'I' for Inactive)
REMARK    1  A    between atoms: C_2  and  O_3
REMARK    2  A    between atoms: C_2  and  C_4
REMARK    3  A    between atoms: C_4  and  C_5
REMARK                            x       y       z     vdW  Elec       q    Type
REMARK                         _______ _______ _______ _____ _____    ______ ____
ROOT
ATOM      1  C   UNL     1       5.039   4.746  18.474  0.00  0.00    +0.000 A 
ATOM      2  N   UNL     1       5.143   3.656  19.212  0.00  0.00    +0.000 NA
ATOM      3  C   UNL     1       3.899   3.540  19.787  0.00  0.00    +0.000 A 
ATOM      4  C   UNL     1       3.355   2.557  20.626  0.00  0.00    +0.000 A 
ATOM      5  C   UNL     1       2.037   2.731  21.077  0.00  0.00    +0.000 A 
ATOM      6  C   UNL     1       1.285   3.854  20.707  0.00  0.00    +0.000 A 
ATOM      7  C   UNL     1       1.812   4.838  19.861  0.00  0.00    +0.000 A 
ATOM      8  C   UNL     1       3.113   4.622  19.425  0.00  0.00    +0.000 A 
ATOM      9  O   UNL     1       3.845   5.405  18.579  0.00  0.00    +0.000 OA
ENDROOT
BRANCH   1  10
ATOM     10  C   UNL     1       6.069   5.347  17.601  0.00  0.00    +0.000 C 
BRANCH  10  12
ATOM     11  O   UNL     1       8.126   4.192  17.186  0.00  0.00    +0.000 OA
ATOM     12  C   UNL     1       7.443   4.852  17.962  0.00  0.00    +0.000 C 
BRANCH  12  13
ATOM     13  O   UNL     1       7.856   5.083  19.230  0.00  0.00    +0.000 OA
ATOM     14  H   UNL     1       8.800   4.884  19.409  0.00  0.00    +0.000 HD
ENDBRANCH  12  13
ENDBRANCH  10  12
ENDBRANCH   1  10
TORSDOF 3
ENDMDL
MODEL 9
REMARK VINA RESULT:      -5.9      1.471      1.898
REMARK  Name = 
REMARK  3 active torsions:
REMARK  status: ('A' for Active; 'I' for Inactive)
REMARK    1  A    between atoms: C_2  and  O_3
REMARK    2  A    between atoms: C_2  and  C_4
REMARK    3  A    between atoms: C_4  and  C_5
REMARK                            x       y       z     vdW  Elec       q    Type
REMARK                         _______ _______ _______ _____ _____    ______ ____
ROOT
ATOM      1  C   UNL     1       5.212   4.699  18.668  0.00  0.00    +0.000 A 
ATOM      2  N   UNL     1       4.061   5.275  18.372  0.00  0.00    +0.000 NA
ATOM      3  C   UNL     1       3.149   4.575  19.126  0.00  0.00    +0.000 A 
ATOM      4  C   UNL     1       1.768   4.742  19.300  0.00  0.00    +0.000 A 
ATOM      5  C   UNL     1       1.094   3.837  20.136  0.00  0.00    +0.000 A 
ATOM      6  C   UNL     1       1.775   2.792  20.774  0.00  0.00    +0.000 A 
ATOM      7  C   UNL     1       3.156   2.620  20.617  0.00  0.00    +0.000 A 
ATOM      8  C   UNL     1       3.789   3.544  19.796  0.00  0.00    +0.000 A 
ATOM      9  O   UNL     1       5.120   3.618  19.502  0.00  0.00    +0.000 OA
ENDROOT
BRANCH   1  10
ATOM     10  C   UNL     1       6.555   5.056  18.169  0.00  0.00    +0.000 C 
BRANCH  10  12
ATOM     11  O   UNL     1       7.926   4.495  16.287  0.00  0.00    +0.000 OA
ATOM     12  C   UNL     1       6.866   4.340  16.882  0.00  0.00    +0.000 C 
BRANCH  12  13
ATOM     13  O   UNL     1       5.873   3.586  16.354  0.00  0.00    +0.000 OA
ATOM     14  H   UNL     1       4.964   3.919  16.508  0.00  0.00    +0.000 HD
ENDBRANCH  12  13
ENDBRANCH  10  12
ENDBRANCH   1  10
TORSDOF 3
ENDMDL
