MODEL 1
REMARK VINA RESULT:      -6.9      0.000      0.000
REMARK  Name = 
REMARK  1 active torsions:
REMARK  status: ('A' for Active; 'I' for Inactive)
REMARK    1  A    between atoms: C_7  and  C_8
REMARK                            x       y       z     vdW  Elec       q    Type
REMARK                         _______ _______ _______ _____ _____    ______ ____
ROOT
ATOM      1  F   UNL     1       5.897   3.045  15.674  0.00  0.00    +0.000 F 
ATOM      2  C   UNL     1       5.335   4.178  16.115  0.00  0.00    +0.000 A 
ATOM      3  C   UNL     1       5.774   5.394  15.613  0.00  0.00    +0.000 A 
ATOM      4  C   UNL     1       5.198   6.589  16.064  0.00  0.00    +0.000 A 
ATOM      5  C   UNL     1       4.178   6.550  17.040  0.00  0.00    +0.000 A 
ATOM      6  N   UNL     1       3.529   7.648  17.592  0.00  0.00    +0.000 NA
ATOM      7  C   UNL     1       2.669   7.239  18.503  0.00  0.00    +0.000 A 
ATOM      8  S   UNL     1       2.546   5.539  18.709  0.00  0.00    +0.000 S 
ATOM      9  C   UNL     1       3.768   5.305  17.527  0.00  0.00    +0.000 A 
ATOM     10  C   UNL     1       4.327   4.101  17.071  0.00  0.00    +0.000 A 
ENDROOT
BRANCH   7  11
ATOM     11  C   UNL     1       1.854   8.180  19.342  0.00  0.00    +0.000 A 
ATOM     12  C   UNL     1       1.476   7.966  20.663  0.00  0.00    +0.000 A 
ATOM     13  N   UNL     1       0.728   9.059  20.973  0.00  0.00    +0.000 N 
ATOM     14  N   UNL     1       0.075   9.432  22.099  0.00  0.00    +0.000 NA
ATOM     15  C   UNL     1      -0.482  10.572  21.801  0.00  0.00    +0.000 A 
ATOM     16 BR   UNL     1      -1.500  11.481  23.055  0.00  0.00    +0.000 Br
ATOM     17  S   UNL     1      -0.252  11.244  20.179  0.00  0.00    +0.000 S 
ATOM     18  C   UNL     1       0.695   9.853  19.874  0.00  0.00    +0.000 A 
ATOM     19  N   UNL     1       1.359   9.387  18.860  0.00  0.00    +0.000 NA
ENDBRANCH   7  11
TORSDOF 1
ENDMDL
MODEL 2
REMARK VINA RESULT:      -6.6      4.633      7.932
REMARK  Name = 
REMARK  1 active torsions:
REMARK  status: ('A' for Active; 'I' for Inactive)
REMARK    1  A    between atoms: C_7  and  C_8
REMARK                            x       y       z     vdW  Elec       q    Type
REMARK                         _______ _______ _______ _____ _____    ______ ____
ROOT
ATOM      1  F   UNL     1      -1.539  11.944  22.183  0.00  0.00    +0.000 F 
ATOM      2  C   UNL     1      -0.753  10.933  21.789  0.00  0.00    +0.000 A 
ATOM      3  C   UNL     1      -0.372   9.969  22.712  0.00  0.00    +0.000 A 
ATOM      4  C   UNL     1       0.450   8.906  22.316  0.00  0.00    +0.000 A 
ATOM      5  C   UNL     1       0.899   8.826  20.980  0.00  0.00    +0.000 A 
ATOM      6  N   UNL     1       1.728   7.844  20.450  0.00  0.00    +0.000 NA
ATOM      7  C   UNL     1       1.976   8.114  19.184  0.00  0.00    +0.000 A 
ATOM      8  S   UNL     1       1.196   9.503  18.546  0.00  0.00    +0.000 S 
ATOM      9  C   UNL     1       0.499   9.820  20.082  0.00  0.00    +0.000 A 
ATOM     10  C   UNL     1      -0.336  10.882  20.462  0.00  0.00    +0.000 A 
ENDROOT
BRANCH   7  11
ATOM     11  C   UNL     1       2.899   7.287  18.336  0.00  0.00    +0.000 A 
ATOM     12  C   UNL     1       3.758   7.779  17.360  0.00  0.00    +0.000 A 
ATOM     13  N   UNL     1       4.346   6.665  16.848  0.00  0.00    +0.000 N 
ATOM     14  N   UNL     1       5.264   6.482  15.869  0.00  0.00    +0.000 NA
ATOM     15  C   UNL     1       5.435   5.191  15.807  0.00  0.00    +0.000 A 
ATOM     16 BR   UNL     1       6.622   4.455  14.588  0.00  0.00    +0.000 Br
ATOM     17  S   UNL     1       4.519   4.148  16.905  0.00  0.00    +0.000 S 
ATOM     18  C   UNL     1       3.842   5.596  17.513  0.00  0.00    +0.000 A 
ATOM     19  N   UNL     1       2.972   5.901  18.428  0.00  0.00    +0.000 NA
ENDBRANCH   7  11
TORSDOF 1
ENDMDL
MODEL 3
REMARK VINA RESULT:      -6.5      2.248      2.962
REMARK  Name = 
REMARK  1 active torsions:
REMARK  status: ('A' for Active; 'I' for Inactive)
REMARK    1  A    between atoms: C_7  and  C_8
REMARK                            x       y       z     vdW  Elec       q    Type
REMARK                         _______ _______ _______ _____ _____    ______ ____
ROOT
ATOM      1  F   UNL     1       3.626   1.323  17.879  0.00  0.00    +0.000 F 
ATOM      2  C   UNL     1       3.120   2.356  18.566  0.00  0.00    +0.000 A 
ATOM      3  C   UNL     1       2.367   2.109  19.705  0.00  0.00    +0.000 A 
ATOM      4  C   UNL     1       1.830   3.178  20.435  0.00  0.00    +0.000 A 
ATOM      5  C   UNL     1       2.046   4.504  20.001  0.00  0.00    +0.000 A 
ATOM      6  N   UNL     1       1.564   5.656  20.610  0.00  0.00    +0.000 NA
ATOM      7  C   UNL     1       1.923   6.709  19.905  0.00  0.00    +0.000 A 
ATOM      8  S   UNL     1       2.894   6.394  18.525  0.00  0.00    +0.000 S 
ATOM      9  C   UNL     1       2.804   4.710  18.844  0.00  0.00    +0.000 A 
ATOM     10  C   UNL     1       3.360   3.649  18.113  0.00  0.00    +0.000 A 
ENDROOT
BRANCH   7  11
ATOM     11  C   UNL     1       1.502   8.109  20.250  0.00  0.00    +0.000 A 
ATOM     12  C   UNL     1       1.126   8.552  21.512  0.00  0.00    +0.000 A 
ATOM     13  N   UNL     1       0.799   9.858  21.320  0.00  0.00    +0.000 N 
ATOM     14  N   UNL     1       0.352  10.823  22.158  0.00  0.00    +0.000 NA
ATOM     15  C   UNL     1       0.196  11.875  21.404  0.00  0.00    +0.000 A 
ATOM     16 BR   UNL     1      -0.411  13.471  22.126  0.00  0.00    +0.000 Br
ATOM     17  S   UNL     1       0.573  11.761  19.678  0.00  0.00    +0.000 S 
ATOM     18  C   UNL     1       0.989  10.135  20.006  0.00  0.00    +0.000 A 
ATOM     19  N   UNL     1       1.420   9.128  19.307  0.00  0.00    +0.000 NA
ENDBRANCH   7  11
TORSDOF 1
ENDMDL
MODEL 4
REMARK VINA RESULT:      -6.5      1.561      2.094
REMARK  Name = 
REMARK  1 active torsions:
REMARK  status: ('A' for Active; 'I' for Inactive)
REMARK    1  A    between atoms: C_7  and  C_8
REMARK                            x       y       z     vdW  Elec       q    Type
REMARK                         _______ _______ _______ _____ _____    ______ ____
ROOT
ATOM      1  F   UNL     1       5.721   3.915  15.645  0.00  0.00    +0.000 F 
ATOM      2  C   UNL     1       4.990   4.418  16.648  0.00  0.00    +0.000 A 
ATOM      3  C   UNL     1       4.650   3.599  17.716  0.00  0.00    +0.000 A 
ATOM      4  C   UNL     1       3.885   4.108  18.774  0.00  0.00    +0.000 A 
ATOM      5  C   UNL     1       3.451   5.451  18.743  0.00  0.00    +0.000 A 
ATOM      6  N   UNL     1       2.677   6.086  19.707  0.00  0.00    +0.000 NA
ATOM      7  C   UNL     1       2.427   7.322  19.327  0.00  0.00    +0.000 A 
ATOM      8  S   UNL     1       3.141   7.810  17.844  0.00  0.00    +0.000 S 
ATOM      9  C   UNL     1       3.809   6.242  17.647  0.00  0.00    +0.000 A 
ATOM     10  C   UNL     1       4.587   5.748  16.589  0.00  0.00    +0.000 A 
ENDROOT
BRANCH   7  11
ATOM     11  C   UNL     1       1.553   8.260  20.109  0.00  0.00    +0.000 A 
ATOM     12  C   UNL     1       0.974   9.424  19.620  0.00  0.00    +0.000 A 
ATOM     13  N   UNL     1       0.319   9.943  20.692  0.00  0.00    +0.000 N 
ATOM     14  N   UNL     1      -0.423  11.064  20.858  0.00  0.00    +0.000 NA
ATOM     15  C   UNL     1      -0.784  11.045  22.111  0.00  0.00    +0.000 A 
ATOM     16 BR   UNL     1      -1.832  12.404  22.811  0.00  0.00    +0.000 Br
ATOM     17  S   UNL     1      -0.259   9.701  23.136  0.00  0.00    +0.000 S 
ATOM     18  C   UNL     1       0.518   9.101  21.737  0.00  0.00    +0.000 A 
ATOM     19  N   UNL     1       1.245   8.063  21.451  0.00  0.00    +0.000 NA
ENDBRANCH   7  11
TORSDOF 1
ENDMDL
MODEL 5
REMARK VINA RESULT:      -6.4      4.687      7.805
REMARK  Name = 
REMARK  1 active torsions:
REMARK  status: ('A' for Active; 'I' for Inactive)
REMARK    1  A    between atoms: C_7  and  C_8
REMARK                            x       y       z     vdW  Elec       q    Type
REMARK                         _______ _______ _______ _____ _____    ______ ____
ROOT
ATOM      1  F   UNL     1      -1.464  10.438  23.290  0.00  0.00    +0.000 F 
ATOM      2  C   UNL     1      -0.703  10.123  22.233  0.00  0.00    +0.000 A 
ATOM      3  C   UNL     1      -0.666  10.982  21.144  0.00  0.00    +0.000 A 
ATOM      4  C   UNL     1       0.123  10.668  20.030  0.00  0.00    +0.000 A 
ATOM      5  C   UNL     1       0.869   9.469  20.014  0.00  0.00    +0.000 A 
ATOM      6  N   UNL     1       1.678   9.020  18.978  0.00  0.00    +0.000 NA
ATOM      7  C   UNL     1       2.182   7.843  19.292  0.00  0.00    +0.000 A 
ATOM      8  S   UNL     1       1.772   7.241  20.845  0.00  0.00    +0.000 S 
ATOM      9  C   UNL     1       0.800   8.627  21.129  0.00  0.00    +0.000 A 
ATOM     10  C   UNL     1       0.025   8.938  22.257  0.00  0.00    +0.000 A 
ENDROOT
BRANCH   7  11
ATOM     11  C   UNL     1       3.045   7.045  18.356  0.00  0.00    +0.000 A 
ATOM     12  C   UNL     1       3.826   7.568  17.333  0.00  0.00    +0.000 A 
ATOM     13  N   UNL     1       4.381   6.472  16.749  0.00  0.00    +0.000 N 
ATOM     14  N   UNL     1       5.225   6.322  15.701  0.00  0.00    +0.000 NA
ATOM     15  C   UNL     1       5.399   5.034  15.593  0.00  0.00    +0.000 A 
ATOM     16 BR   UNL     1       6.496   4.338  14.271  0.00  0.00    +0.000 Br
ATOM     17  S   UNL     1       4.572   3.957  16.728  0.00  0.00    +0.000 S 
ATOM     18  C   UNL     1       3.934   5.383  17.422  0.00  0.00    +0.000 A 
ATOM     19  N   UNL     1       3.132   5.658  18.406  0.00  0.00    +0.000 NA
ENDBRANCH   7  11
TORSDOF 1
ENDMDL
MODEL 6
REMARK VINA RESULT:      -6.4      1.220      1.426
REMARK  Name = 
REMARK  1 active torsions:
REMARK  status: ('A' for Active; 'I' for Inactive)
REMARK    1  A    between atoms: C_7  and  C_8
REMARK                            x       y       z     vdW  Elec       q    Type
REMARK                         _______ _______ _______ _____ _____    ______ ____
ROOT
ATOM      1  F   UNL     1       5.342   2.817  16.265  0.00  0.00    +0.000 F 
ATOM      2  C   UNL     1       4.848   3.981  16.710  0.00  0.00    +0.000 A 
ATOM      3  C   UNL     1       5.376   5.170  16.229  0.00  0.00    +0.000 A 
ATOM      4  C   UNL     1       4.873   6.396  16.683  0.00  0.00    +0.000 A 
ATOM      5  C   UNL     1       3.835   6.416  17.641  0.00  0.00    +0.000 A 
ATOM      6  N   UNL     1       3.251   7.549  18.194  0.00  0.00    +0.000 NA
ATOM      7  C   UNL     1       2.350   7.189  19.086  0.00  0.00    +0.000 A 
ATOM      8  S   UNL     1       2.111   5.500  19.270  0.00  0.00    +0.000 S 
ATOM      9  C   UNL     1       3.335   5.196  18.107  0.00  0.00    +0.000 A 
ATOM     10  C   UNL     1       3.821   3.962  17.648  0.00  0.00    +0.000 A 
ENDROOT
BRANCH   7  11
ATOM     11  C   UNL     1       1.584   8.174  19.921  0.00  0.00    +0.000 A 
ATOM     12  C   UNL     1       1.197   9.447  19.518  0.00  0.00    +0.000 A 
ATOM     13  N   UNL     1       0.576   9.964  20.612  0.00  0.00    +0.000 N 
ATOM     14  N   UNL     1      -0.008  11.162  20.853  0.00  0.00    +0.000 NA
ATOM     15  C   UNL     1      -0.421  11.091  22.087  0.00  0.00    +0.000 A 
ATOM     16 BR   UNL     1      -1.296  12.524  22.872  0.00  0.00    +0.000 Br
ATOM     17  S   UNL     1      -0.135   9.606  23.006  0.00  0.00    +0.000 S 
ATOM     18  C   UNL     1       0.609   9.018  21.584  0.00  0.00    +0.000 A 
ATOM     19  N   UNL     1       1.195   7.914  21.230  0.00  0.00    +0.000 NA
ENDBRANCH   7  11
TORSDOF 1
ENDMDL
MODEL 7
REMARK VINA RESULT:      -6.4      1.048      1.593
REMARK  Name = 
REMARK  1 active torsions:
REMARK  status: ('A' for Active; 'I' for Inactive)
REMARK    1  A    between atoms: C_7  and  C_8
REMARK                            x       y       z     vdW  Elec       q    Type
REMARK                         _______ _______ _______ _____ _____    ______ ____
ROOT
ATOM      1  F   UNL     1       5.829   3.360  15.537  0.00  0.00    +0.000 F 
ATOM      2  C   UNL     1       5.003   3.930  16.424  0.00  0.00    +0.000 A 
ATOM      3  C   UNL     1       4.246   3.123  17.262  0.00  0.00    +0.000 A 
ATOM      4  C   UNL     1       3.376   3.702  18.195  0.00  0.00    +0.000 A 
ATOM      5  C   UNL     1       3.263   5.107  18.270  0.00  0.00    +0.000 A 
ATOM      6  N   UNL     1       2.434   5.818  19.129  0.00  0.00    +0.000 NA
ATOM      7  C   UNL     1       2.555   7.109  18.890  0.00  0.00    +0.000 A 
ATOM      8  S   UNL     1       3.695   7.544  17.683  0.00  0.00    +0.000 S 
ATOM      9  C   UNL     1       4.037   5.885  17.404  0.00  0.00    +0.000 A 
ATOM     10  C   UNL     1       4.923   5.318  16.476  0.00  0.00    +0.000 A 
ENDROOT
BRANCH   7  11
ATOM     11  C   UNL     1       1.741   8.153  19.597  0.00  0.00    +0.000 A 
ATOM     12  C   UNL     1       1.436   8.160  20.953  0.00  0.00    +0.000 A 
ATOM     13  N   UNL     1       0.658   9.264  21.111  0.00  0.00    +0.000 N 
ATOM     14  N   UNL     1       0.044   9.806  22.190  0.00  0.00    +0.000 NA
ATOM     15  C   UNL     1      -0.575  10.857  21.730  0.00  0.00    +0.000 A 
ATOM     16 BR   UNL     1      -1.571  11.935  22.863  0.00  0.00    +0.000 Br
ATOM     17  S   UNL     1      -0.453  11.243  20.007  0.00  0.00    +0.000 S 
ATOM     18  C   UNL     1       0.537   9.854  19.895  0.00  0.00    +0.000 A 
ATOM     19  N   UNL     1       1.172   9.240  18.942  0.00  0.00    +0.000 NA
ENDBRANCH   7  11
TORSDOF 1
ENDMDL
MODEL 8
REMARK VINA RESULT:      -6.4      1.849      2.601
REMARK  Name = 
REMARK  1 active torsions:
REMARK  status: ('A' for Active; 'I' for Inactive)
REMARK    1  A    between atoms: C_7  and  C_8
REMARK                            x       y       z     vdW  Elec       q    Type
REMARK                         _______ _______ _______ _____ _____    ______ ____
ROOT
ATOM      1  F   UNL     1       4.410   3.388  17.112  0.00  0.00    +0.000 F 
ATOM      2  C   UNL     1       3.785   4.174  17.998  0.00  0.00    +0.000 A 
ATOM      3  C   UNL     1       3.402   3.646  19.223  0.00  0.00    +0.000 A 
ATOM      4  C   UNL     1       2.746   4.454  20.161  0.00  0.00    +0.000 A 
ATOM      5  C   UNL     1       2.466   5.803  19.851  0.00  0.00    +0.000 A 
ATOM      6  N   UNL     1       1.811   6.714  20.670  0.00  0.00    +0.000 NA
ATOM      7  C   UNL     1       1.685   7.863  20.038  0.00  0.00    +0.000 A 
ATOM      8  S   UNL     1       2.383   7.938  18.472  0.00  0.00    +0.000 S 
ATOM      9  C   UNL     1       2.862   6.295  18.603  0.00  0.00    +0.000 A 
ATOM     10  C   UNL     1       3.532   5.500  17.662  0.00  0.00    +0.000 A 
ENDROOT
BRANCH   7  11
ATOM     11  C   UNL     1       0.957   9.042  20.617  0.00  0.00    +0.000 A 
ATOM     12  C   UNL     1       0.787   9.301  21.972  0.00  0.00    +0.000 A 
ATOM     13  N   UNL     1       0.042  10.439  21.999  0.00  0.00    +0.000 N 
ATOM     14  N   UNL     1      -0.456  11.183  23.015  0.00  0.00    +0.000 NA
ATOM     15  C   UNL     1      -1.104  12.153  22.433  0.00  0.00    +0.000 A 
ATOM     16 BR   UNL     1      -1.969  13.446  23.440  0.00  0.00    +0.000 Br
ATOM     17  S   UNL     1      -1.145  12.220  20.665  0.00  0.00    +0.000 S 
ATOM     18  C   UNL     1      -0.189  10.804  20.714  0.00  0.00    +0.000 A 
ATOM     19  N   UNL     1       0.341  10.011  19.832  0.00  0.00    +0.000 NA
ENDBRANCH   7  11
TORSDOF 1
ENDMDL
MODEL 9
REMARK VINA RESULT:      -6.2      4.640      7.905
REMARK  Name = 
REMARK  1 active torsions:
REMARK  status: ('A' for Active; 'I' for Inactive)
REMARK    1  A    between atoms: C_7  and  C_8
REMARK                            x       y       z     vdW  Elec       q    Type
REMARK                         _______ _______ _______ _____ _____    ______ ____
ROOT
ATOM      1  F   UNL     1      -1.889  11.627  23.365  0.00  0.00    +0.000 F 
ATOM      2  C   UNL     1      -1.193  11.112  22.343  0.00  0.00    +0.000 A 
ATOM      3  C   UNL     1      -1.334  11.666  21.078  0.00  0.00    +0.000 A 
ATOM      4  C   UNL     1      -0.615  11.139  19.998  0.00  0.00    +0.000 A 
ATOM      5  C   UNL     1       0.244  10.035  20.198  0.00  0.00    +0.000 A 
ATOM      6  N   UNL     1       1.003   9.399  19.223  0.00  0.00    +0.000 NA
ATOM      7  C   UNL     1       1.646   8.382  19.761  0.00  0.00    +0.000 A 
ATOM      8  S   UNL     1       1.430   8.166  21.449  0.00  0.00    +0.000 S 
ATOM      9  C   UNL     1       0.353   9.502  21.485  0.00  0.00    +0.000 A 
ATOM     10  C   UNL     1      -0.351  10.030  22.578  0.00  0.00    +0.000 A 
ENDROOT
BRANCH   7  11
ATOM     11  C   UNL     1       2.501   7.440  18.964  0.00  0.00    +0.000 A 
ATOM     12  C   UNL     1       3.286   7.788  17.871  0.00  0.00    +0.000 A 
ATOM     13  N   UNL     1       3.832   6.610  17.468  0.00  0.00    +0.000 N 
ATOM     14  N   UNL     1       4.673   6.288  16.456  0.00  0.00    +0.000 NA
ATOM     15  C   UNL     1       4.838   4.999  16.554  0.00  0.00    +0.000 A 
ATOM     16 BR   UNL     1       5.928   4.094  15.359  0.00  0.00    +0.000 Br
ATOM     17  S   UNL     1       4.004   4.121  17.845  0.00  0.00    +0.000 S 
ATOM     18  C   UNL     1       3.377   5.644  18.304  0.00  0.00    +0.000 A 
ATOM     19  N   UNL     1       2.579   6.078  19.233  0.00  0.00    +0.000 NA
ENDBRANCH   7  11
TORSDOF 1
ENDMDL
