MODEL 1
REMARK VINA RESULT:      -7.0      0.000      0.000
REMARK  Name = 
REMARK  3 active torsions:
REMARK  status: ('A' for Active; 'I' for Inactive)
REMARK    1  A    between atoms: C_1  and  C_2
REMARK    2  A    between atoms: N_4  and  C_5
REMARK    3  A    between atoms: C_18  and  C_19
REMARK                            x       y       z     vdW  Elec       q    Type
REMARK                         _______ _______ _______ _____ _____    ______ ____
ROOT
ATOM      1  C   UNL     1      11.477  14.186  18.303  0.00  0.00    +0.000 A 
ATOM      2  C   UNL     1      10.994  13.333  17.316  0.00  0.00    +0.000 A 
ATOM      3  C   UNL     1       9.660  12.948  17.412  0.00  0.00    +0.000 A 
ATOM      4  C   UNL     1       8.946  13.372  18.527  0.00  0.00    +0.000 A 
ATOM      5  C   UNL     1       9.743  13.352  19.679  0.00  0.00    +0.000 A 
ATOM      6  C   UNL     1      10.979  13.993  19.587  0.00  0.00    +0.000 A 
ATOM      7  N   UNL     1       9.575  12.256  20.558  0.00  0.00    +0.000 N 
ATOM      8  C   UNL     1       9.260  12.546  21.861  0.00  0.00    +0.000 C 
ATOM      9  O   UNL     1       9.391  13.664  22.351  0.00  0.00    +0.000 OA
ATOM     10  N   UNL     1       8.682  11.489  22.546  0.00  0.00    +0.000 N 
ATOM     11  C   UNL     1       7.697  11.863  23.490  0.00  0.00    +0.000 A 
ATOM     12  C   UNL     1       7.719  11.490  24.808  0.00  0.00    +0.000 A 
ATOM     13  N   UNL     1       6.901  12.067  25.714  0.00  0.00    +0.000 NA
ATOM     14  C   UNL     1       6.075  13.085  25.254  0.00  0.00    +0.000 A 
ATOM     15  C   UNL     1       6.020  13.416  23.920  0.00  0.00    +0.000 A 
ATOM     16  N   UNL     1       6.807  12.756  23.050  0.00  0.00    +0.000 NA
ATOM     17  O   UNL     1       5.237  14.485  23.419  0.00  0.00    +0.000 OA
ATOM     18  C   UNL     1       5.632  14.618  22.050  0.00  0.00    +0.000 C 
ATOM     19  C   UNL     1       5.163  15.667  21.028  0.00  0.00    +0.000 C 
ATOM     20  C   UNL     1       5.856  15.108  19.749  0.00  0.00    +0.000 C 
ATOM     21  C   UNL     1       6.282  15.899  18.524  0.00  0.00    +0.000 C 
ATOM     22  C   UNL     1       7.251  14.983  17.688  0.00  0.00    +0.000 C 
ATOM     23  O   UNL     1       8.478  14.755  18.403  0.00  0.00    +0.000 OA
ATOM     24  H   UNL     1      10.304  11.564  20.498  0.00  0.00    +0.000 HD
ATOM     25  H   UNL     1       9.285  10.697  22.737  0.00  0.00    +0.000 HD
ENDROOT
BRANCH   1  29
ATOM     26  C   UNL     1      11.760  17.813  17.707  0.00  0.00    +0.000 C 
ATOM     27  C   UNL     1      11.374  16.418  17.292  0.00  0.00    +0.000 C 
ATOM     28  O   UNL     1      10.495  16.245  16.456  0.00  0.00    +0.000 OA
ATOM     29  N   UNL     1      12.078  15.415  17.951  0.00  0.00    +0.000 N 
ATOM     30  H   UNL     1      12.823  15.708  18.579  0.00  0.00    +0.000 HD
ENDBRANCH   1  29
BRANCH  14  31
ATOM     31  C   UNL     1       5.318  13.749  26.225  0.00  0.00    +0.000 C 
ATOM     32  N   UNL     1       4.660  14.295  27.025  0.00  0.00    +0.000 NA
ENDBRANCH  14  31
TORSDOF 2
ENDMDL
MODEL 2
REMARK VINA RESULT:      -6.4      8.977     10.799
REMARK  Name = 
REMARK  3 active torsions:
REMARK  status: ('A' for Active; 'I' for Inactive)
REMARK    1  A    between atoms: C_1  and  C_2
REMARK    2  A    between atoms: N_4  and  C_5
REMARK    3  A    between atoms: C_18  and  C_19
REMARK                            x       y       z     vdW  Elec       q    Type
REMARK                         _______ _______ _______ _____ _____    ______ ____
ROOT
ATOM      1  C   UNL     1       1.675  12.011  18.814  0.00  0.00    +0.000 A 
ATOM      2  C   UNL     1       1.726  10.630  18.655  0.00  0.00    +0.000 A 
ATOM      3  C   UNL     1       0.523   9.939  18.750  0.00  0.00    +0.000 A 
ATOM      4  C   UNL     1      -0.614  10.667  19.084  0.00  0.00    +0.000 A 
ATOM      5  C   UNL     1      -0.324  11.659  20.029  0.00  0.00    +0.000 A 
ATOM      6  C   UNL     1       0.754  12.495  19.738  0.00  0.00    +0.000 A 
ATOM      7  N   UNL     1      -0.665  11.385  21.374  0.00  0.00    +0.000 N 
ATOM      8  C   UNL     1      -1.491  12.282  22.002  0.00  0.00    +0.000 C 
ATOM      9  O   UNL     1      -1.710  13.409  21.571  0.00  0.00    +0.000 OA
ATOM     10  N   UNL     1      -2.138  11.764  23.113  0.00  0.00    +0.000 N 
ATOM     11  C   UNL     1      -3.450  12.253  23.315  0.00  0.00    +0.000 A 
ATOM     12  C   UNL     1      -3.884  12.822  24.484  0.00  0.00    +0.000 A 
ATOM     13  N   UNL     1      -5.057  13.488  24.546  0.00  0.00    +0.000 NA
ATOM     14  C   UNL     1      -5.773  13.608  23.362  0.00  0.00    +0.000 A 
ATOM     15  C   UNL     1      -5.357  12.988  22.207  0.00  0.00    +0.000 A 
ATOM     16  N   UNL     1      -4.216  12.275  22.221  0.00  0.00    +0.000 NA
ATOM     17  O   UNL     1      -6.026  13.134  20.966  0.00  0.00    +0.000 OA
ATOM     18  C   UNL     1      -5.159  12.518  20.008  0.00  0.00    +0.000 C 
ATOM     19  C   UNL     1      -5.339  12.440  18.483  0.00  0.00    +0.000 C 
ATOM     20  C   UNL     1      -4.140  11.509  18.131  0.00  0.00    +0.000 C 
ATOM     21  C   UNL     1      -3.390  11.450  16.811  0.00  0.00    +0.000 C 
ATOM     22  C   UNL     1      -2.060  10.648  17.063  0.00  0.00    +0.000 C 
ATOM     23  O   UNL     1      -1.181  11.379  17.936  0.00  0.00    +0.000 OA
ATOM     24  H   UNL     1       0.118  11.131  21.955  0.00  0.00    +0.000 HD
ATOM     25  H   UNL     1      -1.553  11.553  23.914  0.00  0.00    +0.000 HD
ENDROOT
BRANCH   1  29
ATOM     26  C   UNL     1       3.574  14.808  17.343  0.00  0.00    +0.000 C 
ATOM     27  C   UNL     1       2.361  14.229  18.020  0.00  0.00    +0.000 C 
ATOM     28  O   UNL     1       1.634  14.945  18.700  0.00  0.00    +0.000 OA
ATOM     29  N   UNL     1       2.193  12.863  17.812  0.00  0.00    +0.000 N 
ATOM     30  H   UNL     1       2.842  12.408  17.176  0.00  0.00    +0.000 HD
ENDBRANCH   1  29
BRANCH  14  31
ATOM     31  C   UNL     1      -6.926  14.398  23.419  0.00  0.00    +0.000 C 
ATOM     32  N   UNL     1      -7.906  15.038  23.452  0.00  0.00    +0.000 NA
ENDBRANCH  14  31
TORSDOF 2
ENDMDL
MODEL 3
REMARK VINA RESULT:      -6.2     10.113     13.467
REMARK  Name = 
REMARK  3 active torsions:
REMARK  status: ('A' for Active; 'I' for Inactive)
REMARK    1  A    between atoms: C_1  and  C_2
REMARK    2  A    between atoms: N_4  and  C_5
REMARK    3  A    between atoms: C_18  and  C_19
REMARK                            x       y       z     vdW  Elec       q    Type
REMARK                         _______ _______ _______ _____ _____    ______ ____
ROOT
ATOM      1  C   UNL     1      -7.227  11.854  20.325  0.00  0.00    +0.000 A 
ATOM      2  C   UNL     1      -7.650  12.317  19.083  0.00  0.00    +0.000 A 
ATOM      3  C   UNL     1      -6.664  12.576  18.136  0.00  0.00    +0.000 A 
ATOM      4  C   UNL     1      -5.338  12.438  18.532  0.00  0.00    +0.000 A 
ATOM      5  C   UNL     1      -5.151  12.883  19.847  0.00  0.00    +0.000 A 
ATOM      6  C   UNL     1      -6.029  12.373  20.805  0.00  0.00    +0.000 A 
ATOM      7  N   UNL     1      -4.587  14.170  20.016  0.00  0.00    +0.000 N 
ATOM      8  C   UNL     1      -3.445  14.255  20.771  0.00  0.00    +0.000 C 
ATOM      9  O   UNL     1      -3.062  13.356  21.513  0.00  0.00    +0.000 OA
ATOM     10  N   UNL     1      -2.707  15.405  20.542  0.00  0.00    +0.000 N 
ATOM     11  C   UNL     1      -1.305  15.234  20.624  0.00  0.00    +0.000 A 
ATOM     12  C   UNL     1      -0.488  15.987  21.427  0.00  0.00    +0.000 A 
ATOM     13  N   UNL     1       0.794  15.630  21.655  0.00  0.00    +0.000 NA
ATOM     14  C   UNL     1       1.226  14.443  21.077  0.00  0.00    +0.000 A 
ATOM     15  C   UNL     1       0.416  13.722  20.229  0.00  0.00    +0.000 A 
ATOM     16  N   UNL     1      -0.830  14.165  19.980  0.00  0.00    +0.000 NA
ATOM     17  O   UNL     1       0.797  12.479  19.667  0.00  0.00    +0.000 OA
ATOM     18  C   UNL     1      -0.391  11.980  19.043  0.00  0.00    +0.000 C 
ATOM     19  C   UNL     1      -0.592  10.631  18.333  0.00  0.00    +0.000 C 
ATOM     20  C   UNL     1      -2.030  10.847  17.773  0.00  0.00    +0.000 C 
ATOM     21  C   UNL     1      -3.055   9.771  17.456  0.00  0.00    +0.000 C 
ATOM     22  C   UNL     1      -4.446  10.486  17.281  0.00  0.00    +0.000 C 
ATOM     23  O   UNL     1      -4.894  11.041  18.530  0.00  0.00    +0.000 OA
ATOM     24  H   UNL     1      -5.253  14.882  20.269  0.00  0.00    +0.000 HD
ATOM     25  H   UNL     1      -3.126  16.275  20.852  0.00  0.00    +0.000 HD
ENDROOT
BRANCH   1  29
ATOM     26  C   UNL     1      -7.346   8.263  21.150  0.00  0.00    +0.000 C 
ATOM     27  C   UNL     1      -7.532   9.423  20.208  0.00  0.00    +0.000 C 
ATOM     28  O   UNL     1      -7.477   9.248  18.996  0.00  0.00    +0.000 OA
ATOM     29  N   UNL     1      -7.736  10.643  20.845  0.00  0.00    +0.000 N 
ATOM     30  H   UNL     1      -7.817  10.629  21.859  0.00  0.00    +0.000 HD
ENDBRANCH   1  29
BRANCH  14  31
ATOM     31  C   UNL     1       2.518  14.029  21.415  0.00  0.00    +0.000 C 
ATOM     32  N   UNL     1       3.611  13.697  21.676  0.00  0.00    +0.000 NA
ENDBRANCH  14  31
TORSDOF 2
ENDMDL
MODEL 4
REMARK VINA RESULT:      -6.2     12.347     13.466
REMARK  Name = 
REMARK  3 active torsions:
REMARK  status: ('A' for Active; 'I' for Inactive)
REMARK    1  A    between atoms: C_1  and  C_2
REMARK    2  A    between atoms: N_4  and  C_5
REMARK    3  A    between atoms: C_18  and  C_19
REMARK                            x       y       z     vdW  Elec       q    Type
REMARK                         _______ _______ _______ _____ _____    ______ ____
ROOT
ATOM      1  C   UNL     1      -4.890  11.375  17.816  0.00  0.00    +0.000 A 
ATOM      2  C   UNL     1      -6.249  11.092  17.895  0.00  0.00    +0.000 A 
ATOM      3  C   UNL     1      -7.035  11.969  18.637  0.00  0.00    +0.000 A 
ATOM      4  C   UNL     1      -6.390  13.000  19.310  0.00  0.00    +0.000 A 
ATOM      5  C   UNL     1      -5.163  12.575  19.837  0.00  0.00    +0.000 A 
ATOM      6  C   UNL     1      -4.303  11.921  18.954  0.00  0.00    +0.000 A 
ATOM      7  N   UNL     1      -5.128  12.270  21.218  0.00  0.00    +0.000 N 
ATOM      8  C   UNL     1      -4.208  12.943  21.981  0.00  0.00    +0.000 C 
ATOM      9  O   UNL     1      -3.262  13.559  21.503  0.00  0.00    +0.000 OA
ATOM     10  N   UNL     1      -4.503  12.950  23.335  0.00  0.00    +0.000 N 
ATOM     11  C   UNL     1      -4.142  14.138  24.013  0.00  0.00    +0.000 A 
ATOM     12  C   UNL     1      -3.353  14.172  25.133  0.00  0.00    +0.000 A 
ATOM     13  N   UNL     1      -2.839  15.332  25.595  0.00  0.00    +0.000 NA
ATOM     14  C   UNL     1      -3.110  16.476  24.855  0.00  0.00    +0.000 A 
ATOM     15  C   UNL     1      -3.947  16.442  23.763  0.00  0.00    +0.000 A 
ATOM     16  N   UNL     1      -4.489  15.268  23.391  0.00  0.00    +0.000 NA
ATOM     17  O   UNL     1      -4.201  17.572  22.948  0.00  0.00    +0.000 OA
ATOM     18  C   UNL     1      -4.929  17.059  21.827  0.00  0.00    +0.000 C 
ATOM     19  C   UNL     1      -5.411  17.822  20.582  0.00  0.00    +0.000 C 
ATOM     20  C   UNL     1      -6.249  16.699  19.901  0.00  0.00    +0.000 C 
ATOM     21  C   UNL     1      -6.547  16.559  18.417  0.00  0.00    +0.000 C 
ATOM     22  C   UNL     1      -7.093  15.101  18.186  0.00  0.00    +0.000 C 
ATOM     23  O   UNL     1      -6.064  14.126  18.431  0.00  0.00    +0.000 OA
ATOM     24  H   UNL     1      -5.130  11.283  21.423  0.00  0.00    +0.000 HD
ATOM     25  H   UNL     1      -4.433  12.059  23.814  0.00  0.00    +0.000 HD
ENDROOT
BRANCH   1  29
ATOM     26  C   UNL     1      -3.397  10.348  14.606  0.00  0.00    +0.000 C 
ATOM     27  C   UNL     1      -3.336  10.583  16.092  0.00  0.00    +0.000 C 
ATOM     28  O   UNL     1      -2.532   9.964  16.781  0.00  0.00    +0.000 OA
ATOM     29  N   UNL     1      -4.262  11.511  16.558  0.00  0.00    +0.000 N 
ATOM     30  H   UNL     1      -4.828  11.991  15.862  0.00  0.00    +0.000 HD
ENDBRANCH   1  29
BRANCH  14  31
ATOM     31  C   UNL     1      -2.477  17.648  25.281  0.00  0.00    +0.000 C 
ATOM     32  N   UNL     1      -1.966  18.631  25.660  0.00  0.00    +0.000 NA
ENDBRANCH  14  31
TORSDOF 2
ENDMDL
MODEL 5
REMARK VINA RESULT:      -6.1      7.347      9.609
REMARK  Name = 
REMARK  3 active torsions:
REMARK  status: ('A' for Active; 'I' for Inactive)
REMARK    1  A    between atoms: C_1  and  C_2
REMARK    2  A    between atoms: N_4  and  C_5
REMARK    3  A    between atoms: C_18  and  C_19
REMARK                            x       y       z     vdW  Elec       q    Type
REMARK                         _______ _______ _______ _____ _____    ______ ____
ROOT
ATOM      1  C   UNL     1       0.736   9.294  19.563  0.00  0.00    +0.000 A 
ATOM      2  C   UNL     1       0.205   9.697  18.342  0.00  0.00    +0.000 A 
ATOM      3  C   UNL     1      -0.063  11.053  18.187  0.00  0.00    +0.000 A 
ATOM      4  C   UNL     1       0.137  11.880  19.287  0.00  0.00    +0.000 A 
ATOM      5  C   UNL     1      -0.244  11.244  20.476  0.00  0.00    +0.000 A 
ATOM      6  C   UNL     1       0.279   9.968  20.691  0.00  0.00    +0.000 A 
ATOM      7  N   UNL     1      -1.503  11.596  21.019  0.00  0.00    +0.000 N 
ATOM      8  C   UNL     1      -1.516  12.060  22.309  0.00  0.00    +0.000 C 
ATOM      9  O   UNL     1      -0.573  11.924  23.082  0.00  0.00    +0.000 OA
ATOM     10  N   UNL     1      -2.650  12.790  22.629  0.00  0.00    +0.000 N 
ATOM     11  C   UNL     1      -2.430  13.864  23.522  0.00  0.00    +0.000 A 
ATOM     12  C   UNL     1      -3.119  14.040  24.694  0.00  0.00    +0.000 A 
ATOM     13  N   UNL     1      -2.710  14.932  25.621  0.00  0.00    +0.000 NA
ATOM     14  C   UNL     1      -1.536  15.623  25.350  0.00  0.00    +0.000 A 
ATOM     15  C   UNL     1      -0.881  15.480  24.149  0.00  0.00    +0.000 A 
ATOM     16  N   UNL     1      -1.375  14.630  23.231  0.00  0.00    +0.000 NA
ATOM     17  O   UNL     1       0.349  16.121  23.858  0.00  0.00    +0.000 OA
ATOM     18  C   UNL     1       0.779  15.541  22.622  0.00  0.00    +0.000 C 
ATOM     19  C   UNL     1       2.089  15.804  21.859  0.00  0.00    +0.000 C 
ATOM     20  C   UNL     1       1.801  14.986  20.565  0.00  0.00    +0.000 C 
ATOM     21  C   UNL     1       2.828  14.353  19.640  0.00  0.00    +0.000 C 
ATOM     22  C   UNL     1       2.060  13.343  18.710  0.00  0.00    +0.000 C 
ATOM     23  O   UNL     1       1.545  12.237  19.473  0.00  0.00    +0.000 OA
ATOM     24  H   UNL     1      -2.224  10.911  20.863  0.00  0.00    +0.000 HD
ATOM     25  H   UNL     1      -3.519  12.268  22.676  0.00  0.00    +0.000 HD
ENDROOT
BRANCH   1  29
ATOM     26  C   UNL     1       3.022   6.413  19.308  0.00  0.00    +0.000 C 
ATOM     27  C   UNL     1       2.011   7.253  20.041  0.00  0.00    +0.000 C 
ATOM     28  O   UNL     1       1.315   6.755  20.919  0.00  0.00    +0.000 OA
ATOM     29  N   UNL     1       1.951   8.575  19.609  0.00  0.00    +0.000 N 
ATOM     30  H   UNL     1       2.631   8.864  18.910  0.00  0.00    +0.000 HD
ENDBRANCH   1  29
BRANCH  14  31
ATOM     31  C   UNL     1      -1.065  16.457  26.370  0.00  0.00    +0.000 C 
ATOM     32  N   UNL     1      -0.647  17.137  27.227  0.00  0.00    +0.000 NA
ENDBRANCH  14  31
TORSDOF 2
ENDMDL
MODEL 6
REMARK VINA RESULT:      -6.0      8.352     12.261
REMARK  Name = 
REMARK  3 active torsions:
REMARK  status: ('A' for Active; 'I' for Inactive)
REMARK    1  A    between atoms: C_1  and  C_2
REMARK    2  A    between atoms: N_4  and  C_5
REMARK    3  A    between atoms: C_18  and  C_19
REMARK                            x       y       z     vdW  Elec       q    Type
REMARK                         _______ _______ _______ _____ _____    ______ ____
ROOT
ATOM      1  C   UNL     1      -4.696  15.489  23.752  0.00  0.00    +0.000 A 
ATOM      2  C   UNL     1      -4.005  16.020  24.836  0.00  0.00    +0.000 A 
ATOM      3  C   UNL     1      -2.615  15.994  24.773  0.00  0.00    +0.000 A 
ATOM      4  C   UNL     1      -2.031  15.362  23.680  0.00  0.00    +0.000 A 
ATOM      5  C   UNL     1      -2.751  14.218  23.310  0.00  0.00    +0.000 A 
ATOM      6  C   UNL     1      -4.125  14.380  23.136  0.00  0.00    +0.000 A 
ATOM      7  N   UNL     1      -2.231  12.969  23.727  0.00  0.00    +0.000 N 
ATOM      8  C   UNL     1      -1.981  12.041  22.748  0.00  0.00    +0.000 C 
ATOM      9  O   UNL     1      -2.432  12.127  21.610  0.00  0.00    +0.000 OA
ATOM     10  N   UNL     1      -1.088  11.052  23.129  0.00  0.00    +0.000 N 
ATOM     11  C   UNL     1      -0.237  10.594  22.097  0.00  0.00    +0.000 A 
ATOM     12  C   UNL     1      -0.106   9.277  21.741  0.00  0.00    +0.000 A 
ATOM     13  N   UNL     1       0.524   8.917  20.602  0.00  0.00    +0.000 NA
ATOM     14  C   UNL     1       0.986   9.945  19.790  0.00  0.00    +0.000 A 
ATOM     15  C   UNL     1       0.898  11.261  20.180  0.00  0.00    +0.000 A 
ATOM     16  N   UNL     1       0.325  11.557  21.362  0.00  0.00    +0.000 NA
ATOM     17  O   UNL     1       1.302  12.341  19.357  0.00  0.00    +0.000 OA
ATOM     18  C   UNL     1       0.845  13.513  20.040  0.00  0.00    +0.000 C 
ATOM     19  C   UNL     1       0.942  14.976  19.576  0.00  0.00    +0.000 C 
ATOM     20  C   UNL     1       0.415  15.688  20.859  0.00  0.00    +0.000 C 
ATOM     21  C   UNL     1      -0.267  17.043  20.933  0.00  0.00    +0.000 C 
ATOM     22  C   UNL     1      -0.935  17.154  22.354  0.00  0.00    +0.000 C 
ATOM     23  O   UNL     1      -2.012  16.210  22.486  0.00  0.00    +0.000 OA
ATOM     24  H   UNL     1      -2.715  12.561  24.510  0.00  0.00    +0.000 HD
ATOM     25  H   UNL     1      -1.415  10.403  23.836  0.00  0.00    +0.000 HD
ENDROOT
BRANCH   1  29
ATOM     26  C   UNL     1      -7.736  17.511  23.242  0.00  0.00    +0.000 C 
ATOM     27  C   UNL     1      -7.012  16.196  23.360  0.00  0.00    +0.000 C 
ATOM     28  O   UNL     1      -7.617  15.188  23.708  0.00  0.00    +0.000 OA
ATOM     29  N   UNL     1      -5.654  16.269  23.066  0.00  0.00    +0.000 N 
ATOM     30  H   UNL     1      -5.299  17.162  22.733  0.00  0.00    +0.000 HD
ENDBRANCH   1  29
BRANCH  14  31
ATOM     31  C   UNL     1       1.532   9.560  18.562  0.00  0.00    +0.000 C 
ATOM     32  N   UNL     1       2.011   9.257  17.537  0.00  0.00    +0.000 NA
ENDBRANCH  14  31
TORSDOF 2
ENDMDL
MODEL 7
REMARK VINA RESULT:      -5.9      5.928      7.392
REMARK  Name = 
REMARK  3 active torsions:
REMARK  status: ('A' for Active; 'I' for Inactive)
REMARK    1  A    between atoms: C_1  and  C_2
REMARK    2  A    between atoms: N_4  and  C_5
REMARK    3  A    between atoms: C_18  and  C_19
REMARK                            x       y       z     vdW  Elec       q    Type
REMARK                         _______ _______ _______ _____ _____    ______ ____
ROOT
ATOM      1  C   UNL     1       4.958  15.875  19.310  0.00  0.00    +0.000 A 
ATOM      2  C   UNL     1       4.846  15.651  17.942  0.00  0.00    +0.000 A 
ATOM      3  C   UNL     1       3.568  15.416  17.443  0.00  0.00    +0.000 A 
ATOM      4  C   UNL     1       2.524  15.336  18.358  0.00  0.00    +0.000 A 
ATOM      5  C   UNL     1       2.925  14.685  19.532  0.00  0.00    +0.000 A 
ATOM      6  C   UNL     1       4.096  15.152  20.129  0.00  0.00    +0.000 A 
ATOM      7  N   UNL     1       2.547  13.329  19.677  0.00  0.00    +0.000 N 
ATOM      8  C   UNL     1       1.830  13.000  20.799  0.00  0.00    +0.000 C 
ATOM      9  O   UNL     1       1.748  13.729  21.782  0.00  0.00    +0.000 OA
ATOM     10  N   UNL     1       1.120  11.815  20.682  0.00  0.00    +0.000 N 
ATOM     11  C   UNL     1      -0.125  11.803  21.352  0.00  0.00    +0.000 A 
ATOM     12  C   UNL     1      -0.495  10.850  22.264  0.00  0.00    +0.000 A 
ATOM     13  N   UNL     1      -1.580  11.015  23.050  0.00  0.00    +0.000 NA
ATOM     14  C   UNL     1      -2.272  12.212  22.921  0.00  0.00    +0.000 A 
ATOM     15  C   UNL     1      -1.926  13.140  21.965  0.00  0.00    +0.000 A 
ATOM     16  N   UNL     1      -0.878  12.890  21.160  0.00  0.00    +0.000 NA
ATOM     17  O   UNL     1      -2.567  14.397  21.840  0.00  0.00    +0.000 OA
ATOM     18  C   UNL     1      -1.774  15.119  20.892  0.00  0.00    +0.000 C 
ATOM     19  C   UNL     1      -1.954  16.572  20.419  0.00  0.00    +0.000 C 
ATOM     20  C   UNL     1      -0.872  16.613  19.298  0.00  0.00    +0.000 C 
ATOM     21  C   UNL     1      -0.127  17.838  18.796  0.00  0.00    +0.000 C 
ATOM     22  C   UNL     1       1.097  17.327  17.949  0.00  0.00    +0.000 C 
ATOM     23  O   UNL     1       2.052  16.654  18.787  0.00  0.00    +0.000 OA
ATOM     24  H   UNL     1       3.291  12.673  19.506  0.00  0.00    +0.000 HD
ATOM     25  H   UNL     1       1.673  10.966  20.633  0.00  0.00    +0.000 HD
ENDROOT
BRANCH   1  29
ATOM     26  C   UNL     1       7.680  18.228  20.112  0.00  0.00    +0.000 C 
ATOM     27  C   UNL     1       6.824  17.026  20.410  0.00  0.00    +0.000 C 
ATOM     28  O   UNL     1       7.252  16.127  21.125  0.00  0.00    +0.000 OA
ATOM     29  N   UNL     1       5.578  17.050  19.791  0.00  0.00    +0.000 N 
ATOM     30  H   UNL     1       5.335  17.890  19.272  0.00  0.00    +0.000 HD
ENDBRANCH   1  29
BRANCH  14  31
ATOM     31  C   UNL     1      -3.323  12.415  23.820  0.00  0.00    +0.000 C 
ATOM     32  N   UNL     1      -4.183  12.590  24.596  0.00  0.00    +0.000 NA
ENDBRANCH  14  31
TORSDOF 2
ENDMDL
MODEL 8
REMARK VINA RESULT:      -5.9      3.201      5.022
REMARK  Name = 
REMARK  3 active torsions:
REMARK  status: ('A' for Active; 'I' for Inactive)
REMARK    1  A    between atoms: C_1  and  C_2
REMARK    2  A    between atoms: N_4  and  C_5
REMARK    3  A    between atoms: C_18  and  C_19
REMARK                            x       y       z     vdW  Elec       q    Type
REMARK                         _______ _______ _______ _____ _____    ______ ____
ROOT
ATOM      1  C   UNL     1      10.332  14.892  17.738  0.00  0.00    +0.000 A 
ATOM      2  C   UNL     1      10.940  16.018  18.283  0.00  0.00    +0.000 A 
ATOM      3  C   UNL     1      10.383  16.535  19.449  0.00  0.00    +0.000 A 
ATOM      4  C   UNL     1       9.219  15.943  19.925  0.00  0.00    +0.000 A 
ATOM      5  C   UNL     1       8.371  15.572  18.873  0.00  0.00    +0.000 A 
ATOM      6  C   UNL     1       8.946  14.822  17.847  0.00  0.00    +0.000 A 
ATOM      7  N   UNL     1       7.277  16.427  18.598  0.00  0.00    +0.000 N 
ATOM      8  C   UNL     1       6.026  15.865  18.622  0.00  0.00    +0.000 C 
ATOM      9  O   UNL     1       5.833  14.654  18.589  0.00  0.00    +0.000 OA
ATOM     10  N   UNL     1       5.003  16.784  18.793  0.00  0.00    +0.000 N 
ATOM     11  C   UNL     1       3.909  16.316  19.559  0.00  0.00    +0.000 A 
ATOM     12  C   UNL     1       2.608  16.343  19.132  0.00  0.00    +0.000 A 
ATOM     13  N   UNL     1       1.640  15.669  19.789  0.00  0.00    +0.000 NA
ATOM     14  C   UNL     1       2.036  14.912  20.885  0.00  0.00    +0.000 A 
ATOM     15  C   UNL     1       3.335  14.934  21.338  0.00  0.00    +0.000 A 
ATOM     16  N   UNL     1       4.243  15.682  20.687  0.00  0.00    +0.000 NA
ATOM     17  O   UNL     1       3.792  14.132  22.413  0.00  0.00    +0.000 OA
ATOM     18  C   UNL     1       5.214  14.295  22.412  0.00  0.00    +0.000 C 
ATOM     19  C   UNL     1       6.246  13.602  23.318  0.00  0.00    +0.000 C 
ATOM     20  C   UNL     1       7.530  14.368  22.877  0.00  0.00    +0.000 C 
ATOM     21  C   UNL     1       8.960  13.859  22.937  0.00  0.00    +0.000 C 
ATOM     22  C   UNL     1       9.837  14.822  22.054  0.00  0.00    +0.000 C 
ATOM     23  O   UNL     1       9.480  14.706  20.665  0.00  0.00    +0.000 OA
ATOM     24  H   UNL     1       7.405  17.013  17.789  0.00  0.00    +0.000 HD
ATOM     25  H   UNL     1       4.838  17.419  18.020  0.00  0.00    +0.000 HD
ENDROOT
BRANCH   1  29
ATOM     26  C   UNL     1      11.632  11.483  18.267  0.00  0.00    +0.000 C 
ATOM     27  C   UNL     1      11.628  12.966  18.528  0.00  0.00    +0.000 C 
ATOM     28  O   UNL     1      12.061  13.406  19.587  0.00  0.00    +0.000 OA
ATOM     29  N   UNL     1      11.086  13.723  17.494  0.00  0.00    +0.000 N 
ATOM     30  H   UNL     1      10.819  13.226  16.647  0.00  0.00    +0.000 HD
ENDBRANCH   1  29
BRANCH  14  31
ATOM     31  C   UNL     1       1.043  14.130  21.483  0.00  0.00    +0.000 C 
ATOM     32  N   UNL     1       0.213  13.492  22.009  0.00  0.00    +0.000 NA
ENDBRANCH  14  31
TORSDOF 2
ENDMDL
MODEL 9
REMARK VINA RESULT:      -5.9      9.729     12.874
REMARK  Name = 
REMARK  3 active torsions:
REMARK  status: ('A' for Active; 'I' for Inactive)
REMARK    1  A    between atoms: C_1  and  C_2
REMARK    2  A    between atoms: N_4  and  C_5
REMARK    3  A    between atoms: C_18  and  C_19
REMARK                            x       y       z     vdW  Elec       q    Type
REMARK                         _______ _______ _______ _____ _____    ______ ____
ROOT
ATOM      1  C   UNL     1      -6.407  11.831  17.777  0.00  0.00    +0.000 A 
ATOM      2  C   UNL     1      -6.837  11.358  19.013  0.00  0.00    +0.000 A 
ATOM      3  C   UNL     1      -6.035  11.645  20.113  0.00  0.00    +0.000 A 
ATOM      4  C   UNL     1      -4.831  12.301  19.880  0.00  0.00    +0.000 A 
ATOM      5  C   UNL     1      -4.228  11.851  18.699  0.00  0.00    +0.000 A 
ATOM      6  C   UNL     1      -5.033  11.834  17.559  0.00  0.00    +0.000 A 
ATOM      7  N   UNL     1      -3.167  10.923  18.832  0.00  0.00    +0.000 N 
ATOM      8  C   UNL     1      -1.967  11.264  18.263  0.00  0.00    +0.000 C 
ATOM      9  O   UNL     1      -1.847  12.161  17.434  0.00  0.00    +0.000 OA
ATOM     10  N   UNL     1      -0.884  10.574  18.784  0.00  0.00    +0.000 N 
ATOM     11  C   UNL     1       0.313  11.323  18.862  0.00  0.00    +0.000 A 
ATOM     12  C   UNL     1       1.505  10.920  18.318  0.00  0.00    +0.000 A 
ATOM     13  N   UNL     1       2.548  11.770  18.205  0.00  0.00    +0.000 NA
ATOM     14  C   UNL     1       2.337  13.078  18.622  0.00  0.00    +0.000 A 
ATOM     15  C   UNL     1       1.157  13.460  19.216  0.00  0.00    +0.000 A 
ATOM     16  N   UNL     1       0.177  12.551  19.368  0.00  0.00    +0.000 NA
ATOM     17  O   UNL     1       0.880  14.796  19.600  0.00  0.00    +0.000 OA
ATOM     18  C   UNL     1      -0.504  14.793  19.964  0.00  0.00    +0.000 C 
ATOM     19  C   UNL     1      -1.371  15.987  20.396  0.00  0.00    +0.000 C 
ATOM     20  C   UNL     1      -2.675  15.230  20.788  0.00  0.00    +0.000 C 
ATOM     21  C   UNL     1      -4.090  15.785  20.774  0.00  0.00    +0.000 C 
ATOM     22  C   UNL     1      -5.074  14.561  20.883  0.00  0.00    +0.000 C 
ATOM     23  O   UNL     1      -5.004  13.745  19.701  0.00  0.00    +0.000 OA
ATOM     24  H   UNL     1      -3.422   9.972  18.620  0.00  0.00    +0.000 HD
ATOM     25  H   UNL     1      -0.844   9.582  18.576  0.00  0.00    +0.000 HD
ENDROOT
BRANCH   1  29
ATOM     26  C   UNL     1      -7.772  14.912  16.283  0.00  0.00    +0.000 C 
ATOM     27  C   UNL     1      -7.644  13.916  17.404  0.00  0.00    +0.000 C 
ATOM     28  O   UNL     1      -7.860  14.259  18.561  0.00  0.00    +0.000 OA
ATOM     29  N   UNL     1      -7.253  12.646  16.992  0.00  0.00    +0.000 N 
ATOM     30  H   UNL     1      -7.166  12.490  15.991  0.00  0.00    +0.000 HD
ENDBRANCH   1  29
BRANCH  14  31
ATOM     31  C   UNL     1       3.387  13.973  18.392  0.00  0.00    +0.000 C 
ATOM     32  N   UNL     1       4.284  14.699  18.191  0.00  0.00    +0.000 NA
ENDBRANCH  14  31
TORSDOF 2
ENDMDL
