MODEL 1
REMARK VINA RESULT:      -8.1      0.000      0.000
REMARK  Name = 
REMARK  6 active torsions:
REMARK  status: ('A' for Active; 'I' for Inactive)
REMARK    1  A    between atoms: C_1  and  C_2
REMARK    2  A    between atoms: C_2  and  C_3
REMARK    3  A    between atoms: C_2  and  N_17
REMARK    4  A    between atoms: N_5  and  C_6
REMARK    5  A    between atoms: C_6  and  C_7
REMARK    6  A    between atoms: C_12  and  C_13
REMARK                            x       y       z     vdW  Elec       q    Type
REMARK                         _______ _______ _______ _____ _____    ______ ____
ROOT
ATOM      1  C   UNL     1       6.315   5.908  18.899  0.00  0.00    +0.000 C 
ATOM      2  O   UNL     1       6.823   5.361  19.878  0.00  0.00    +0.000 OA
ATOM      3  N   UNL     1       4.945   5.933  18.698  0.00  0.00    +0.000 N 
ATOM      4  H   UNL     1       4.650   5.903  17.722  0.00  0.00    +0.000 HD
ENDROOT
BRANCH   1   6
ATOM      5  C   UNL     1       7.078   8.011  17.667  0.00  0.00    +0.000 C 
ATOM      6  C   UNL     1       7.148   6.488  17.739  0.00  0.00    +0.000 C 
BRANCH   6   7
ATOM      7  N   UNL     1       6.761   5.827  16.490  0.00  0.00    +0.000 N 
ATOM      8  C   UNL     1       7.329   4.658  16.072  0.00  0.00    +0.000 C 
ATOM      9  O   UNL     1       8.170   4.009  16.674  0.00  0.00    +0.000 OA
ATOM     10  C   UNL     1       6.710   4.257  14.768  0.00  0.00    +0.000 C 
ATOM     11  C   UNL     1       5.450   5.095  14.703  0.00  0.00    +0.000 C 
ATOM     12  C   UNL     1       5.614   6.097  15.804  0.00  0.00    +0.000 C 
ATOM     13  O   UNL     1       4.783   6.957  16.058  0.00  0.00    +0.000 OA
ENDBRANCH   6   7
ENDBRANCH   1   6
BRANCH   3  14
ATOM     14  C   UNL     1       4.060   5.327  19.667  0.00  0.00    +0.000 C 
BRANCH  14  15
ATOM     15  C   UNL     1       3.453   4.031  19.174  0.00  0.00    +0.000 A 
ATOM     16  C   UNL     1       3.991   3.466  17.997  0.00  0.00    +0.000 A 
ATOM     17  C   UNL     1       3.453   2.309  17.433  0.00  0.00    +0.000 A 
ATOM     18  C   UNL     1       2.373   1.681  18.039  0.00  0.00    +0.000 A 
ATOM     19  C   UNL     1       1.837   2.210  19.211  0.00  0.00    +0.000 A 
ATOM     20  C   UNL     1       2.361   3.385  19.795  0.00  0.00    +0.000 A 
BRANCH  20  21
ATOM     21  C   UNL     1       1.675   3.876  21.055  0.00  0.00    +0.000 C 
ATOM     22  F   UNL     1       2.501   4.118  22.108  0.00  0.00    +0.000 F 
ATOM     23  F   UNL     1       0.996   5.040  20.846  0.00  0.00    +0.000 F 
ATOM     24  F   UNL     1       0.751   2.985  21.511  0.00  0.00    +0.000 F 
ENDBRANCH  20  21
ENDBRANCH  14  15
ENDBRANCH   3  14
TORSDOF 5
ENDMDL
MODEL 2
REMARK VINA RESULT:      -7.8      2.280      3.726
REMARK  Name = 
REMARK  6 active torsions:
REMARK  status: ('A' for Active; 'I' for Inactive)
REMARK    1  A    between atoms: C_1  and  C_2
REMARK    2  A    between atoms: C_2  and  C_3
REMARK    3  A    between atoms: C_2  and  N_17
REMARK    4  A    between atoms: N_5  and  C_6
REMARK    5  A    between atoms: C_6  and  C_7
REMARK    6  A    between atoms: C_12  and  C_13
REMARK                            x       y       z     vdW  Elec       q    Type
REMARK                         _______ _______ _______ _____ _____    ______ ____
ROOT
ATOM      1  C   UNL     1       4.343   6.170  16.981  0.00  0.00    +0.000 C 
ATOM      2  O   UNL     1       3.910   7.213  17.472  0.00  0.00    +0.000 OA
ATOM      3  N   UNL     1       3.644   4.977  17.053  0.00  0.00    +0.000 N 
ATOM      4  H   UNL     1       4.222   4.139  17.124  0.00  0.00    +0.000 HD
ENDROOT
BRANCH   1   6
ATOM      5  C   UNL     1       5.917   4.817  15.492  0.00  0.00    +0.000 C 
ATOM      6  C   UNL     1       5.754   6.054  16.370  0.00  0.00    +0.000 C 
BRANCH   6   7
ATOM      7  N   UNL     1       6.752   6.147  17.438  0.00  0.00    +0.000 N 
ATOM      8  C   UNL     1       7.462   7.287  17.683  0.00  0.00    +0.000 C 
ATOM      9  O   UNL     1       7.341   8.352  17.098  0.00  0.00    +0.000 OA
ATOM     10  C   UNL     1       8.388   7.045  18.835  0.00  0.00    +0.000 C 
ATOM     11  C   UNL     1       7.831   5.791  19.477  0.00  0.00    +0.000 C 
ATOM     12  C   UNL     1       6.842   5.271  18.479  0.00  0.00    +0.000 C 
ATOM     13  O   UNL     1       6.185   4.254  18.651  0.00  0.00    +0.000 OA
ENDBRANCH   6   7
ENDBRANCH   1   6
BRANCH   3  14
ATOM     14  C   UNL     1       2.351   4.933  17.697  0.00  0.00    +0.000 C 
BRANCH  14  15
ATOM     15  C   UNL     1       2.387   4.221  19.033  0.00  0.00    +0.000 A 
ATOM     16  C   UNL     1       2.026   4.966  20.178  0.00  0.00    +0.000 A 
ATOM     17  C   UNL     1       2.091   4.414  21.457  0.00  0.00    +0.000 A 
ATOM     18  C   UNL     1       2.506   3.099  21.622  0.00  0.00    +0.000 A 
ATOM     19  C   UNL     1       2.850   2.339  20.506  0.00  0.00    +0.000 A 
ATOM     20  C   UNL     1       2.798   2.881  19.202  0.00  0.00    +0.000 A 
BRANCH  20  21
ATOM     21  C   UNL     1       3.222   1.962  18.073  0.00  0.00    +0.000 C 
ATOM     22  F   UNL     1       4.277   2.401  17.335  0.00  0.00    +0.000 F 
ATOM     23  F   UNL     1       3.580   0.727  18.526  0.00  0.00    +0.000 F 
ATOM     24  F   UNL     1       2.214   1.752  17.182  0.00  0.00    +0.000 F 
ENDBRANCH  20  21
ENDBRANCH  14  15
ENDBRANCH   3  14
TORSDOF 5
ENDMDL
MODEL 3
REMARK VINA RESULT:      -7.6      2.353      3.618
REMARK  Name = 
REMARK  6 active torsions:
REMARK  status: ('A' for Active; 'I' for Inactive)
REMARK    1  A    between atoms: C_1  and  C_2
REMARK    2  A    between atoms: C_2  and  C_3
REMARK    3  A    between atoms: C_2  and  N_17
REMARK    4  A    between atoms: N_5  and  C_6
REMARK    5  A    between atoms: C_6  and  C_7
REMARK    6  A    between atoms: C_12  and  C_13
REMARK                            x       y       z     vdW  Elec       q    Type
REMARK                         _______ _______ _______ _____ _____    ______ ____
ROOT
ATOM      1  C   UNL     1       4.042   6.298  17.284  0.00  0.00    +0.000 C 
ATOM      2  O   UNL     1       3.542   7.199  17.957  0.00  0.00    +0.000 OA
ATOM      3  N   UNL     1       3.428   5.066  17.130  0.00  0.00    +0.000 N 
ATOM      4  H   UNL     1       4.063   4.273  17.046  0.00  0.00    +0.000 HD
ENDROOT
BRANCH   1   6
ATOM      5  C   UNL     1       5.717   5.312  15.627  0.00  0.00    +0.000 C 
ATOM      6  C   UNL     1       5.451   6.397  16.666  0.00  0.00    +0.000 C 
BRANCH   6   7
ATOM      7  N   UNL     1       6.447   6.434  17.740  0.00  0.00    +0.000 N 
ATOM      8  C   UNL     1       6.645   5.388  18.594  0.00  0.00    +0.000 C 
ATOM      9  O   UNL     1       6.075   4.308  18.556  0.00  0.00    +0.000 OA
ATOM     10  C   UNL     1       7.728   5.750  19.563  0.00  0.00    +0.000 C 
ATOM     11  C   UNL     1       8.403   6.939  18.910  0.00  0.00    +0.000 C 
ATOM     12  C   UNL     1       7.474   7.328  17.800  0.00  0.00    +0.000 C 
ATOM     13  O   UNL     1       7.688   8.264  17.044  0.00  0.00    +0.000 OA
ENDBRANCH   6   7
ENDBRANCH   1   6
BRANCH   3  14
ATOM     14  C   UNL     1       2.147   4.813  17.750  0.00  0.00    +0.000 C 
BRANCH  14  15
ATOM     15  C   UNL     1       2.272   4.099  19.079  0.00  0.00    +0.000 A 
ATOM     16  C   UNL     1       1.892   4.810  20.239  0.00  0.00    +0.000 A 
ATOM     17  C   UNL     1       2.034   4.257  21.512  0.00  0.00    +0.000 A 
ATOM     18  C   UNL     1       2.545   2.974  21.655  0.00  0.00    +0.000 A 
ATOM     19  C   UNL     1       2.909   2.246  20.524  0.00  0.00    +0.000 A 
ATOM     20  C   UNL     1       2.781   2.790  19.226  0.00  0.00    +0.000 A 
BRANCH  20  21
ATOM     21  C   UNL     1       3.236   1.910  18.079  0.00  0.00    +0.000 C 
ATOM     22  F   UNL     1       3.660   0.667  18.435  0.00  0.00    +0.000 F 
ATOM     23  F   UNL     1       2.244   1.710  17.164  0.00  0.00    +0.000 F 
ATOM     24  F   UNL     1       4.269   2.466  17.389  0.00  0.00    +0.000 F 
ENDBRANCH  20  21
ENDBRANCH  14  15
ENDBRANCH   3  14
TORSDOF 5
ENDMDL
MODEL 4
REMARK VINA RESULT:      -7.6      1.917      3.514
REMARK  Name = 
REMARK  6 active torsions:
REMARK  status: ('A' for Active; 'I' for Inactive)
REMARK    1  A    between atoms: C_1  and  C_2
REMARK    2  A    between atoms: C_2  and  C_3
REMARK    3  A    between atoms: C_2  and  N_17
REMARK    4  A    between atoms: N_5  and  C_6
REMARK    5  A    between atoms: C_6  and  C_7
REMARK    6  A    between atoms: C_12  and  C_13
REMARK                            x       y       z     vdW  Elec       q    Type
REMARK                         _______ _______ _______ _____ _____    ______ ____
ROOT
ATOM      1  C   UNL     1       4.579   5.513  16.618  0.00  0.00    +0.000 C 
ATOM      2  O   UNL     1       4.111   6.648  16.718  0.00  0.00    +0.000 OA
ATOM      3  N   UNL     1       3.833   4.382  16.901  0.00  0.00    +0.000 N 
ATOM      4  H   UNL     1       4.359   3.604  17.299  0.00  0.00    +0.000 HD
ENDROOT
BRANCH   1   6
ATOM      5  C   UNL     1       6.316   3.828  15.801  0.00  0.00    +0.000 C 
ATOM      6  C   UNL     1       6.066   5.244  16.311  0.00  0.00    +0.000 C 
BRANCH   6   7
ATOM      7  N   UNL     1       6.872   5.593  17.484  0.00  0.00    +0.000 N 
ATOM      8  C   UNL     1       7.518   6.789  17.601  0.00  0.00    +0.000 C 
ATOM      9  O   UNL     1       7.482   7.710  16.800  0.00  0.00    +0.000 OA
ATOM     10  C   UNL     1       8.243   6.823  18.911  0.00  0.00    +0.000 C 
ATOM     11  C   UNL     1       7.602   5.698  19.698  0.00  0.00    +0.000 C 
ATOM     12  C   UNL     1       6.799   4.945  18.681  0.00  0.00    +0.000 C 
ATOM     13  O   UNL     1       6.136   3.955  18.950  0.00  0.00    +0.000 OA
ENDBRANCH   6   7
ENDBRANCH   1   6
BRANCH   3  14
ATOM     14  C   UNL     1       2.450   4.508  17.304  0.00  0.00    +0.000 C 
BRANCH  14  15
ATOM     15  C   UNL     1       2.218   4.086  18.739  0.00  0.00    +0.000 A 
ATOM     16  C   UNL     1       1.964   2.719  18.984  0.00  0.00    +0.000 A 
ATOM     17  C   UNL     1       1.675   2.250  20.265  0.00  0.00    +0.000 A 
ATOM     18  C   UNL     1       1.647   3.134  21.336  0.00  0.00    +0.000 A 
ATOM     19  C   UNL     1       1.913   4.484  21.121  0.00  0.00    +0.000 A 
ATOM     20  C   UNL     1       2.200   4.983  19.831  0.00  0.00    +0.000 A 
BRANCH  20  21
ATOM     21  C   UNL     1       2.446   6.475  19.723  0.00  0.00    +0.000 C 
ATOM     22  F   UNL     1       1.861   7.082  18.656  0.00  0.00    +0.000 F 
ATOM     23  F   UNL     1       1.995   7.147  20.820  0.00  0.00    +0.000 F 
ATOM     24  F   UNL     1       3.772   6.767  19.629  0.00  0.00    +0.000 F 
ENDBRANCH  20  21
ENDBRANCH  14  15
ENDBRANCH   3  14
TORSDOF 5
ENDMDL
MODEL 5
REMARK VINA RESULT:      -7.6      4.476      5.943
REMARK  Name = 
REMARK  6 active torsions:
REMARK  status: ('A' for Active; 'I' for Inactive)
REMARK    1  A    between atoms: C_1  and  C_2
REMARK    2  A    between atoms: C_2  and  C_3
REMARK    3  A    between atoms: C_2  and  N_17
REMARK    4  A    between atoms: N_5  and  C_6
REMARK    5  A    between atoms: C_6  and  C_7
REMARK    6  A    between atoms: C_12  and  C_13
REMARK                            x       y       z     vdW  Elec       q    Type
REMARK                         _______ _______ _______ _____ _____    ______ ____
ROOT
ATOM      1  C   UNL     1       2.745   5.861  19.957  0.00  0.00    +0.000 C 
ATOM      2  O   UNL     1       2.236   5.078  20.759  0.00  0.00    +0.000 OA
ATOM      3  N   UNL     1       2.384   7.196  19.901  0.00  0.00    +0.000 N 
ATOM      4  H   UNL     1       2.416   7.615  18.972  0.00  0.00    +0.000 HD
ENDROOT
BRANCH   1   6
ATOM      5  C   UNL     1       3.767   6.380  17.674  0.00  0.00    +0.000 C 
ATOM      6  C   UNL     1       3.721   5.410  18.851  0.00  0.00    +0.000 C 
BRANCH   6   7
ATOM      7  N   UNL     1       3.406   4.034  18.461  0.00  0.00    +0.000 N 
ATOM      8  C   UNL     1       4.088   2.957  18.952  0.00  0.00    +0.000 C 
ATOM      9  O   UNL     1       4.986   2.988  19.778  0.00  0.00    +0.000 OA
ATOM     10  C   UNL     1       3.516   1.708  18.356  0.00  0.00    +0.000 C 
ATOM     11  C   UNL     1       2.180   2.160  17.803  0.00  0.00    +0.000 C 
ATOM     12  C   UNL     1       2.240   3.656  17.864  0.00  0.00    +0.000 C 
ATOM     13  O   UNL     1       1.328   4.380  17.493  0.00  0.00    +0.000 OA
ENDBRANCH   6   7
ENDBRANCH   1   6
BRANCH   3  14
ATOM     14  C   UNL     1       1.398   7.719  20.820  0.00  0.00    +0.000 C 
BRANCH  14  15
ATOM     15  C   UNL     1       0.897   9.091  20.422  0.00  0.00    +0.000 A 
ATOM     16  C   UNL     1       1.217   9.551  19.126  0.00  0.00    +0.000 A 
ATOM     17  C   UNL     1       0.854  10.827  18.695  0.00  0.00    +0.000 A 
ATOM     18  C   UNL     1       0.149  11.669  19.544  0.00  0.00    +0.000 A 
ATOM     19  C   UNL     1      -0.194  11.230  20.821  0.00  0.00    +0.000 A 
ATOM     20  C   UNL     1       0.170   9.944  21.281  0.00  0.00    +0.000 A 
BRANCH  20  21
ATOM     21  C   UNL     1      -0.239   9.594  22.698  0.00  0.00    +0.000 C 
ATOM     22  F   UNL     1      -0.988  10.535  23.334  0.00  0.00    +0.000 F 
ATOM     23  F   UNL     1      -0.973   8.446  22.748  0.00  0.00    +0.000 F 
ATOM     24  F   UNL     1       0.839   9.380  23.501  0.00  0.00    +0.000 F 
ENDBRANCH  20  21
ENDBRANCH  14  15
ENDBRANCH   3  14
TORSDOF 5
ENDMDL
MODEL 6
REMARK VINA RESULT:      -7.6      3.468      5.018
REMARK  Name = 
REMARK  6 active torsions:
REMARK  status: ('A' for Active; 'I' for Inactive)
REMARK    1  A    between atoms: C_1  and  C_2
REMARK    2  A    between atoms: C_2  and  C_3
REMARK    3  A    between atoms: C_2  and  N_17
REMARK    4  A    between atoms: N_5  and  C_6
REMARK    5  A    between atoms: C_6  and  C_7
REMARK    6  A    between atoms: C_12  and  C_13
REMARK                            x       y       z     vdW  Elec       q    Type
REMARK                         _______ _______ _______ _____ _____    ______ ____
ROOT
ATOM      1  C   UNL     1       2.271   3.900  20.095  0.00  0.00    +0.000 C 
ATOM      2  O   UNL     1       1.054   3.713  20.114  0.00  0.00    +0.000 OA
ATOM      3  N   UNL     1       2.835   5.114  20.453  0.00  0.00    +0.000 N 
ATOM      4  H   UNL     1       3.683   5.364  19.945  0.00  0.00    +0.000 HD
ENDROOT
BRANCH   1   6
ATOM      5  C   UNL     1       4.184   2.292  20.621  0.00  0.00    +0.000 C 
ATOM      6  C   UNL     1       3.270   2.864  19.542  0.00  0.00    +0.000 C 
BRANCH   6   7
ATOM      7  N   UNL     1       3.995   3.449  18.411  0.00  0.00    +0.000 N 
ATOM      8  C   UNL     1       3.438   3.589  17.174  0.00  0.00    +0.000 C 
ATOM      9  O   UNL     1       2.294   3.296  16.861  0.00  0.00    +0.000 OA
ATOM     10  C   UNL     1       4.440   4.219  16.257  0.00  0.00    +0.000 C 
ATOM     11  C   UNL     1       5.470   4.799  17.206  0.00  0.00    +0.000 C 
ATOM     12  C   UNL     1       5.128   4.198  18.535  0.00  0.00    +0.000 C 
ATOM     13  O   UNL     1       5.753   4.435  19.559  0.00  0.00    +0.000 OA
ENDBRANCH   6   7
ENDBRANCH   1   6
BRANCH   3  14
ATOM     14  C   UNL     1       1.991   6.203  20.890  0.00  0.00    +0.000 C 
BRANCH  14  15
ATOM     15  C   UNL     1       1.915   7.327  19.879  0.00  0.00    +0.000 A 
ATOM     16  C   UNL     1       2.606   7.154  18.660  0.00  0.00    +0.000 A 
ATOM     17  C   UNL     1       2.647   8.161  17.696  0.00  0.00    +0.000 A 
ATOM     18  C   UNL     1       1.985   9.361  17.921  0.00  0.00    +0.000 A 
ATOM     19  C   UNL     1       1.281   9.547  19.108  0.00  0.00    +0.000 A 
ATOM     20  C   UNL     1       1.233   8.543  20.102  0.00  0.00    +0.000 A 
BRANCH  20  21
ATOM     21  C   UNL     1       0.457   8.876  21.360  0.00  0.00    +0.000 C 
ATOM     22  F   UNL     1       1.183   8.858  22.510  0.00  0.00    +0.000 F 
ATOM     23  F   UNL     1      -0.105  10.117  21.300  0.00  0.00    +0.000 F 
ATOM     24  F   UNL     1      -0.575   8.012  21.565  0.00  0.00    +0.000 F 
ENDBRANCH  20  21
ENDBRANCH  14  15
ENDBRANCH   3  14
TORSDOF 5
ENDMDL
MODEL 7
REMARK VINA RESULT:      -7.5      1.966      2.542
REMARK  Name = 
REMARK  6 active torsions:
REMARK  status: ('A' for Active; 'I' for Inactive)
REMARK    1  A    between atoms: C_1  and  C_2
REMARK    2  A    between atoms: C_2  and  C_3
REMARK    3  A    between atoms: C_2  and  N_17
REMARK    4  A    between atoms: N_5  and  C_6
REMARK    5  A    between atoms: C_6  and  C_7
REMARK    6  A    between atoms: C_12  and  C_13
REMARK                            x       y       z     vdW  Elec       q    Type
REMARK                         _______ _______ _______ _____ _____    ______ ____
ROOT
ATOM      1  C   UNL     1       6.734   5.618  18.924  0.00  0.00    +0.000 C 
ATOM      2  O   UNL     1       7.395   5.475  19.953  0.00  0.00    +0.000 OA
ATOM      3  N   UNL     1       5.516   4.986  18.738  0.00  0.00    +0.000 N 
ATOM      4  H   UNL     1       5.309   4.720  17.775  0.00  0.00    +0.000 HD
ENDROOT
BRANCH   1   6
ATOM      5  C   UNL     1       7.011   7.895  17.800  0.00  0.00    +0.000 C 
ATOM      6  C   UNL     1       7.253   6.392  17.696  0.00  0.00    +0.000 C 
BRANCH   6   7
ATOM      7  N   UNL     1       6.697   5.794  16.479  0.00  0.00    +0.000 N 
ATOM      8  C   UNL     1       7.218   4.669  15.910  0.00  0.00    +0.000 C 
ATOM      9  O   UNL     1       8.152   4.009  16.340  0.00  0.00    +0.000 OA
ATOM     10  C   UNL     1       6.420   4.327  14.690  0.00  0.00    +0.000 C 
ATOM     11  C   UNL     1       5.148   5.132  14.864  0.00  0.00    +0.000 C 
ATOM     12  C   UNL     1       5.456   6.073  15.989  0.00  0.00    +0.000 C 
ATOM     13  O   UNL     1       4.657   6.893  16.416  0.00  0.00    +0.000 OA
ENDBRANCH   6   7
ENDBRANCH   1   6
BRANCH   3  14
ATOM     14  C   UNL     1       4.970   4.145  19.779  0.00  0.00    +0.000 C 
BRANCH  14  15
ATOM     15  C   UNL     1       3.458   4.082  19.746  0.00  0.00    +0.000 A 
ATOM     16  C   UNL     1       2.751   4.949  20.608  0.00  0.00    +0.000 A 
ATOM     17  C   UNL     1       1.359   4.915  20.694  0.00  0.00    +0.000 A 
ATOM     18  C   UNL     1       0.639   4.023  19.910  0.00  0.00    +0.000 A 
ATOM     19  C   UNL     1       1.314   3.171  19.039  0.00  0.00    +0.000 A 
ATOM     20  C   UNL     1       2.724   3.183  18.942  0.00  0.00    +0.000 A 
BRANCH  20  21
ATOM     21  C   UNL     1       3.342   2.189  17.978  0.00  0.00    +0.000 C 
ATOM     22  F   UNL     1       4.288   2.702  17.146  0.00  0.00    +0.000 F 
ATOM     23  F   UNL     1       3.946   1.155  18.628  0.00  0.00    +0.000 F 
ATOM     24  F   UNL     1       2.409   1.621  17.165  0.00  0.00    +0.000 F 
ENDBRANCH  20  21
ENDBRANCH  14  15
ENDBRANCH   3  14
TORSDOF 5
ENDMDL
MODEL 8
REMARK VINA RESULT:      -7.5      4.629      6.238
REMARK  Name = 
REMARK  6 active torsions:
REMARK  status: ('A' for Active; 'I' for Inactive)
REMARK    1  A    between atoms: C_1  and  C_2
REMARK    2  A    between atoms: C_2  and  C_3
REMARK    3  A    between atoms: C_2  and  N_17
REMARK    4  A    between atoms: N_5  and  C_6
REMARK    5  A    between atoms: C_6  and  C_7
REMARK    6  A    between atoms: C_12  and  C_13
REMARK                            x       y       z     vdW  Elec       q    Type
REMARK                         _______ _______ _______ _____ _____    ______ ____
ROOT
ATOM      1  C   UNL     1       2.453   5.897  20.139  0.00  0.00    +0.000 C 
ATOM      2  O   UNL     1       1.823   5.130  20.868  0.00  0.00    +0.000 OA
ATOM      3  N   UNL     1       2.244   7.266  20.155  0.00  0.00    +0.000 N 
ATOM      4  H   UNL     1       2.364   7.733  19.257  0.00  0.00    +0.000 HD
ENDROOT
BRANCH   1   6
ATOM      5  C   UNL     1       3.388   6.273  17.792  0.00  0.00    +0.000 C 
ATOM      6  C   UNL     1       3.424   5.406  19.048  0.00  0.00    +0.000 C 
BRANCH   6   7
ATOM      7  N   UNL     1       3.176   3.987  18.784  0.00  0.00    +0.000 N 
ATOM      8  C   UNL     1       2.158   3.555  17.984  0.00  0.00    +0.000 C 
ATOM      9  O   UNL     1       1.374   4.262  17.371  0.00  0.00    +0.000 OA
ATOM     10  C   UNL     1       2.187   2.059  17.925  0.00  0.00    +0.000 C 
ATOM     11  C   UNL     1       3.571   1.712  18.435  0.00  0.00    +0.000 C 
ATOM     12  C   UNL     1       4.085   2.996  19.012  0.00  0.00    +0.000 C 
ATOM     13  O   UNL     1       5.188   3.106  19.527  0.00  0.00    +0.000 OA
ENDBRANCH   6   7
ENDBRANCH   1   6
BRANCH   3  14
ATOM     14  C   UNL     1       1.278   7.841  21.065  0.00  0.00    +0.000 C 
BRANCH  14  15
ATOM     15  C   UNL     1       0.772   9.191  20.604  0.00  0.00    +0.000 A 
ATOM     16  C   UNL     1       1.099   9.596  19.291  0.00  0.00    +0.000 A 
ATOM     17  C   UNL     1       0.732  10.850  18.803  0.00  0.00    +0.000 A 
ATOM     18  C   UNL     1       0.016  11.724  19.610  0.00  0.00    +0.000 A 
ATOM     19  C   UNL     1      -0.334  11.339  20.902  0.00  0.00    +0.000 A 
ATOM     20  C   UNL     1       0.034  10.076  21.420  0.00  0.00    +0.000 A 
BRANCH  20  21
ATOM     21  C   UNL     1      -0.383   9.785  22.848  0.00  0.00    +0.000 C 
ATOM     22  F   UNL     1       0.641   9.579  23.720  0.00  0.00    +0.000 F 
ATOM     23  F   UNL     1      -1.120  10.801  23.382  0.00  0.00    +0.000 F 
ATOM     24  F   UNL     1      -1.166   8.675  22.934  0.00  0.00    +0.000 F 
ENDBRANCH  20  21
ENDBRANCH  14  15
ENDBRANCH   3  14
TORSDOF 5
ENDMDL
MODEL 9
REMARK VINA RESULT:      -7.5      3.174      5.861
REMARK  Name = 
REMARK  6 active torsions:
REMARK  status: ('A' for Active; 'I' for Inactive)
REMARK    1  A    between atoms: C_1  and  C_2
REMARK    2  A    between atoms: C_2  and  C_3
REMARK    3  A    between atoms: C_2  and  N_17
REMARK    4  A    between atoms: N_5  and  C_6
REMARK    5  A    between atoms: C_6  and  C_7
REMARK    6  A    between atoms: C_12  and  C_13
REMARK                            x       y       z     vdW  Elec       q    Type
REMARK                         _______ _______ _______ _____ _____    ______ ____
ROOT
ATOM      1  C   UNL     1       3.401   6.052  19.077  0.00  0.00    +0.000 C 
ATOM      2  O   UNL     1       4.291   5.506  19.729  0.00  0.00    +0.000 OA
ATOM      3  N   UNL     1       3.678   6.949  18.060  0.00  0.00    +0.000 N 
ATOM      4  H   UNL     1       2.998   7.701  17.948  0.00  0.00    +0.000 HD
ENDROOT
BRANCH   1   6
ATOM      5  C   UNL     1       1.499   6.692  20.657  0.00  0.00    +0.000 C 
ATOM      6  C   UNL     1       1.904   5.903  19.415  0.00  0.00    +0.000 C 
BRANCH   6   7
ATOM      7  N   UNL     1       1.566   4.480  19.493  0.00  0.00    +0.000 N 
ATOM      8  C   UNL     1       1.306   3.725  18.385  0.00  0.00    +0.000 C 
ATOM      9  O   UNL     1       1.358   4.105  17.226  0.00  0.00    +0.000 OA
ATOM     10  C   UNL     1       1.000   2.324  18.813  0.00  0.00    +0.000 C 
ATOM     11  C   UNL     1       1.519   2.267  20.235  0.00  0.00    +0.000 C 
ATOM     12  C   UNL     1       1.794   3.698  20.586  0.00  0.00    +0.000 C 
ATOM     13  O   UNL     1       2.228   4.051  21.673  0.00  0.00    +0.000 OA
ENDBRANCH   6   7
ENDBRANCH   1   6
BRANCH   3  14
ATOM     14  C   UNL     1       5.049   7.254  17.716  0.00  0.00    +0.000 C 
BRANCH  14  15
ATOM     15  C   UNL     1       5.694   6.175  16.873  0.00  0.00    +0.000 A 
ATOM     16  C   UNL     1       5.063   5.833  15.657  0.00  0.00    +0.000 A 
ATOM     17  C   UNL     1       5.549   4.806  14.847  0.00  0.00    +0.000 A 
ATOM     18  C   UNL     1       6.686   4.105  15.227  0.00  0.00    +0.000 A 
ATOM     19  C   UNL     1       7.336   4.437  16.413  0.00  0.00    +0.000 A 
ATOM     20  C   UNL     1       6.857   5.468  17.253  0.00  0.00    +0.000 A 
BRANCH  20  21
ATOM     21  C   UNL     1       7.636   5.715  18.529  0.00  0.00    +0.000 C 
ATOM     22  F   UNL     1       6.897   5.700  19.671  0.00  0.00    +0.000 F 
ATOM     23  F   UNL     1       8.618   4.788  18.716  0.00  0.00    +0.000 F 
ATOM     24  F   UNL     1       8.265   6.923  18.516  0.00  0.00    +0.000 F 
ENDBRANCH  20  21
ENDBRANCH  14  15
ENDBRANCH   3  14
TORSDOF 5
ENDMDL
