MODEL 1
REMARK VINA RESULT:      -9.1      0.000      0.000
REMARK  Name = 
REMARK  7 active torsions:
REMARK  status: ('A' for Active; 'I' for Inactive)
REMARK    1  A    between atoms: C_1  and  O_2
REMARK    2  A    between atoms: O_2  and  N_3
REMARK    3  A    between atoms: C_4  and  C_5
REMARK    4  A    between atoms: C_11  and  N_12
REMARK    5  A    between atoms: N_12  and  C_13
REMARK    6  A    between atoms: C_18  and  C_19
REMARK    7  A    between atoms: C_19  and  C_20
REMARK                            x       y       z     vdW  Elec       q    Type
REMARK                         _______ _______ _______ _____ _____    ______ ____
ROOT
ATOM      1  C   UNL     1       2.363   7.089  19.605  0.00  0.00    +0.000 A 
ATOM      2  C   UNL     1       2.675   7.379  18.266  0.00  0.00    +0.000 A 
ATOM      3  C   UNL     1       2.279   8.563  17.640  0.00  0.00    +0.000 A 
ATOM      4  C   UNL     1       1.558   9.458  18.423  0.00  0.00    +0.000 A 
ATOM      5  N   UNL     1       1.053  10.702  18.158  0.00  0.00    +0.000 N 
ATOM      6  C   UNL     1       0.385  11.142  19.271  0.00  0.00    +0.000 A 
ATOM      7  N   UNL     1       0.479  10.264  20.253  0.00  0.00    +0.000 NA
ATOM      8  C   UNL     1       1.201   9.210  19.742  0.00  0.00    +0.000 A 
ATOM      9  C   UNL     1       1.599   8.004  20.349  0.00  0.00    +0.000 A 
ATOM     10  H   UNL     1       1.139  11.199  17.283  0.00  0.00    +0.000 HD
ENDROOT
BRANCH   1  11
ATOM     11  N   UNL     1       2.878   5.921  20.205  0.00  0.00    +0.000 N 
ATOM     12  H   UNL     1       3.822   5.987  20.579  0.00  0.00    +0.000 HD
BRANCH  11  19
ATOM     13  C   UNL     1       3.407   3.779  19.156  0.00  0.00    +0.000 A 
ATOM     14  C   UNL     1       3.026   2.457  18.959  0.00  0.00    +0.000 A 
ATOM     15  N   UNL     1       3.827   1.524  18.295  0.00  0.00    +0.000 N 
ATOM     16  N   UNL     1       1.868   1.962  19.416  0.00  0.00    +0.000 NA
ATOM     17  C   UNL     1       1.086   2.816  20.083  0.00  0.00    +0.000 A 
ATOM     18  N   UNL     1       1.362   4.099  20.334  0.00  0.00    +0.000 NA
ATOM     19  C   UNL     1       2.531   4.592  19.868  0.00  0.00    +0.000 A 
ATOM     20  H   UNL     1       4.105   1.837  17.371  0.00  0.00    +0.000 HD
ATOM     21  H   UNL     1       3.301   0.654  18.250  0.00  0.00    +0.000 HD
BRANCH  13  23
ATOM     22  N   UNL     1       5.804   4.077  19.349  0.00  0.00    +0.000 NA
ATOM     23  C   UNL     1       4.711   4.240  18.672  0.00  0.00    +0.000 C 
BRANCH  22  25
ATOM     24  C   UNL     1       6.534   4.540  17.222  0.00  0.00    +0.000 C 
ATOM     25  O   UNL     1       6.861   4.619  18.602  0.00  0.00    +0.000 OA
ENDBRANCH  22  25
ENDBRANCH  13  23
ENDBRANCH  11  19
ENDBRANCH   1  11
BRANCH   6  26
ATOM     26  C   UNL     1      -0.370  12.433  19.279  0.00  0.00    +0.000 C 
BRANCH  26  27
ATOM     27  C   UNL     1      -1.857  12.227  19.083  0.00  0.00    +0.000 A 
ATOM     28  C   UNL     1      -2.765  12.699  20.046  0.00  0.00    +0.000 A 
ATOM     29  C   UNL     1      -4.137  12.488  19.900  0.00  0.00    +0.000 A 
ATOM     30  C   UNL     1      -4.619  11.807  18.783  0.00  0.00    +0.000 A 
ATOM     31  C   UNL     1      -3.723  11.351  17.824  0.00  0.00    +0.000 A 
ATOM     32  F   UNL     1      -4.187  10.697  16.750  0.00  0.00    +0.000 F 
ATOM     33  C   UNL     1      -2.352  11.555  17.957  0.00  0.00    +0.000 A 
ENDBRANCH  26  27
ENDBRANCH   6  26
TORSDOF 6
ENDMDL
MODEL 2
REMARK VINA RESULT:      -9.0      0.921      1.284
REMARK  Name = 
REMARK  7 active torsions:
REMARK  status: ('A' for Active; 'I' for Inactive)
REMARK    1  A    between atoms: C_1  and  O_2
REMARK    2  A    between atoms: O_2  and  N_3
REMARK    3  A    between atoms: C_4  and  C_5
REMARK    4  A    between atoms: C_11  and  N_12
REMARK    5  A    between atoms: N_12  and  C_13
REMARK    6  A    between atoms: C_18  and  C_19
REMARK    7  A    between atoms: C_19  and  C_20
REMARK                            x       y       z     vdW  Elec       q    Type
REMARK                         _______ _______ _______ _____ _____    ______ ____
ROOT
ATOM      1  C   UNL     1       2.287   7.180  19.689  0.00  0.00    +0.000 A 
ATOM      2  C   UNL     1       2.596   7.462  18.346  0.00  0.00    +0.000 A 
ATOM      3  C   UNL     1       2.192   8.640  17.713  0.00  0.00    +0.000 A 
ATOM      4  C   UNL     1       1.468   9.536  18.491  0.00  0.00    +0.000 A 
ATOM      5  N   UNL     1       0.956  10.776  18.219  0.00  0.00    +0.000 N 
ATOM      6  C   UNL     1       0.286  11.220  19.331  0.00  0.00    +0.000 A 
ATOM      7  N   UNL     1       0.386  10.349  20.318  0.00  0.00    +0.000 NA
ATOM      8  C   UNL     1       1.114   9.295  19.813  0.00  0.00    +0.000 A 
ATOM      9  C   UNL     1       1.519   8.096  20.427  0.00  0.00    +0.000 A 
ATOM     10  H   UNL     1       1.037  11.267  17.340  0.00  0.00    +0.000 HD
ENDROOT
BRANCH   1  11
ATOM     11  N   UNL     1       2.809   6.018  20.295  0.00  0.00    +0.000 N 
ATOM     12  H   UNL     1       3.748   6.096  20.680  0.00  0.00    +0.000 HD
BRANCH  11  19
ATOM     13  C   UNL     1       3.375   3.882  19.254  0.00  0.00    +0.000 A 
ATOM     14  C   UNL     1       3.013   2.555  19.053  0.00  0.00    +0.000 A 
ATOM     15  N   UNL     1       3.832   1.632  18.400  0.00  0.00    +0.000 N 
ATOM     16  N   UNL     1       1.855   2.047  19.499  0.00  0.00    +0.000 NA
ATOM     17  C   UNL     1       1.056   2.892  20.156  0.00  0.00    +0.000 A 
ATOM     18  N   UNL     1       1.314   4.178  20.409  0.00  0.00    +0.000 NA
ATOM     19  C   UNL     1       2.482   4.685  19.955  0.00  0.00    +0.000 A 
ATOM     20  H   UNL     1       4.117   1.947  17.478  0.00  0.00    +0.000 HD
ATOM     21  H   UNL     1       3.317   0.756  18.349  0.00  0.00    +0.000 HD
BRANCH  13  23
ATOM     22  N   UNL     1       5.798   3.939  19.286  0.00  0.00    +0.000 NA
ATOM     23  C   UNL     1       4.679   4.358  18.784  0.00  0.00    +0.000 C 
BRANCH  22  25
ATOM     24  C   UNL     1       6.577   4.549  17.214  0.00  0.00    +0.000 C 
ATOM     25  O   UNL     1       6.844   4.583  18.609  0.00  0.00    +0.000 OA
ENDBRANCH  22  25
ENDBRANCH  13  23
ENDBRANCH  11  19
ENDBRANCH   1  11
BRANCH   6  26
ATOM     26  C   UNL     1      -0.475  12.507  19.331  0.00  0.00    +0.000 C 
BRANCH  26  27
ATOM     27  C   UNL     1      -1.968  12.287  19.208  0.00  0.00    +0.000 A 
ATOM     28  C   UNL     1      -2.492  11.632  18.081  0.00  0.00    +0.000 A 
ATOM     29  C   UNL     1      -3.869  11.452  17.933  0.00  0.00    +0.000 A 
ATOM     30  C   UNL     1      -4.738  11.919  18.916  0.00  0.00    +0.000 A 
ATOM     31  C   UNL     1      -4.221  12.556  20.038  0.00  0.00    +0.000 A 
ATOM     32  F   UNL     1      -5.059  13.004  20.983  0.00  0.00    +0.000 F 
ATOM     33  C   UNL     1      -2.851  12.743  20.198  0.00  0.00    +0.000 A 
ENDBRANCH  26  27
ENDBRANCH   6  26
TORSDOF 6
ENDMDL
MODEL 3
REMARK VINA RESULT:      -8.6      1.625      2.088
REMARK  Name = 
REMARK  7 active torsions:
REMARK  status: ('A' for Active; 'I' for Inactive)
REMARK    1  A    between atoms: C_1  and  O_2
REMARK    2  A    between atoms: O_2  and  N_3
REMARK    3  A    between atoms: C_4  and  C_5
REMARK    4  A    between atoms: C_11  and  N_12
REMARK    5  A    between atoms: N_12  and  C_13
REMARK    6  A    between atoms: C_18  and  C_19
REMARK    7  A    between atoms: C_19  and  C_20
REMARK                            x       y       z     vdW  Elec       q    Type
REMARK                         _______ _______ _______ _____ _____    ______ ____
ROOT
ATOM      1  C   UNL     1       2.317   7.189  19.665  0.00  0.00    +0.000 A 
ATOM      2  C   UNL     1       2.580   7.468  18.312  0.00  0.00    +0.000 A 
ATOM      3  C   UNL     1       2.162   8.647  17.692  0.00  0.00    +0.000 A 
ATOM      4  C   UNL     1       1.471   9.549  18.494  0.00  0.00    +0.000 A 
ATOM      5  N   UNL     1       0.958  10.792  18.238  0.00  0.00    +0.000 N 
ATOM      6  C   UNL     1       0.331  11.241  19.373  0.00  0.00    +0.000 A 
ATOM      7  N   UNL     1       0.460  10.370  20.357  0.00  0.00    +0.000 NA
ATOM      8  C   UNL     1       1.162   9.311  19.828  0.00  0.00    +0.000 A 
ATOM      9  C   UNL     1       1.582   8.110  20.429  0.00  0.00    +0.000 A 
ATOM     10  H   UNL     1       1.012  11.281  17.357  0.00  0.00    +0.000 HD
ENDROOT
BRANCH   1  11
ATOM     11  N   UNL     1       2.853   6.025  20.254  0.00  0.00    +0.000 N 
ATOM     12  H   UNL     1       3.804   6.097  20.608  0.00  0.00    +0.000 HD
BRANCH  11  19
ATOM     13  C   UNL     1       3.381   3.879  19.211  0.00  0.00    +0.000 A 
ATOM     14  C   UNL     1       3.004   2.555  19.023  0.00  0.00    +0.000 A 
ATOM     15  N   UNL     1       3.803   1.622  18.359  0.00  0.00    +0.000 N 
ATOM     16  N   UNL     1       1.849   2.058  19.491  0.00  0.00    +0.000 NA
ATOM     17  C   UNL     1       1.070   2.914  20.159  0.00  0.00    +0.000 A 
ATOM     18  N   UNL     1       1.344   4.199  20.402  0.00  0.00    +0.000 NA
ATOM     19  C   UNL     1       2.508   4.693  19.925  0.00  0.00    +0.000 A 
ATOM     20  H   UNL     1       4.074   1.930  17.431  0.00  0.00    +0.000 HD
ATOM     21  H   UNL     1       3.279   0.750  18.321  0.00  0.00    +0.000 HD
BRANCH  13  23
ATOM     22  N   UNL     1       5.797   4.051  19.309  0.00  0.00    +0.000 NA
ATOM     23  C   UNL     1       4.681   4.341  18.717  0.00  0.00    +0.000 C 
BRANCH  22  25
ATOM     24  C   UNL     1       7.440   5.655  19.367  0.00  0.00    +0.000 C 
ATOM     25  O   UNL     1       6.840   4.637  18.577  0.00  0.00    +0.000 OA
ENDBRANCH  22  25
ENDBRANCH  13  23
ENDBRANCH  11  19
ENDBRANCH   1  11
BRANCH   6  26
ATOM     26  C   UNL     1      -0.422  12.533  19.398  0.00  0.00    +0.000 C 
BRANCH  26  27
ATOM     27  C   UNL     1      -1.147  12.745  20.710  0.00  0.00    +0.000 A 
ATOM     28  C   UNL     1      -0.446  13.218  21.832  0.00  0.00    +0.000 A 
ATOM     29  C   UNL     1      -1.089  13.387  23.060  0.00  0.00    +0.000 A 
ATOM     30  C   UNL     1      -2.446  13.091  23.178  0.00  0.00    +0.000 A 
ATOM     31  C   UNL     1      -3.144  12.636  22.066  0.00  0.00    +0.000 A 
ATOM     32  F   UNL     1      -4.449  12.353  22.180  0.00  0.00    +0.000 F 
ATOM     33  C   UNL     1      -2.515  12.463  20.836  0.00  0.00    +0.000 A 
ENDBRANCH  26  27
ENDBRANCH   6  26
TORSDOF 6
ENDMDL
MODEL 4
REMARK VINA RESULT:      -8.6      1.048      1.520
REMARK  Name = 
REMARK  7 active torsions:
REMARK  status: ('A' for Active; 'I' for Inactive)
REMARK    1  A    between atoms: C_1  and  O_2
REMARK    2  A    between atoms: O_2  and  N_3
REMARK    3  A    between atoms: C_4  and  C_5
REMARK    4  A    between atoms: C_11  and  N_12
REMARK    5  A    between atoms: N_12  and  C_13
REMARK    6  A    between atoms: C_18  and  C_19
REMARK    7  A    between atoms: C_19  and  C_20
REMARK                            x       y       z     vdW  Elec       q    Type
REMARK                         _______ _______ _______ _____ _____    ______ ____
ROOT
ATOM      1  C   UNL     1       2.497   7.202  18.546  0.00  0.00    +0.000 A 
ATOM      2  C   UNL     1       2.240   7.058  19.921  0.00  0.00    +0.000 A 
ATOM      3  C   UNL     1       1.540   8.014  20.660  0.00  0.00    +0.000 A 
ATOM      4  C   UNL     1       1.095   9.127  19.956  0.00  0.00    +0.000 A 
ATOM      5  N   UNL     1       0.363  10.218  20.339  0.00  0.00    +0.000 N 
ATOM      6  C   UNL     1       0.231  11.051  19.257  0.00  0.00    +0.000 A 
ATOM      7  N   UNL     1       0.800  10.525  18.188  0.00  0.00    +0.000 NA
ATOM      8  C   UNL     1       1.345   9.332  18.605  0.00  0.00    +0.000 A 
ATOM      9  C   UNL     1       2.064   8.362  17.881  0.00  0.00    +0.000 A 
ATOM     10  H   UNL     1       0.003  10.389  21.267  0.00  0.00    +0.000 HD
ENDROOT
BRANCH   1  11
ATOM     11  N   UNL     1       3.123   6.155  17.839  0.00  0.00    +0.000 N 
ATOM     12  H   UNL     1       3.294   6.320  16.850  0.00  0.00    +0.000 HD
BRANCH  11  19
ATOM     13  C   UNL     1       4.115   4.068  18.634  0.00  0.00    +0.000 A 
ATOM     14  C   UNL     1       3.900   2.744  18.997  0.00  0.00    +0.000 A 
ATOM     15  N   UNL     1       4.897   1.932  19.543  0.00  0.00    +0.000 N 
ATOM     16  N   UNL     1       2.706   2.146  18.877  0.00  0.00    +0.000 NA
ATOM     17  C   UNL     1       1.718   2.900  18.385  0.00  0.00    +0.000 A 
ATOM     18  N   UNL     1       1.818   4.180  18.017  0.00  0.00    +0.000 NA
ATOM     19  C   UNL     1       3.026   4.776  18.139  0.00  0.00    +0.000 A 
ATOM     20  H   UNL     1       5.729   1.892  18.964  0.00  0.00    +0.000 HD
ATOM     21  H   UNL     1       4.492   1.007  19.675  0.00  0.00    +0.000 HD
BRANCH  13  23
ATOM     22  N   UNL     1       5.970   4.797  20.013  0.00  0.00    +0.000 NA
ATOM     23  C   UNL     1       5.434   4.673  18.840  0.00  0.00    +0.000 C 
BRANCH  22  25
ATOM     24  C   UNL     1       7.354   5.844  18.509  0.00  0.00    +0.000 C 
ATOM     25  O   UNL     1       7.226   5.402  19.853  0.00  0.00    +0.000 OA
ENDBRANCH  22  25
ENDBRANCH  13  23
ENDBRANCH  11  19
ENDBRANCH   1  11
BRANCH   6  26
ATOM     26  C   UNL     1      -0.437  12.385  19.366  0.00  0.00    +0.000 C 
BRANCH  26  27
ATOM     27  C   UNL     1      -1.943  12.279  19.258  0.00  0.00    +0.000 A 
ATOM     28  C   UNL     1      -2.760  12.845  20.252  0.00  0.00    +0.000 A 
ATOM     29  C   UNL     1      -4.150  12.728  20.189  0.00  0.00    +0.000 A 
ATOM     30  C   UNL     1      -4.741  12.049  19.126  0.00  0.00    +0.000 A 
ATOM     31  C   UNL     1      -3.935  11.499  18.135  0.00  0.00    +0.000 A 
ATOM     32  F   UNL     1      -4.504  10.846  17.113  0.00  0.00    +0.000 F 
ATOM     33  C   UNL     1      -2.547  11.608  18.186  0.00  0.00    +0.000 A 
ENDBRANCH  26  27
ENDBRANCH   6  26
TORSDOF 6
ENDMDL
MODEL 5
REMARK VINA RESULT:      -8.5      1.388      1.978
REMARK  Name = 
REMARK  7 active torsions:
REMARK  status: ('A' for Active; 'I' for Inactive)
REMARK    1  A    between atoms: C_1  and  O_2
REMARK    2  A    between atoms: O_2  and  N_3
REMARK    3  A    between atoms: C_4  and  C_5
REMARK    4  A    between atoms: C_11  and  N_12
REMARK    5  A    between atoms: N_12  and  C_13
REMARK    6  A    between atoms: C_18  and  C_19
REMARK    7  A    between atoms: C_19  and  C_20
REMARK                            x       y       z     vdW  Elec       q    Type
REMARK                         _______ _______ _______ _____ _____    ______ ____
ROOT
ATOM      1  C   UNL     1       2.623   7.060  18.612  0.00  0.00    +0.000 A 
ATOM      2  C   UNL     1       2.274   6.930  19.968  0.00  0.00    +0.000 A 
ATOM      3  C   UNL     1       1.541   7.902  20.653  0.00  0.00    +0.000 A 
ATOM      4  C   UNL     1       1.160   9.015  19.913  0.00  0.00    +0.000 A 
ATOM      5  N   UNL     1       0.420  10.119  20.241  0.00  0.00    +0.000 N 
ATOM      6  C   UNL     1       0.371  10.945  19.147  0.00  0.00    +0.000 A 
ATOM      7  N   UNL     1       1.000  10.403  18.120  0.00  0.00    +0.000 NA
ATOM      8  C   UNL     1       1.500   9.206  18.580  0.00  0.00    +0.000 A 
ATOM      9  C   UNL     1       2.250   8.220  17.912  0.00  0.00    +0.000 A 
ATOM     10  H   UNL     1       0.002  10.303  21.141  0.00  0.00    +0.000 HD
ENDROOT
BRANCH   1  11
ATOM     11  N   UNL     1       3.278   5.998  17.954  0.00  0.00    +0.000 N 
ATOM     12  H   UNL     1       3.555   6.170  16.990  0.00  0.00    +0.000 HD
BRANCH  11  19
ATOM     13  C   UNL     1       4.149   3.837  18.689  0.00  0.00    +0.000 A 
ATOM     14  C   UNL     1       3.857   2.519  19.020  0.00  0.00    +0.000 A 
ATOM     15  N   UNL     1       4.807   1.635  19.538  0.00  0.00    +0.000 N 
ATOM     16  N   UNL     1       2.629   1.997  18.894  0.00  0.00    +0.000 NA
ATOM     17  C   UNL     1       1.685   2.820  18.429  0.00  0.00    +0.000 A 
ATOM     18  N   UNL     1       1.859   4.101  18.092  0.00  0.00    +0.000 NA
ATOM     19  C   UNL     1       3.100   4.621  18.219  0.00  0.00    +0.000 A 
ATOM     20  H   UNL     1       5.631   1.561  18.951  0.00  0.00    +0.000 HD
ATOM     21  H   UNL     1       4.348   0.733  19.650  0.00  0.00    +0.000 HD
BRANCH  13  23
ATOM     22  N   UNL     1       5.802   5.146  19.883  0.00  0.00    +0.000 NA
ATOM     23  C   UNL     1       5.503   4.356  18.900  0.00  0.00    +0.000 C 
BRANCH  22  25
ATOM     24  C   UNL     1       7.479   5.801  18.457  0.00  0.00    +0.000 C 
ATOM     25  O   UNL     1       7.171   5.444  19.797  0.00  0.00    +0.000 OA
ENDBRANCH  22  25
ENDBRANCH  13  23
ENDBRANCH  11  19
ENDBRANCH   1  11
BRANCH   6  26
ATOM     26  C   UNL     1      -0.283  12.289  19.202  0.00  0.00    +0.000 C 
BRANCH  26  27
ATOM     27  C   UNL     1      -1.794  12.190  19.169  0.00  0.00    +0.000 A 
ATOM     28  C   UNL     1      -2.435  11.587  18.074  0.00  0.00    +0.000 A 
ATOM     29  C   UNL     1      -3.828  11.518  18.009  0.00  0.00    +0.000 A 
ATOM     30  C   UNL     1      -4.597  12.047  19.043  0.00  0.00    +0.000 A 
ATOM     31  C   UNL     1      -3.965  12.633  20.133  0.00  0.00    +0.000 A 
ATOM     32  F   UNL     1      -4.705  13.140  21.128  0.00  0.00    +0.000 F 
ATOM     33  C   UNL     1      -2.576  12.708  20.211  0.00  0.00    +0.000 A 
ENDBRANCH  26  27
ENDBRANCH   6  26
TORSDOF 6
ENDMDL
MODEL 6
REMARK VINA RESULT:      -8.5      0.932      1.523
REMARK  Name = 
REMARK  7 active torsions:
REMARK  status: ('A' for Active; 'I' for Inactive)
REMARK    1  A    between atoms: C_1  and  O_2
REMARK    2  A    between atoms: O_2  and  N_3
REMARK    3  A    between atoms: C_4  and  C_5
REMARK    4  A    between atoms: C_11  and  N_12
REMARK    5  A    between atoms: N_12  and  C_13
REMARK    6  A    between atoms: C_18  and  C_19
REMARK    7  A    between atoms: C_19  and  C_20
REMARK                            x       y       z     vdW  Elec       q    Type
REMARK                         _______ _______ _______ _____ _____    ______ ____
ROOT
ATOM      1  C   UNL     1       2.360   7.116  19.912  0.00  0.00    +0.000 A 
ATOM      2  C   UNL     1       1.781   7.401  21.161  0.00  0.00    +0.000 A 
ATOM      3  C   UNL     1       0.911   8.475  21.360  0.00  0.00    +0.000 A 
ATOM      4  C   UNL     1       0.633   9.253  20.241  0.00  0.00    +0.000 A 
ATOM      5  N   UNL     1      -0.185  10.336  20.063  0.00  0.00    +0.000 N 
ATOM      6  C   UNL     1      -0.064  10.757  18.763  0.00  0.00    +0.000 A 
ATOM      7  N   UNL     1       0.752   9.969  18.087  0.00  0.00    +0.000 NA
ATOM      8  C   UNL     1       1.198   9.032  18.992  0.00  0.00    +0.000 A 
ATOM      9  C   UNL     1       2.083   7.952  18.816  0.00  0.00    +0.000 A 
ATOM     10  H   UNL     1      -0.760  10.764  20.774  0.00  0.00    +0.000 HD
ENDROOT
BRANCH   1  11
ATOM     11  N   UNL     1       3.152   5.959  19.757  0.00  0.00    +0.000 N 
ATOM     12  H   UNL     1       4.099   6.107  19.414  0.00  0.00    +0.000 HD
BRANCH  11  19
ATOM     13  C   UNL     1       3.495   3.715  18.854  0.00  0.00    +0.000 A 
ATOM     14  C   UNL     1       2.978   2.434  18.699  0.00  0.00    +0.000 A 
ATOM     15  N   UNL     1       3.706   1.382  18.139  0.00  0.00    +0.000 N 
ATOM     16  N   UNL     1       1.745   2.098  19.103  0.00  0.00    +0.000 NA
ATOM     17  C   UNL     1       1.027   3.071  19.672  0.00  0.00    +0.000 A 
ATOM     18  N   UNL     1       1.433   4.328  19.875  0.00  0.00    +0.000 NA
ATOM     19  C   UNL     1       2.677   4.660  19.464  0.00  0.00    +0.000 A 
ATOM     20  H   UNL     1       4.074   1.607  17.221  0.00  0.00    +0.000 HD
ATOM     21  H   UNL     1       3.087   0.574  18.102  0.00  0.00    +0.000 HD
BRANCH  13  23
ATOM     22  N   UNL     1       5.833   4.188  19.284  0.00  0.00    +0.000 NA
ATOM     23  C   UNL     1       4.871   3.999  18.437  0.00  0.00    +0.000 C 
BRANCH  22  25
ATOM     24  C   UNL     1       7.553   5.674  18.959  0.00  0.00    +0.000 C 
ATOM     25  O   UNL     1       7.009   4.425  18.557  0.00  0.00    +0.000 OA
ENDBRANCH  22  25
ENDBRANCH  13  23
ENDBRANCH  11  19
ENDBRANCH   1  11
BRANCH   6  26
ATOM     26  C   UNL     1      -0.757  11.985  18.264  0.00  0.00    +0.000 C 
BRANCH  26  27
ATOM     27  C   UNL     1      -2.206  11.720  17.912  0.00  0.00    +0.000 A 
ATOM     28  C   UNL     1      -3.215  11.964  18.859  0.00  0.00    +0.000 A 
ATOM     29  C   UNL     1      -4.553  11.693  18.565  0.00  0.00    +0.000 A 
ATOM     30  C   UNL     1      -4.898  11.181  17.316  0.00  0.00    +0.000 A 
ATOM     31  C   UNL     1      -3.902  10.952  16.374  0.00  0.00    +0.000 A 
ATOM     32  F   UNL     1      -4.235  10.461  15.172  0.00  0.00    +0.000 F 
ATOM     33  C   UNL     1      -2.564  11.217  16.654  0.00  0.00    +0.000 A 
ENDBRANCH  26  27
ENDBRANCH   6  26
TORSDOF 6
ENDMDL
MODEL 7
REMARK VINA RESULT:      -8.5      2.005      2.875
REMARK  Name = 
REMARK  7 active torsions:
REMARK  status: ('A' for Active; 'I' for Inactive)
REMARK    1  A    between atoms: C_1  and  O_2
REMARK    2  A    between atoms: O_2  and  N_3
REMARK    3  A    between atoms: C_4  and  C_5
REMARK    4  A    between atoms: C_11  and  N_12
REMARK    5  A    between atoms: N_12  and  C_13
REMARK    6  A    between atoms: C_18  and  C_19
REMARK    7  A    between atoms: C_19  and  C_20
REMARK                            x       y       z     vdW  Elec       q    Type
REMARK                         _______ _______ _______ _____ _____    ______ ____
ROOT
ATOM      1  C   UNL     1       2.483   7.021  19.497  0.00  0.00    +0.000 A 
ATOM      2  C   UNL     1       2.722   7.435  18.174  0.00  0.00    +0.000 A 
ATOM      3  C   UNL     1       2.227   8.636  17.661  0.00  0.00    +0.000 A 
ATOM      4  C   UNL     1       1.485   9.418  18.539  0.00  0.00    +0.000 A 
ATOM      5  N   UNL     1       0.893  10.643  18.393  0.00  0.00    +0.000 N 
ATOM      6  C   UNL     1       0.245  10.950  19.562  0.00  0.00    +0.000 A 
ATOM      7  N   UNL     1       0.433  10.006  20.466  0.00  0.00    +0.000 NA
ATOM      8  C   UNL     1       1.198   9.044  19.846  0.00  0.00    +0.000 A 
ATOM      9  C   UNL     1       1.695   7.823  20.339  0.00  0.00    +0.000 A 
ATOM     10  H   UNL     1       0.912  11.212  17.559  0.00  0.00    +0.000 HD
ENDROOT
BRANCH   1  11
ATOM     11  N   UNL     1       3.093   5.845  19.981  0.00  0.00    +0.000 N 
ATOM     12  H   UNL     1       4.098   5.892  20.134  0.00  0.00    +0.000 HD
BRANCH  11  19
ATOM     13  C   UNL     1       3.456   3.602  19.084  0.00  0.00    +0.000 A 
ATOM     14  C   UNL     1       2.983   2.298  18.990  0.00  0.00    +0.000 A 
ATOM     15  N   UNL     1       3.706   1.267  18.386  0.00  0.00    +0.000 N 
ATOM     16  N   UNL     1       1.802   1.919  19.499  0.00  0.00    +0.000 NA
ATOM     17  C   UNL     1       1.093   2.872  20.112  0.00  0.00    +0.000 A 
ATOM     18  N   UNL     1       1.460   4.147  20.264  0.00  0.00    +0.000 NA
ATOM     19  C   UNL     1       2.651   4.523  19.747  0.00  0.00    +0.000 A 
ATOM     20  H   UNL     1       3.987   1.492  17.437  0.00  0.00    +0.000 HD
ATOM     21  H   UNL     1       3.121   0.435  18.411  0.00  0.00    +0.000 HD
BRANCH  13  23
ATOM     22  N   UNL     1       5.782   4.242  19.311  0.00  0.00    +0.000 NA
ATOM     23  C   UNL     1       4.779   3.935  18.550  0.00  0.00    +0.000 C 
BRANCH  22  25
ATOM     24  C   UNL     1       6.446   4.595  17.141  0.00  0.00    +0.000 C 
ATOM     25  O   UNL     1       6.889   4.493  18.487  0.00  0.00    +0.000 OA
ENDBRANCH  22  25
ENDBRANCH  13  23
ENDBRANCH  11  19
ENDBRANCH   1  11
BRANCH   6  26
ATOM     26  C   UNL     1      -0.587  12.185  19.702  0.00  0.00    +0.000 C 
BRANCH  26  27
ATOM     27  C   UNL     1       0.246  13.447  19.626  0.00  0.00    +0.000 A 
ATOM     28  C   UNL     1       1.439  13.546  20.362  0.00  0.00    +0.000 A 
ATOM     29  C   UNL     1       2.203  14.714  20.333  0.00  0.00    +0.000 A 
ATOM     30  C   UNL     1       1.786  15.796  19.562  0.00  0.00    +0.000 A 
ATOM     31  C   UNL     1       0.613  15.696  18.823  0.00  0.00    +0.000 A 
ATOM     32  F   UNL     1       0.213  16.736  18.080  0.00  0.00    +0.000 F 
ATOM     33  C   UNL     1      -0.159  14.536  18.843  0.00  0.00    +0.000 A 
ENDBRANCH  26  27
ENDBRANCH   6  26
TORSDOF 6
ENDMDL
MODEL 8
REMARK VINA RESULT:      -8.5      3.975      9.084
REMARK  Name = 
REMARK  7 active torsions:
REMARK  status: ('A' for Active; 'I' for Inactive)
REMARK    1  A    between atoms: C_1  and  O_2
REMARK    2  A    between atoms: O_2  and  N_3
REMARK    3  A    between atoms: C_4  and  C_5
REMARK    4  A    between atoms: C_11  and  N_12
REMARK    5  A    between atoms: N_12  and  C_13
REMARK    6  A    between atoms: C_18  and  C_19
REMARK    7  A    between atoms: C_19  and  C_20
REMARK                            x       y       z     vdW  Elec       q    Type
REMARK                         _______ _______ _______ _____ _____    ______ ____
ROOT
ATOM      1  C   UNL     1      -0.593  10.922  19.789  0.00  0.00    +0.000 A 
ATOM      2  C   UNL     1      -0.551  10.621  21.162  0.00  0.00    +0.000 A 
ATOM      3  C   UNL     1       0.220   9.579  21.681  0.00  0.00    +0.000 A 
ATOM      4  C   UNL     1       0.963   8.850  20.759  0.00  0.00    +0.000 A 
ATOM      5  N   UNL     1       1.839   7.809  20.912  0.00  0.00    +0.000 N 
ATOM      6  C   UNL     1       2.272   7.425  19.668  0.00  0.00    +0.000 A 
ATOM      7  N   UNL     1       1.757   8.200  18.731  0.00  0.00    +0.000 NA
ATOM      8  C   UNL     1       0.938   9.088  19.391  0.00  0.00    +0.000 A 
ATOM      9  C   UNL     1       0.143  10.135  18.888  0.00  0.00    +0.000 A 
ATOM     10  H   UNL     1       2.101   7.383  21.789  0.00  0.00    +0.000 HD
ENDROOT
BRANCH   1  11
ATOM     11  N   UNL     1      -1.315  12.049  19.343  0.00  0.00    +0.000 N 
ATOM     12  H   UNL     1      -0.846  12.948  19.436  0.00  0.00    +0.000 HD
BRANCH  11  19
ATOM     13  C   UNL     1      -3.482  11.687  18.276  0.00  0.00    +0.000 A 
ATOM     14  C   UNL     1      -4.864  11.770  18.396  0.00  0.00    +0.000 A 
ATOM     15  N   UNL     1      -5.744  11.277  17.430  0.00  0.00    +0.000 N 
ATOM     16  N   UNL     1      -5.466  12.308  19.466  0.00  0.00    +0.000 NA
ATOM     17  C   UNL     1      -4.657  12.765  20.427  0.00  0.00    +0.000 A 
ATOM     18  N   UNL     1      -3.322  12.724  20.413  0.00  0.00    +0.000 NA
ATOM     19  C   UNL     1      -2.722  12.182  19.330  0.00  0.00    +0.000 A 
ATOM     20  H   UNL     1      -5.558  11.651  16.505  0.00  0.00    +0.000 HD
ATOM     21  H   UNL     1      -6.688  11.503  17.739  0.00  0.00    +0.000 HD
BRANCH  13  23
ATOM     22  N   UNL     1      -3.285  11.294  15.892  0.00  0.00    +0.000 NA
ATOM     23  C   UNL     1      -2.893  11.039  17.101  0.00  0.00    +0.000 C 
BRANCH  22  25
ATOM     24  C   UNL     1      -3.353  10.025  13.979  0.00  0.00    +0.000 C 
ATOM     25  O   UNL     1      -2.514  10.518  15.014  0.00  0.00    +0.000 OA
ENDBRANCH  22  25
ENDBRANCH  13  23
ENDBRANCH  11  19
ENDBRANCH   1  11
BRANCH   6  26
ATOM     26  C   UNL     1       3.169   6.244  19.475  0.00  0.00    +0.000 C 
BRANCH  26  27
ATOM     27  C   UNL     1       2.407   4.936  19.513  0.00  0.00    +0.000 A 
ATOM     28  C   UNL     1       1.991   4.331  18.315  0.00  0.00    +0.000 A 
ATOM     29  C   UNL     1       1.257   3.143  18.330  0.00  0.00    +0.000 A 
ATOM     30  C   UNL     1       0.936   2.542  19.545  0.00  0.00    +0.000 A 
ATOM     31  C   UNL     1       1.357   3.133  20.730  0.00  0.00    +0.000 A 
ATOM     32  F   UNL     1       1.049   2.554  21.899  0.00  0.00    +0.000 F 
ATOM     33  C   UNL     1       2.090   4.317  20.730  0.00  0.00    +0.000 A 
ENDBRANCH  26  27
ENDBRANCH   6  26
TORSDOF 6
ENDMDL
MODEL 9
REMARK VINA RESULT:      -8.5      2.033      2.462
REMARK  Name = 
REMARK  7 active torsions:
REMARK  status: ('A' for Active; 'I' for Inactive)
REMARK    1  A    between atoms: C_1  and  O_2
REMARK    2  A    between atoms: O_2  and  N_3
REMARK    3  A    between atoms: C_4  and  C_5
REMARK    4  A    between atoms: C_11  and  N_12
REMARK    5  A    between atoms: N_12  and  C_13
REMARK    6  A    between atoms: C_18  and  C_19
REMARK    7  A    between atoms: C_19  and  C_20
REMARK                            x       y       z     vdW  Elec       q    Type
REMARK                         _______ _______ _______ _____ _____    ______ ____
ROOT
ATOM      1  C   UNL     1       2.122   7.318  19.775  0.00  0.00    +0.000 A 
ATOM      2  C   UNL     1       2.401   7.607  18.428  0.00  0.00    +0.000 A 
ATOM      3  C   UNL     1       2.011   8.801  17.819  0.00  0.00    +0.000 A 
ATOM      4  C   UNL     1       1.330   9.706  18.625  0.00  0.00    +0.000 A 
ATOM      5  N   UNL     1       0.842  10.961  18.379  0.00  0.00    +0.000 N 
ATOM      6  C   UNL     1       0.213  11.409  19.513  0.00  0.00    +0.000 A 
ATOM      7  N   UNL     1       0.318  10.525  20.488  0.00  0.00    +0.000 NA
ATOM      8  C   UNL     1       1.005   9.459  19.953  0.00  0.00    +0.000 A 
ATOM      9  C   UNL     1       1.397   8.244  20.544  0.00  0.00    +0.000 A 
ATOM     10  H   UNL     1       0.912  11.460  17.504  0.00  0.00    +0.000 HD
ENDROOT
BRANCH   1  11
ATOM     11  N   UNL     1       2.630   6.137  20.356  0.00  0.00    +0.000 N 
ATOM     12  H   UNL     1       3.500   6.231  20.876  0.00  0.00    +0.000 HD
BRANCH  11  19
ATOM     13  C   UNL     1       3.472   4.139  19.230  0.00  0.00    +0.000 A 
ATOM     14  C   UNL     1       3.231   2.817  18.875  0.00  0.00    +0.000 A 
ATOM     15  N   UNL     1       4.190   2.004  18.266  0.00  0.00    +0.000 N 
ATOM     16  N   UNL     1       2.063   2.205  19.116  0.00  0.00    +0.000 NA
ATOM     17  C   UNL     1       1.129   2.941  19.726  0.00  0.00    +0.000 A 
ATOM     18  N   UNL     1       1.263   4.212  20.115  0.00  0.00    +0.000 NA
ATOM     19  C   UNL     1       2.443   4.823  19.867  0.00  0.00    +0.000 A 
ATOM     20  H   UNL     1       4.570   2.417  17.420  0.00  0.00    +0.000 HD
ATOM     21  H   UNL     1       3.747   1.108  18.075  0.00  0.00    +0.000 HD
BRANCH  13  23
ATOM     22  N   UNL     1       5.895   4.123  19.288  0.00  0.00    +0.000 NA
ATOM     23  C   UNL     1       4.791   4.729  18.982  0.00  0.00    +0.000 C 
BRANCH  22  25
ATOM     24  C   UNL     1       7.412   4.567  17.621  0.00  0.00    +0.000 C 
ATOM     25  O   UNL     1       6.962   4.954  18.912  0.00  0.00    +0.000 OA
ENDBRANCH  22  25
ENDBRANCH  13  23
ENDBRANCH  11  19
ENDBRANCH   1  11
BRANCH   6  26
ATOM     26  C   UNL     1      -0.515  12.714  19.547  0.00  0.00    +0.000 C 
BRANCH  26  27
ATOM     27  C   UNL     1      -1.321  12.886  20.818  0.00  0.00    +0.000 A 
ATOM     28  C   UNL     1      -2.676  12.516  20.846  0.00  0.00    +0.000 A 
ATOM     29  C   UNL     1      -3.445  12.699  21.997  0.00  0.00    +0.000 A 
ATOM     30  C   UNL     1      -2.863  13.249  23.138  0.00  0.00    +0.000 A 
ATOM     31  C   UNL     1      -1.520  13.604  23.116  0.00  0.00    +0.000 A 
ATOM     32  F   UNL     1      -0.961  14.132  24.214  0.00  0.00    +0.000 F 
ATOM     33  C   UNL     1      -0.742  13.427  21.974  0.00  0.00    +0.000 A 
ENDBRANCH  26  27
ENDBRANCH   6  26
TORSDOF 6
ENDMDL
