MODEL 1
REMARK VINA RESULT:      -8.8      0.000      0.000
REMARK  Name = 
REMARK  4 active torsions:
REMARK  status: ('A' for Active; 'I' for Inactive)
REMARK    1  A    between atoms: C_1  and  C_2
REMARK    2  A    between atoms: C_4  and  C_5
REMARK    3  A    between atoms: N_7  and  C_8
REMARK    4  A    between atoms: C_11  and  C_12
REMARK                            x       y       z     vdW  Elec       q    Type
REMARK                         _______ _______ _______ _____ _____    ______ ____
ROOT
ATOM      1  C   UNL     1       0.091  10.086  21.273  0.00  0.00    +0.000 A 
ATOM      2  N   UNL     1       0.261  10.085  22.580  0.00  0.00    +0.000 NA
ATOM      3  N   UNL     1      -0.426  11.155  23.085  0.00  0.00    +0.000 NA
ATOM      4  C   UNL     1      -1.030  11.785  22.086  0.00  0.00    +0.000 A 
ATOM      5  N   UNL     1      -0.977  10.947  20.988  0.00  0.00    +0.000 N 
ATOM      6  C   UNL     1      -1.637  11.025  19.746  0.00  0.00    +0.000 A 
ATOM      7  C   UNL     1      -1.773   9.847  18.995  0.00  0.00    +0.000 A 
ATOM      8  C   UNL     1      -1.686   9.925  17.616  0.00  0.00    +0.000 A 
ATOM      9  C   UNL     1      -1.539  11.180  17.066  0.00  0.00    +0.000 A 
ATOM     10  N   UNL     1      -1.668  12.327  17.778  0.00  0.00    +0.000 NA
ATOM     11  C   UNL     1      -1.773  12.249  19.124  0.00  0.00    +0.000 A 
ATOM     12  N   UNL     1      -2.001  13.454  19.756  0.00  0.00    +0.000 N 
ATOM     13  C   UNL     1      -2.093  13.859  21.092  0.00  0.00    +0.000 A 
ATOM     14  C   UNL     1      -2.692  15.117  21.334  0.00  0.00    +0.000 A 
ATOM     15  C   UNL     1      -2.734  15.681  22.609  0.00  0.00    +0.000 A 
ATOM     16  C   UNL     1      -2.187  14.990  23.677  0.00  0.00    +0.000 A 
ATOM     17  C   UNL     1      -1.666  13.713  23.470  0.00  0.00    +0.000 A 
ATOM     18  C   UNL     1      -1.642  13.112  22.190  0.00  0.00    +0.000 A 
ATOM     19  H   UNL     1      -2.110  14.184  19.060  0.00  0.00    +0.000 HD
ENDROOT
BRANCH   1  23
ATOM     20  C   UNL     1       2.601   8.012  18.421  0.00  0.00    +0.000 A 
ATOM     21  C   UNL     1       2.191   7.409  19.613  0.00  0.00    +0.000 A 
ATOM     22  C   UNL     1       1.381   8.090  20.537  0.00  0.00    +0.000 A 
ATOM     23  C   UNL     1       0.968   9.399  20.301  0.00  0.00    +0.000 A 
ATOM     24  C   UNL     1       1.463  10.033  19.146  0.00  0.00    +0.000 A 
ATOM     25  C   UNL     1       2.240   9.341  18.201  0.00  0.00    +0.000 A 
BRANCH  20  28
ATOM     26  C   UNL     1       4.302   6.344  17.655  0.00  0.00    +0.000 C 
ATOM     27  O   UNL     1       4.526   5.814  18.732  0.00  0.00    +0.000 OA
ATOM     28  N   UNL     1       3.385   7.359  17.439  0.00  0.00    +0.000 N 
ATOM     29  H   UNL     1       3.248   7.618  16.469  0.00  0.00    +0.000 HD
BRANCH  26  33
ATOM     30  C   UNL     1       6.045   3.635  13.727  0.00  0.00    +0.000 C 
ATOM     31  C   UNL     1       5.697   4.621  14.769  0.00  0.00    +0.000 A 
ATOM     32  C   UNL     1       4.888   4.585  15.872  0.00  0.00    +0.000 A 
ATOM     33  C   UNL     1       4.989   5.880  16.441  0.00  0.00    +0.000 A 
ATOM     34  N   UNL     1       5.809   6.658  15.714  0.00  0.00    +0.000 NA
ATOM     35  O   UNL     1       6.258   5.858  14.670  0.00  0.00    +0.000 OA
ENDBRANCH  26  33
ENDBRANCH  20  28
ENDBRANCH   1  23
TORSDOF 3
ENDMDL
MODEL 2
REMARK VINA RESULT:      -8.8      2.214      3.313
REMARK  Name = 
REMARK  4 active torsions:
REMARK  status: ('A' for Active; 'I' for Inactive)
REMARK    1  A    between atoms: C_1  and  C_2
REMARK    2  A    between atoms: C_4  and  C_5
REMARK    3  A    between atoms: N_7  and  C_8
REMARK    4  A    between atoms: C_11  and  C_12
REMARK                            x       y       z     vdW  Elec       q    Type
REMARK                         _______ _______ _______ _____ _____    ______ ____
ROOT
ATOM      1  C   UNL     1      -1.316  11.339  19.107  0.00  0.00    +0.000 A 
ATOM      2  N   UNL     1      -2.579  11.126  18.793  0.00  0.00    +0.000 NA
ATOM      3  N   UNL     1      -3.325  12.088  19.416  0.00  0.00    +0.000 NA
ATOM      4  C   UNL     1      -2.512  12.895  20.085  0.00  0.00    +0.000 A 
ATOM      5  N   UNL     1      -1.229  12.630  19.645  0.00  0.00    +0.000 N 
ATOM      6  C   UNL     1      -0.025  13.330  19.861  0.00  0.00    +0.000 A 
ATOM      7  C   UNL     1       1.029  13.127  18.957  0.00  0.00    +0.000 A 
ATOM      8  C   UNL     1       2.326  13.122  19.440  0.00  0.00    +0.000 A 
ATOM      9  C   UNL     1       2.497  13.389  20.781  0.00  0.00    +0.000 A 
ATOM     10  N   UNL     1       1.503  13.836  21.587  0.00  0.00    +0.000 NA
ATOM     11  C   UNL     1       0.238  13.859  21.108  0.00  0.00    +0.000 A 
ATOM     12  N   UNL     1      -0.691  14.422  21.959  0.00  0.00    +0.000 N 
ATOM     13  C   UNL     1      -2.081  14.581  21.926  0.00  0.00    +0.000 A 
ATOM     14  C   UNL     1      -2.632  15.527  22.821  0.00  0.00    +0.000 A 
ATOM     15  C   UNL     1      -4.010  15.691  22.965  0.00  0.00    +0.000 A 
ATOM     16  C   UNL     1      -4.870  14.916  22.204  0.00  0.00    +0.000 A 
ATOM     17  C   UNL     1      -4.342  14.037  21.259  0.00  0.00    +0.000 A 
ATOM     18  C   UNL     1      -2.950  13.880  21.076  0.00  0.00    +0.000 A 
ATOM     19  H   UNL     1      -0.221  14.776  22.784  0.00  0.00    +0.000 HD
ENDROOT
BRANCH   1  23
ATOM     20  C   UNL     1       1.891   8.448  18.812  0.00  0.00    +0.000 A 
ATOM     21  C   UNL     1       1.307   9.014  17.676  0.00  0.00    +0.000 A 
ATOM     22  C   UNL     1       0.262   9.947  17.779  0.00  0.00    +0.000 A 
ATOM     23  C   UNL     1      -0.237  10.332  19.022  0.00  0.00    +0.000 A 
ATOM     24  C   UNL     1       0.290   9.687  20.155  0.00  0.00    +0.000 A 
ATOM     25  C   UNL     1       1.362   8.783  20.057  0.00  0.00    +0.000 A 
BRANCH  20  28
ATOM     26  C   UNL     1       2.891   6.176  18.500  0.00  0.00    +0.000 C 
ATOM     27  O   UNL     1       1.872   5.574  18.201  0.00  0.00    +0.000 OA
ATOM     28  N   UNL     1       2.970   7.532  18.766  0.00  0.00    +0.000 N 
ATOM     29  H   UNL     1       3.908   7.891  18.899  0.00  0.00    +0.000 HD
BRANCH  26  33
ATOM     30  C   UNL     1       7.671   4.621  17.765  0.00  0.00    +0.000 C 
ATOM     31  C   UNL     1       6.269   4.866  18.156  0.00  0.00    +0.000 A 
ATOM     32  C   UNL     1       5.327   5.782  17.773  0.00  0.00    +0.000 A 
ATOM     33  C   UNL     1       4.181   5.472  18.549  0.00  0.00    +0.000 A 
ATOM     34  N   UNL     1       4.423   4.430  19.363  0.00  0.00    +0.000 NA
ATOM     35  O   UNL     1       5.734   4.048  19.104  0.00  0.00    +0.000 OA
ENDBRANCH  26  33
ENDBRANCH  20  28
ENDBRANCH   1  23
TORSDOF 3
ENDMDL
MODEL 3
REMARK VINA RESULT:      -8.4      0.922      1.257
REMARK  Name = 
REMARK  4 active torsions:
REMARK  status: ('A' for Active; 'I' for Inactive)
REMARK    1  A    between atoms: C_1  and  C_2
REMARK    2  A    between atoms: C_4  and  C_5
REMARK    3  A    between atoms: N_7  and  C_8
REMARK    4  A    between atoms: C_11  and  C_12
REMARK                            x       y       z     vdW  Elec       q    Type
REMARK                         _______ _______ _______ _____ _____    ______ ____
ROOT
ATOM      1  C   UNL     1       0.084  10.205  21.388  0.00  0.00    +0.000 A 
ATOM      2  N   UNL     1       0.290  10.301  22.687  0.00  0.00    +0.000 NA
ATOM      3  N   UNL     1      -0.251  11.488  23.101  0.00  0.00    +0.000 NA
ATOM      4  C   UNL     1      -0.804  12.093  22.059  0.00  0.00    +0.000 A 
ATOM      5  N   UNL     1      -0.882  11.159  21.043  0.00  0.00    +0.000 N 
ATOM      6  C   UNL     1      -1.563  11.203  19.811  0.00  0.00    +0.000 A 
ATOM      7  C   UNL     1      -1.858   9.987  19.174  0.00  0.00    +0.000 A 
ATOM      8  C   UNL     1      -1.801   9.929  17.793  0.00  0.00    +0.000 A 
ATOM      9  C   UNL     1      -1.523  11.103  17.127  0.00  0.00    +0.000 A 
ATOM     10  N   UNL     1      -1.495  12.316  17.730  0.00  0.00    +0.000 NA
ATOM     11  C   UNL     1      -1.571  12.373  19.080  0.00  0.00    +0.000 A 
ATOM     12  N   UNL     1      -1.637  13.650  19.601  0.00  0.00    +0.000 N 
ATOM     13  C   UNL     1      -1.643  14.182  20.895  0.00  0.00    +0.000 A 
ATOM     14  C   UNL     1      -2.082  15.519  21.028  0.00  0.00    +0.000 A 
ATOM     15  C   UNL     1      -2.021  16.197  22.246  0.00  0.00    +0.000 A 
ATOM     16  C   UNL     1      -1.529  15.544  23.364  0.00  0.00    +0.000 A 
ATOM     17  C   UNL     1      -1.169  14.200  23.268  0.00  0.00    +0.000 A 
ATOM     18  C   UNL     1      -1.253  13.487  22.050  0.00  0.00    +0.000 A 
ATOM     19  H   UNL     1      -1.679  14.321  18.842  0.00  0.00    +0.000 HD
ENDROOT
BRANCH   1  23
ATOM     20  C   UNL     1       2.380   7.713  18.695  0.00  0.00    +0.000 A 
ATOM     21  C   UNL     1       2.033   9.025  18.364  0.00  0.00    +0.000 A 
ATOM     22  C   UNL     1       1.282   9.826  19.241  0.00  0.00    +0.000 A 
ATOM     23  C   UNL     1       0.846   9.333  20.469  0.00  0.00    +0.000 A 
ATOM     24  C   UNL     1       1.117   7.982  20.753  0.00  0.00    +0.000 A 
ATOM     25  C   UNL     1       1.901   7.191  19.896  0.00  0.00    +0.000 A 
BRANCH  20  28
ATOM     26  C   UNL     1       4.100   5.943  18.283  0.00  0.00    +0.000 C 
ATOM     27  O   UNL     1       4.345   5.660  19.445  0.00  0.00    +0.000 OA
ATOM     28  N   UNL     1       3.165   6.875  17.866  0.00  0.00    +0.000 N 
ATOM     29  H   UNL     1       3.013   6.916  16.865  0.00  0.00    +0.000 HD
BRANCH  26  33
ATOM     30  C   UNL     1       6.638   4.713  14.057  0.00  0.00    +0.000 C 
ATOM     31  C   UNL     1       5.888   4.801  15.325  0.00  0.00    +0.000 A 
ATOM     32  C   UNL     1       5.395   5.844  16.062  0.00  0.00    +0.000 A 
ATOM     33  C   UNL     1       4.782   5.238  17.188  0.00  0.00    +0.000 A 
ATOM     34  N   UNL     1       4.907   3.900  17.137  0.00  0.00    +0.000 NA
ATOM     35  O   UNL     1       5.594   3.632  15.959  0.00  0.00    +0.000 OA
ENDBRANCH  26  33
ENDBRANCH  20  28
ENDBRANCH   1  23
TORSDOF 3
ENDMDL
MODEL 4
REMARK VINA RESULT:      -8.3      2.190      3.412
REMARK  Name = 
REMARK  4 active torsions:
REMARK  status: ('A' for Active; 'I' for Inactive)
REMARK    1  A    between atoms: C_1  and  C_2
REMARK    2  A    between atoms: C_4  and  C_5
REMARK    3  A    between atoms: N_7  and  C_8
REMARK    4  A    between atoms: C_11  and  C_12
REMARK                            x       y       z     vdW  Elec       q    Type
REMARK                         _______ _______ _______ _____ _____    ______ ____
ROOT
ATOM      1  C   UNL     1      -1.506  11.836  19.576  0.00  0.00    +0.000 A 
ATOM      2  N   UNL     1      -2.792  11.652  19.349  0.00  0.00    +0.000 NA
ATOM      3  N   UNL     1      -3.473  12.611  20.049  0.00  0.00    +0.000 NA
ATOM      4  C   UNL     1      -2.599  13.385  20.677  0.00  0.00    +0.000 A 
ATOM      5  N   UNL     1      -1.356  13.110  20.139  0.00  0.00    +0.000 N 
ATOM      6  C   UNL     1      -0.127  13.784  20.285  0.00  0.00    +0.000 A 
ATOM      7  C   UNL     1       0.856  13.587  19.303  0.00  0.00    +0.000 A 
ATOM      8  C   UNL     1       2.184  13.546  19.690  0.00  0.00    +0.000 A 
ATOM      9  C   UNL     1       2.456  13.775  21.022  0.00  0.00    +0.000 A 
ATOM     10  N   UNL     1       1.531  14.217  21.908  0.00  0.00    +0.000 NA
ATOM     11  C   UNL     1       0.235  14.275  21.522  0.00  0.00    +0.000 A 
ATOM     12  N   UNL     1      -0.620  14.831  22.452  0.00  0.00    +0.000 N 
ATOM     13  C   UNL     1      -2.005  15.015  22.524  0.00  0.00    +0.000 A 
ATOM     14  C   UNL     1      -2.472  15.947  23.479  0.00  0.00    +0.000 A 
ATOM     15  C   UNL     1      -3.833  16.130  23.726  0.00  0.00    +0.000 A 
ATOM     16  C   UNL     1      -4.760  15.390  23.011  0.00  0.00    +0.000 A 
ATOM     17  C   UNL     1      -4.319  14.528  22.008  0.00  0.00    +0.000 A 
ATOM     18  C   UNL     1      -2.946  14.351  21.721  0.00  0.00    +0.000 A 
ATOM     19  H   UNL     1      -0.085  15.156  23.250  0.00  0.00    +0.000 HD
ENDROOT
BRANCH   1  23
ATOM     20  C   UNL     1       1.524   8.786  19.074  0.00  0.00    +0.000 A 
ATOM     21  C   UNL     1       1.115   9.213  20.340  0.00  0.00    +0.000 A 
ATOM     22  C   UNL     1       0.135  10.208  20.495  0.00  0.00    +0.000 A 
ATOM     23  C   UNL     1      -0.455  10.813  19.388  0.00  0.00    +0.000 A 
ATOM     24  C   UNL     1       0.030  10.448  18.120  0.00  0.00    +0.000 A 
ATOM     25  C   UNL     1       0.981   9.425  17.960  0.00  0.00    +0.000 A 
BRANCH  20  28
ATOM     26  C   UNL     1       2.546   6.545  19.516  0.00  0.00    +0.000 C 
ATOM     27  O   UNL     1       1.742   6.144  20.343  0.00  0.00    +0.000 OA
ATOM     28  N   UNL     1       2.479   7.763  18.861  0.00  0.00    +0.000 N 
ATOM     29  H   UNL     1       3.169   7.898  18.131  0.00  0.00    +0.000 HD
BRANCH  26  33
ATOM     30  C   UNL     1       6.644   4.578  17.248  0.00  0.00    +0.000 C 
ATOM     31  C   UNL     1       5.453   4.918  18.051  0.00  0.00    +0.000 A 
ATOM     32  C   UNL     1       4.608   5.994  18.080  0.00  0.00    +0.000 A 
ATOM     33  C   UNL     1       3.669   5.694  19.100  0.00  0.00    +0.000 A 
ATOM     34  N   UNL     1       3.940   4.503  19.662  0.00  0.00    +0.000 NA
ATOM     35  O   UNL     1       5.057   4.017  18.992  0.00  0.00    +0.000 OA
ENDBRANCH  26  33
ENDBRANCH  20  28
ENDBRANCH   1  23
TORSDOF 3
ENDMDL
MODEL 5
REMARK VINA RESULT:      -8.0      3.028     10.986
REMARK  Name = 
REMARK  4 active torsions:
REMARK  status: ('A' for Active; 'I' for Inactive)
REMARK    1  A    between atoms: C_1  and  C_2
REMARK    2  A    between atoms: C_4  and  C_5
REMARK    3  A    between atoms: N_7  and  C_8
REMARK    4  A    between atoms: C_11  and  C_12
REMARK                            x       y       z     vdW  Elec       q    Type
REMARK                         _______ _______ _______ _____ _____    ______ ____
ROOT
ATOM      1  C   UNL     1       3.916   4.426  17.012  0.00  0.00    +0.000 A 
ATOM      2  N   UNL     1       3.251   3.477  16.384  0.00  0.00    +0.000 NA
ATOM      3  N   UNL     1       3.985   3.121  15.284  0.00  0.00    +0.000 NA
ATOM      4  C   UNL     1       5.101   3.837  15.264  0.00  0.00    +0.000 A 
ATOM      5  N   UNL     1       5.223   4.431  16.507  0.00  0.00    +0.000 N 
ATOM      6  C   UNL     1       6.308   5.113  17.092  0.00  0.00    +0.000 A 
ATOM      7  C   UNL     1       6.347   5.217  18.491  0.00  0.00    +0.000 A 
ATOM      8  C   UNL     1       6.842   6.378  19.058  0.00  0.00    +0.000 A 
ATOM      9  C   UNL     1       7.333   7.336  18.197  0.00  0.00    +0.000 A 
ATOM     10  N   UNL     1       7.528   7.121  16.873  0.00  0.00    +0.000 NA
ATOM     11  C   UNL     1       7.061   5.977  16.324  0.00  0.00    +0.000 A 
ATOM     12  N   UNL     1       7.392   5.797  14.996  0.00  0.00    +0.000 N 
ATOM     13  C   UNL     1       7.071   4.840  14.026  0.00  0.00    +0.000 A 
ATOM     14  C   UNL     1       7.892   4.803  12.876  0.00  0.00    +0.000 A 
ATOM     15  C   UNL     1       7.604   3.976  11.790  0.00  0.00    +0.000 A 
ATOM     16  C   UNL     1       6.489   3.156  11.837  0.00  0.00    +0.000 A 
ATOM     17  C   UNL     1       5.716   3.120  12.997  0.00  0.00    +0.000 A 
ATOM     18  C   UNL     1       6.010   3.927  14.120  0.00  0.00    +0.000 A 
ATOM     19  H   UNL     1       7.994   6.554  14.693  0.00  0.00    +0.000 HD
ENDROOT
BRANCH   1  23
ATOM     20  C   UNL     1       2.139   7.260  19.759  0.00  0.00    +0.000 A 
ATOM     21  C   UNL     1       2.757   7.673  18.576  0.00  0.00    +0.000 A 
ATOM     22  C   UNL     1       3.337   6.748  17.692  0.00  0.00    +0.000 A 
ATOM     23  C   UNL     1       3.326   5.383  17.972  0.00  0.00    +0.000 A 
ATOM     24  C   UNL     1       2.789   4.984  19.209  0.00  0.00    +0.000 A 
ATOM     25  C   UNL     1       2.172   5.903  20.076  0.00  0.00    +0.000 A 
BRANCH  20  28
ATOM     26  C   UNL     1       0.702   9.224  20.342  0.00  0.00    +0.000 C 
ATOM     27  O   UNL     1       0.363   9.537  19.211  0.00  0.00    +0.000 OA
ATOM     28  N   UNL     1       1.507   8.145  20.665  0.00  0.00    +0.000 N 
ATOM     29  H   UNL     1       1.609   7.966  21.658  0.00  0.00    +0.000 HD
BRANCH  26  33
ATOM     30  C   UNL     1      -1.624  12.521  23.428  0.00  0.00    +0.000 C 
ATOM     31  C   UNL     1      -0.842  11.462  22.762  0.00  0.00    +0.000 A 
ATOM     32  C   UNL     1      -0.669  11.095  21.455  0.00  0.00    +0.000 A 
ATOM     33  C   UNL     1       0.207   9.981  21.501  0.00  0.00    +0.000 A 
ATOM     34  N   UNL     1       0.537   9.685  22.770  0.00  0.00    +0.000 NA
ATOM     35  O   UNL     1      -0.118  10.626  23.556  0.00  0.00    +0.000 OA
ENDBRANCH  26  33
ENDBRANCH  20  28
ENDBRANCH   1  23
TORSDOF 3
ENDMDL
MODEL 6
REMARK VINA RESULT:      -8.0      2.368      4.045
REMARK  Name = 
REMARK  4 active torsions:
REMARK  status: ('A' for Active; 'I' for Inactive)
REMARK    1  A    between atoms: C_1  and  C_2
REMARK    2  A    between atoms: C_4  and  C_5
REMARK    3  A    between atoms: N_7  and  C_8
REMARK    4  A    between atoms: C_11  and  C_12
REMARK                            x       y       z     vdW  Elec       q    Type
REMARK                         _______ _______ _______ _____ _____    ______ ____
ROOT
ATOM      1  C   UNL     1      -2.101  12.750  21.001  0.00  0.00    +0.000 A 
ATOM      2  N   UNL     1      -3.413  12.657  21.096  0.00  0.00    +0.000 NA
ATOM      3  N   UNL     1      -3.841  13.690  21.885  0.00  0.00    +0.000 NA
ATOM      4  C   UNL     1      -2.792  14.418  22.244  0.00  0.00    +0.000 A 
ATOM      5  N   UNL     1      -1.736  14.029  21.441  0.00  0.00    +0.000 N 
ATOM      6  C   UNL     1      -0.467  14.611  21.254  0.00  0.00    +0.000 A 
ATOM      7  C   UNL     1       0.235  14.303  20.078  0.00  0.00    +0.000 A 
ATOM      8  C   UNL     1       1.611  14.176  20.140  0.00  0.00    +0.000 A 
ATOM      9  C   UNL     1       2.211  14.432  21.355  0.00  0.00    +0.000 A 
ATOM     10  N   UNL     1       1.558  14.976  22.410  0.00  0.00    +0.000 NA
ATOM     11  C   UNL     1       0.214  15.119  22.341  0.00  0.00    +0.000 A 
ATOM     12  N   UNL     1      -0.353  15.772  23.416  0.00  0.00    +0.000 N 
ATOM     13  C   UNL     1      -1.665  16.064  23.806  0.00  0.00    +0.000 A 
ATOM     14  C   UNL     1      -1.826  17.064  24.793  0.00  0.00    +0.000 A 
ATOM     15  C   UNL     1      -3.072  17.359  25.346  0.00  0.00    +0.000 A 
ATOM     16  C   UNL     1      -4.190  16.667  24.913  0.00  0.00    +0.000 A 
ATOM     17  C   UNL     1      -4.061  15.737  23.882  0.00  0.00    +0.000 A 
ATOM     18  C   UNL     1      -2.813  15.446  23.287  0.00  0.00    +0.000 A 
ATOM     19  H   UNL     1       0.379  16.084  24.045  0.00  0.00    +0.000 HD
ENDROOT
BRANCH   1  23
ATOM     20  C   UNL     1       0.577   9.558  19.829  0.00  0.00    +0.000 A 
ATOM     21  C   UNL     1      -0.391  10.061  18.956  0.00  0.00    +0.000 A 
ATOM     22  C   UNL     1      -1.261  11.093  19.346  0.00  0.00    +0.000 A 
ATOM     23  C   UNL     1      -1.196  11.644  20.624  0.00  0.00    +0.000 A 
ATOM     24  C   UNL     1      -0.285  11.067  21.527  0.00  0.00    +0.000 A 
ATOM     25  C   UNL     1       0.613  10.062  21.128  0.00  0.00    +0.000 A 
BRANCH  20  28
ATOM     26  C   UNL     1       2.211   8.451  18.291  0.00  0.00    +0.000 C 
ATOM     27  O   UNL     1       2.188   9.272  17.387  0.00  0.00    +0.000 OA
ATOM     28  N   UNL     1       1.502   8.546  19.476  0.00  0.00    +0.000 N 
ATOM     29  H   UNL     1       1.712   7.830  20.163  0.00  0.00    +0.000 HD
BRANCH  26  33
ATOM     30  C   UNL     1       4.462   3.942  18.937  0.00  0.00    +0.000 C 
ATOM     31  C   UNL     1       3.997   5.291  18.556  0.00  0.00    +0.000 A 
ATOM     32  C   UNL     1       2.990   6.104  19.001  0.00  0.00    +0.000 A 
ATOM     33  C   UNL     1       3.081   7.269  18.198  0.00  0.00    +0.000 A 
ATOM     34  N   UNL     1       4.084   7.160  17.309  0.00  0.00    +0.000 NA
ATOM     35  O   UNL     1       4.661   5.918  17.547  0.00  0.00    +0.000 OA
ENDBRANCH  26  33
ENDBRANCH  20  28
ENDBRANCH   1  23
TORSDOF 3
ENDMDL
MODEL 7
REMARK VINA RESULT:      -8.0      5.371      7.077
REMARK  Name = 
REMARK  4 active torsions:
REMARK  status: ('A' for Active; 'I' for Inactive)
REMARK    1  A    between atoms: C_1  and  C_2
REMARK    2  A    between atoms: C_4  and  C_5
REMARK    3  A    between atoms: N_7  and  C_8
REMARK    4  A    between atoms: C_11  and  C_12
REMARK                            x       y       z     vdW  Elec       q    Type
REMARK                         _______ _______ _______ _____ _____    ______ ____
ROOT
ATOM      1  C   UNL     1      -1.287  13.644  20.603  0.00  0.00    +0.000 A 
ATOM      2  N   UNL     1      -2.116  14.450  21.237  0.00  0.00    +0.000 NA
ATOM      3  N   UNL     1      -3.388  14.030  20.961  0.00  0.00    +0.000 NA
ATOM      4  C   UNL     1      -3.326  12.958  20.182  0.00  0.00    +0.000 A 
ATOM      5  N   UNL     1      -2.017  12.515  20.208  0.00  0.00    +0.000 N 
ATOM      6  C   UNL     1      -1.448  11.315  19.739  0.00  0.00    +0.000 A 
ATOM      7  C   UNL     1      -0.217  10.911  20.278  0.00  0.00    +0.000 A 
ATOM      8  C   UNL     1       0.698  10.285  19.450  0.00  0.00    +0.000 A 
ATOM      9  C   UNL     1       0.302  10.036  18.153  0.00  0.00    +0.000 A 
ATOM     10  N   UNL     1      -0.971  10.194  17.717  0.00  0.00    +0.000 NA
ATOM     11  C   UNL     1      -1.870  10.789  18.535  0.00  0.00    +0.000 A 
ATOM     12  N   UNL     1      -3.162  10.817  18.050  0.00  0.00    +0.000 N 
ATOM     13  C   UNL     1      -4.364  11.381  18.493  0.00  0.00    +0.000 A 
ATOM     14  C   UNL     1      -5.550  10.889  17.901  0.00  0.00    +0.000 A 
ATOM     15  C   UNL     1      -6.797  11.452  18.173  0.00  0.00    +0.000 A 
ATOM     16  C   UNL     1      -6.886  12.516  19.056  0.00  0.00    +0.000 A 
ATOM     17  C   UNL     1      -5.737  12.959  19.709  0.00  0.00    +0.000 A 
ATOM     18  C   UNL     1      -4.469  12.381  19.471  0.00  0.00    +0.000 A 
ATOM     19  H   UNL     1      -3.202  10.315  17.170  0.00  0.00    +0.000 HD
ENDROOT
BRANCH   1  23
ATOM     20  C   UNL     1       2.797  14.647  19.579  0.00  0.00    +0.000 A 
ATOM     21  C   UNL     1       1.807  14.516  18.602  0.00  0.00    +0.000 A 
ATOM     22  C   UNL     1       0.484  14.184  18.942  0.00  0.00    +0.000 A 
ATOM     23  C   UNL     1       0.117  13.962  20.267  0.00  0.00    +0.000 A 
ATOM     24  C   UNL     1       1.139  14.000  21.233  0.00  0.00    +0.000 A 
ATOM     25  C   UNL     1       2.454  14.371  20.901  0.00  0.00    +0.000 A 
BRANCH  20  28
ATOM     26  C   UNL     1       4.604  16.291  19.038  0.00  0.00    +0.000 C 
ATOM     27  O   UNL     1       3.933  17.311  19.077  0.00  0.00    +0.000 OA
ATOM     28  N   UNL     1       4.135  15.014  19.296  0.00  0.00    +0.000 N 
ATOM     29  H   UNL     1       4.845  14.291  19.320  0.00  0.00    +0.000 HD
BRANCH  26  33
ATOM     30  C   UNL     1       9.450  15.247  17.928  0.00  0.00    +0.000 C 
ATOM     31  C   UNL     1       8.128  15.809  18.268  0.00  0.00    +0.000 A 
ATOM     32  C   UNL     1       6.889  15.261  18.460  0.00  0.00    +0.000 A 
ATOM     33  C   UNL     1       6.044  16.362  18.750  0.00  0.00    +0.000 A 
ATOM     34  N   UNL     1       6.736  17.514  18.725  0.00  0.00    +0.000 NA
ATOM     35  O   UNL     1       8.047  17.158  18.431  0.00  0.00    +0.000 OA
ENDBRANCH  26  33
ENDBRANCH  20  28
ENDBRANCH   1  23
TORSDOF 3
ENDMDL
MODEL 8
REMARK VINA RESULT:      -7.9      2.056      3.379
REMARK  Name = 
REMARK  4 active torsions:
REMARK  status: ('A' for Active; 'I' for Inactive)
REMARK    1  A    between atoms: C_1  and  C_2
REMARK    2  A    between atoms: C_4  and  C_5
REMARK    3  A    between atoms: N_7  and  C_8
REMARK    4  A    between atoms: C_11  and  C_12
REMARK                            x       y       z     vdW  Elec       q    Type
REMARK                         _______ _______ _______ _____ _____    ______ ____
ROOT
ATOM      1  C   UNL     1      -1.795  12.288  20.105  0.00  0.00    +0.000 A 
ATOM      2  N   UNL     1      -3.105  12.152  20.153  0.00  0.00    +0.000 NA
ATOM      3  N   UNL     1      -3.576  13.036  21.086  0.00  0.00    +0.000 NA
ATOM      4  C   UNL     1      -2.553  13.720  21.582  0.00  0.00    +0.000 A 
ATOM      5  N   UNL     1      -1.472  13.488  20.753  0.00  0.00    +0.000 N 
ATOM      6  C   UNL     1      -0.215  14.121  20.691  0.00  0.00    +0.000 A 
ATOM      7  C   UNL     1       0.518  14.021  19.497  0.00  0.00    +0.000 A 
ATOM      8  C   UNL     1       1.895  13.916  19.571  0.00  0.00    +0.000 A 
ATOM      9  C   UNL     1       2.464  13.988  20.824  0.00  0.00    +0.000 A 
ATOM     10  N   UNL     1       1.777  14.342  21.937  0.00  0.00    +0.000 NA
ATOM     11  C   UNL     1       0.432  14.463  21.860  0.00  0.00    +0.000 A 
ATOM     12  N   UNL     1      -0.173  14.924  23.012  0.00  0.00    +0.000 N 
ATOM     13  C   UNL     1      -1.500  15.121  23.412  0.00  0.00    +0.000 A 
ATOM     14  C   UNL     1      -1.706  15.945  24.542  0.00  0.00    +0.000 A 
ATOM     15  C   UNL     1      -2.970  16.121  25.105  0.00  0.00    +0.000 A 
ATOM     16  C   UNL     1      -4.061  15.482  24.541  0.00  0.00    +0.000 A 
ATOM     17  C   UNL     1      -3.888  14.731  23.379  0.00  0.00    +0.000 A 
ATOM     18  C   UNL     1      -2.621  14.567  22.774  0.00  0.00    +0.000 A 
ATOM     19  H   UNL     1       0.538  15.147  23.700  0.00  0.00    +0.000 HD
ENDROOT
BRANCH   1  23
ATOM     20  C   UNL     1       0.972   9.377  18.492  0.00  0.00    +0.000 A 
ATOM     21  C   UNL     1      -0.156   9.790  17.779  0.00  0.00    +0.000 A 
ATOM     22  C   UNL     1      -1.054  10.731  18.312  0.00  0.00    +0.000 A 
ATOM     23  C   UNL     1      -0.854  11.277  19.578  0.00  0.00    +0.000 A 
ATOM     24  C   UNL     1       0.230  10.785  20.328  0.00  0.00    +0.000 A 
ATOM     25  C   UNL     1       1.151   9.874  19.782  0.00  0.00    +0.000 A 
BRANCH  20  28
ATOM     26  C   UNL     1       2.463   7.375  18.658  0.00  0.00    +0.000 C 
ATOM     27  O   UNL     1       2.140   7.006  19.777  0.00  0.00    +0.000 OA
ATOM     28  N   UNL     1       1.927   8.461  17.988  0.00  0.00    +0.000 N 
ATOM     29  H   UNL     1       2.233   8.569  17.028  0.00  0.00    +0.000 HD
BRANCH  26  33
ATOM     30  C   UNL     1       5.145   3.752  16.315  0.00  0.00    +0.000 C 
ATOM     31  C   UNL     1       4.561   4.973  16.904  0.00  0.00    +0.000 A 
ATOM     32  C   UNL     1       3.449   5.216  17.664  0.00  0.00    +0.000 A 
ATOM     33  C   UNL     1       3.459   6.617  17.886  0.00  0.00    +0.000 A 
ATOM     34  N   UNL     1       4.516   7.188  17.284  0.00  0.00    +0.000 NA
ATOM     35  O   UNL     1       5.209   6.148  16.677  0.00  0.00    +0.000 OA
ENDBRANCH  26  33
ENDBRANCH  20  28
ENDBRANCH   1  23
TORSDOF 3
ENDMDL
MODEL 9
REMARK VINA RESULT:      -7.9      2.305      4.056
REMARK  Name = 
REMARK  4 active torsions:
REMARK  status: ('A' for Active; 'I' for Inactive)
REMARK    1  A    between atoms: C_1  and  C_2
REMARK    2  A    between atoms: C_4  and  C_5
REMARK    3  A    between atoms: N_7  and  C_8
REMARK    4  A    between atoms: C_11  and  C_12
REMARK                            x       y       z     vdW  Elec       q    Type
REMARK                         _______ _______ _______ _____ _____    ______ ____
ROOT
ATOM      1  C   UNL     1      -2.470  12.863  20.491  0.00  0.00    +0.000 A 
ATOM      2  N   UNL     1      -3.780  12.732  20.431  0.00  0.00    +0.000 NA
ATOM      3  N   UNL     1      -4.325  13.685  21.248  0.00  0.00    +0.000 NA
ATOM      4  C   UNL     1      -3.345  14.405  21.780  0.00  0.00    +0.000 A 
ATOM      5  N   UNL     1      -2.196  14.109  21.071  0.00  0.00    +0.000 N 
ATOM      6  C   UNL     1      -0.934  14.733  21.074  0.00  0.00    +0.000 A 
ATOM      7  C   UNL     1      -0.098  14.542  19.962  0.00  0.00    +0.000 A 
ATOM      8  C   UNL     1       1.267  14.441  20.167  0.00  0.00    +0.000 A 
ATOM      9  C   UNL     1       1.722  14.608  21.457  0.00  0.00    +0.000 A 
ATOM     10  N   UNL     1       0.940  15.047  22.474  0.00  0.00    +0.000 NA
ATOM     11  C   UNL     1      -0.391  15.164  22.267  0.00  0.00    +0.000 A 
ATOM     12  N   UNL     1      -1.093  15.712  23.322  0.00  0.00    +0.000 N 
ATOM     13  C   UNL     1      -2.449  15.940  23.585  0.00  0.00    +0.000 A 
ATOM     14  C   UNL     1      -2.748  16.849  24.625  0.00  0.00    +0.000 A 
ATOM     15  C   UNL     1      -4.056  17.069  25.059  0.00  0.00    +0.000 A 
ATOM     16  C   UNL     1      -5.098  16.390  24.449  0.00  0.00    +0.000 A 
ATOM     17  C   UNL     1      -4.827  15.552  23.367  0.00  0.00    +0.000 A 
ATOM     18  C   UNL     1      -3.512  15.341  22.893  0.00  0.00    +0.000 A 
ATOM     19  H   UNL     1      -0.445  15.987  24.051  0.00  0.00    +0.000 HD
ENDROOT
BRANCH   1  23
ATOM     20  C   UNL     1       0.357   9.739  19.496  0.00  0.00    +0.000 A 
ATOM     21  C   UNL     1       0.298  10.296  20.776  0.00  0.00    +0.000 A 
ATOM     22  C   UNL     1      -0.618  11.314  21.090  0.00  0.00    +0.000 A 
ATOM     23  C   UNL     1      -1.494  11.813  20.129  0.00  0.00    +0.000 A 
ATOM     24  C   UNL     1      -1.364  11.316  18.819  0.00  0.00    +0.000 A 
ATOM     25  C   UNL     1      -0.476  10.271  18.512  0.00  0.00    +0.000 A 
BRANCH  20  28
ATOM     26  C   UNL     1       2.138   8.689  18.087  0.00  0.00    +0.000 C 
ATOM     27  O   UNL     1       2.357   9.634  17.346  0.00  0.00    +0.000 OA
ATOM     28  N   UNL     1       1.234   8.688  19.135  0.00  0.00    +0.000 N 
ATOM     29  H   UNL     1       1.246   7.856  19.715  0.00  0.00    +0.000 HD
BRANCH  26  33
ATOM     30  C   UNL     1       3.717   3.861  18.160  0.00  0.00    +0.000 C 
ATOM     31  C   UNL     1       3.500   5.315  18.022  0.00  0.00    +0.000 A 
ATOM     32  C   UNL     1       2.474   6.153  18.363  0.00  0.00    +0.000 A 
ATOM     33  C   UNL     1       2.897   7.439  17.940  0.00  0.00    +0.000 A 
ATOM     34  N   UNL     1       4.112   7.376  17.366  0.00  0.00    +0.000 NA
ATOM     35  O   UNL     1       4.488   6.040  17.430  0.00  0.00    +0.000 OA
ENDBRANCH  26  33
ENDBRANCH  20  28
ENDBRANCH   1  23
TORSDOF 3
ENDMDL
