MODEL 1
REMARK VINA RESULT:      -7.1      0.000      0.000
REMARK  Name = 
REMARK  5 active torsions:
REMARK  status: ('A' for Active; 'I' for Inactive)
REMARK    1  A    between atoms: O_1  and  C_2
REMARK    2  A    between atoms: C_3  and  C_4
REMARK    3  A    between atoms: C_7  and  N_8
REMARK    4  A    between atoms: N_13  and  C_14
REMARK    5  A    between atoms: C_24  and  O_25
REMARK                            x       y       z     vdW  Elec       q    Type
REMARK                         _______ _______ _______ _____ _____    ______ ____
ROOT
ATOM      1  N   UNL     1       2.602   6.978  19.178  0.00  0.00    +0.000 N 
ATOM      2  C   UNL     1       3.002   7.538  17.993  0.00  0.00    +0.000 A 
ATOM      3  N   UNL     1       2.470   8.729  17.798  0.00  0.00    +0.000 NA
ATOM      4  C   UNL     1       1.708   8.968  18.922  0.00  0.00    +0.000 A 
ATOM      5  C   UNL     1       0.906  10.063  19.323  0.00  0.00    +0.000 A 
ATOM      6  N   UNL     1       0.728  11.200  18.521  0.00  0.00    +0.000 N 
ATOM      7  N   UNL     1       0.293   9.985  20.533  0.00  0.00    +0.000 NA
ATOM      8  C   UNL     1       0.483   8.878  21.275  0.00  0.00    +0.000 A 
ATOM      9 CL   UNL     1      -0.335   8.854  22.778  0.00  0.00    +0.000 Cl
ATOM     10  N   UNL     1       1.228   7.796  21.006  0.00  0.00    +0.000 NA
ATOM     11  C   UNL     1       1.804   7.899  19.804  0.00  0.00    +0.000 A 
ATOM     12  H   UNL     1       1.397  11.200  17.751  0.00  0.00    +0.000 HD
ENDROOT
BRANCH   1  16
ATOM     13  C   UNL     1       2.692   3.326  19.424  0.00  0.00    +0.000 C 
ATOM     14  C   UNL     1       3.968   3.775  18.722  0.00  0.00    +0.000 C 
ATOM     15  O   UNL     1       4.139   5.183  19.021  0.00  0.00    +0.000 OA
ATOM     16  C   UNL     1       2.961   5.671  19.713  0.00  0.00    +0.000 C 
ATOM     17  C   UNL     1       1.877   4.602  19.524  0.00  0.00    +0.000 C 
BRANCH  13  18
ATOM     18  O   UNL     1       2.992   2.891  20.764  0.00  0.00    +0.000 OA
ATOM     19  H   UNL     1       3.886   2.498  20.745  0.00  0.00    +0.000 HD
ENDBRANCH  13  18
BRANCH  14  20
ATOM     20  C   UNL     1       3.945   3.603  17.203  0.00  0.00    +0.000 C 
ATOM     21 CL   UNL     1       4.891   4.862  16.379  0.00  0.00    +0.000 Cl
ENDBRANCH  14  20
BRANCH  17  22
ATOM     22  O   UNL     1       0.951   4.496  20.601  0.00  0.00    +0.000 OA
ATOM     23  H   UNL     1       0.160   4.045  20.236  0.00  0.00    +0.000 HD
ENDBRANCH  17  22
ENDBRANCH   1  16
BRANCH   6  24
ATOM     24  C   UNL     1       0.578  12.464  19.253  0.00  0.00    +0.000 C 
ATOM     25  C   UNL     1       0.676  13.646  18.311  0.00  0.00    +0.000 C 
ATOM     26  C   UNL     1       2.166  13.912  18.232  0.00  0.00    +0.000 C 
ATOM     27  O   UNL     1       2.752  13.469  19.462  0.00  0.00    +0.000 OA
ATOM     28  C   UNL     1       1.761  12.726  20.188  0.00  0.00    +0.000 C 
ENDBRANCH   6  24
TORSDOF 5
ENDMDL
MODEL 2
REMARK VINA RESULT:      -6.9      1.230      1.287
REMARK  Name = 
REMARK  5 active torsions:
REMARK  status: ('A' for Active; 'I' for Inactive)
REMARK    1  A    between atoms: O_1  and  C_2
REMARK    2  A    between atoms: C_3  and  C_4
REMARK    3  A    between atoms: C_7  and  N_8
REMARK    4  A    between atoms: N_13  and  C_14
REMARK    5  A    between atoms: C_24  and  O_25
REMARK                            x       y       z     vdW  Elec       q    Type
REMARK                         _______ _______ _______ _____ _____    ______ ____
ROOT
ATOM      1  N   UNL     1       2.465   7.222  18.811  0.00  0.00    +0.000 N 
ATOM      2  C   UNL     1       2.851   7.861  17.661  0.00  0.00    +0.000 A 
ATOM      3  N   UNL     1       2.389   9.095  17.597  0.00  0.00    +0.000 NA
ATOM      4  C   UNL     1       1.693   9.278  18.774  0.00  0.00    +0.000 A 
ATOM      5  C   UNL     1       0.982  10.379  19.308  0.00  0.00    +0.000 A 
ATOM      6  N   UNL     1       0.843  11.592  18.618  0.00  0.00    +0.000 N 
ATOM      7  N   UNL     1       0.417  10.228  20.534  0.00  0.00    +0.000 NA
ATOM      8  C   UNL     1       0.565   9.048  21.165  0.00  0.00    +0.000 A 
ATOM      9 CL   UNL     1      -0.188   8.937  22.698  0.00  0.00    +0.000 Cl
ATOM     10  N   UNL     1       1.226   7.952  20.767  0.00  0.00    +0.000 NA
ATOM     11  C   UNL     1       1.757   8.129  19.552  0.00  0.00    +0.000 A 
ATOM     12  H   UNL     1       1.478  11.621  17.821  0.00  0.00    +0.000 HD
ENDROOT
BRANCH   1  16
ATOM     13  C   UNL     1       3.691   3.787  18.485  0.00  0.00    +0.000 C 
ATOM     14  C   UNL     1       4.764   4.596  19.204  0.00  0.00    +0.000 C 
ATOM     15  O   UNL     1       4.119   5.788  19.717  0.00  0.00    +0.000 OA
ATOM     16  C   UNL     1       2.761   5.852  19.210  0.00  0.00    +0.000 C 
ATOM     17  C   UNL     1       2.682   4.838  18.062  0.00  0.00    +0.000 C 
BRANCH  13  18
ATOM     18  O   UNL     1       3.036   2.900  19.413  0.00  0.00    +0.000 OA
ATOM     19  H   UNL     1       2.144   2.721  19.058  0.00  0.00    +0.000 HD
ENDBRANCH  13  18
BRANCH  14  20
ATOM     20  C   UNL     1       5.932   5.023  18.315  0.00  0.00    +0.000 C 
ATOM     21 CL   UNL     1       7.271   5.707  19.263  0.00  0.00    +0.000 Cl
ENDBRANCH  14  20
BRANCH  17  22
ATOM     22  O   UNL     1       1.404   4.233  17.889  0.00  0.00    +0.000 OA
ATOM     23  H   UNL     1       0.927   4.788  17.236  0.00  0.00    +0.000 HD
ENDBRANCH  17  22
ENDBRANCH   1  16
BRANCH   6  24
ATOM     24  C   UNL     1       0.807  12.791  19.465  0.00  0.00    +0.000 C 
ATOM     25  C   UNL     1       0.758  14.046  18.619  0.00  0.00    +0.000 C 
ATOM     26  C   UNL     1       2.218  14.337  18.334  0.00  0.00    +0.000 C 
ATOM     27  O   UNL     1       2.987  13.805  19.420  0.00  0.00    +0.000 OA
ATOM     28  C   UNL     1       2.119  12.993  20.226  0.00  0.00    +0.000 C 
ENDBRANCH   6  24
TORSDOF 5
ENDMDL
MODEL 3
REMARK VINA RESULT:      -6.9      3.105      7.005
REMARK  Name = 
REMARK  5 active torsions:
REMARK  status: ('A' for Active; 'I' for Inactive)
REMARK    1  A    between atoms: O_1  and  C_2
REMARK    2  A    between atoms: C_3  and  C_4
REMARK    3  A    between atoms: C_7  and  N_8
REMARK    4  A    between atoms: N_13  and  C_14
REMARK    5  A    between atoms: C_24  and  O_25
REMARK                            x       y       z     vdW  Elec       q    Type
REMARK                         _______ _______ _______ _____ _____    ______ ____
ROOT
ATOM      1  N   UNL     1       1.360   8.979  19.299  0.00  0.00    +0.000 N 
ATOM      2  C   UNL     1       1.774   9.676  18.194  0.00  0.00    +0.000 A 
ATOM      3  N   UNL     1       2.707   9.034  17.519  0.00  0.00    +0.000 NA
ATOM      4  C   UNL     1       2.890   7.849  18.201  0.00  0.00    +0.000 A 
ATOM      5  C   UNL     1       3.733   6.735  17.980  0.00  0.00    +0.000 A 
ATOM      6  N   UNL     1       4.640   6.676  16.912  0.00  0.00    +0.000 N 
ATOM      7  N   UNL     1       3.646   5.697  18.852  0.00  0.00    +0.000 NA
ATOM      8  C   UNL     1       2.768   5.788  19.869  0.00  0.00    +0.000 A 
ATOM      9 CL   UNL     1       2.731   4.445  20.928  0.00  0.00    +0.000 Cl
ATOM     10  N   UNL     1       1.914   6.779  20.163  0.00  0.00    +0.000 NA
ATOM     11  C   UNL     1       2.036   7.789  19.296  0.00  0.00    +0.000 A 
ATOM     12  H   UNL     1       4.451   7.423  16.245  0.00  0.00    +0.000 HD
ENDROOT
BRANCH   1  16
ATOM     13  C   UNL     1      -0.240  11.102  21.819  0.00  0.00    +0.000 C 
ATOM     14  C   UNL     1      -0.963  11.327  20.496  0.00  0.00    +0.000 C 
ATOM     15  O   UNL     1      -0.642  10.199  19.644  0.00  0.00    +0.000 OA
ATOM     16  C   UNL     1       0.371   9.385  20.290  0.00  0.00    +0.000 C 
ATOM     17  C   UNL     1       0.945  10.236  21.430  0.00  0.00    +0.000 C 
BRANCH  13  18
ATOM     18  O   UNL     1      -1.070  10.332  22.711  0.00  0.00    +0.000 OA
ATOM     19  H   UNL     1      -0.765   9.406  22.659  0.00  0.00    +0.000 HD
ENDBRANCH  13  18
BRANCH  14  20
ATOM     20  C   UNL     1      -0.562  12.610  19.770  0.00  0.00    +0.000 C 
ATOM     21 CL   UNL     1      -1.029  12.576  18.055  0.00  0.00    +0.000 Cl
ENDBRANCH  14  20
BRANCH  17  22
ATOM     22  O   UNL     1       1.388   9.494  22.562  0.00  0.00    +0.000 OA
ATOM     23  H   UNL     1       0.576   9.194  23.024  0.00  0.00    +0.000 HD
ENDBRANCH  17  22
ENDBRANCH   1  16
BRANCH   6  24
ATOM     24  C   UNL     1       4.856   5.338  16.348  0.00  0.00    +0.000 C 
ATOM     25  C   UNL     1       5.804   4.534  17.213  0.00  0.00    +0.000 C 
ATOM     26  C   UNL     1       7.173   4.931  16.698  0.00  0.00    +0.000 C 
ATOM     27  O   UNL     1       7.029   5.300  15.321  0.00  0.00    +0.000 OA
ATOM     28  C   UNL     1       5.627   5.393  15.027  0.00  0.00    +0.000 C 
ENDBRANCH   6  24
TORSDOF 5
ENDMDL
MODEL 4
REMARK VINA RESULT:      -6.6      0.899      1.218
REMARK  Name = 
REMARK  5 active torsions:
REMARK  status: ('A' for Active; 'I' for Inactive)
REMARK    1  A    between atoms: O_1  and  C_2
REMARK    2  A    between atoms: C_3  and  C_4
REMARK    3  A    between atoms: C_7  and  N_8
REMARK    4  A    between atoms: N_13  and  C_14
REMARK    5  A    between atoms: C_24  and  O_25
REMARK                            x       y       z     vdW  Elec       q    Type
REMARK                         _______ _______ _______ _____ _____    ______ ____
ROOT
ATOM      1  N   UNL     1       2.499   6.647  19.324  0.00  0.00    +0.000 N 
ATOM      2  C   UNL     1       2.894   7.120  18.100  0.00  0.00    +0.000 A 
ATOM      3  N   UNL     1       2.484   8.355  17.885  0.00  0.00    +0.000 NA
ATOM      4  C   UNL     1       1.814   8.714  19.035  0.00  0.00    +0.000 A 
ATOM      5  C   UNL     1       1.158   9.904  19.432  0.00  0.00    +0.000 A 
ATOM      6  N   UNL     1       1.061  11.026  18.596  0.00  0.00    +0.000 N 
ATOM      7  N   UNL     1       0.605   9.934  20.672  0.00  0.00    +0.000 NA
ATOM      8  C   UNL     1       0.713   8.837  21.447  0.00  0.00    +0.000 A 
ATOM      9 CL   UNL     1      -0.021   8.953  22.988  0.00  0.00    +0.000 Cl
ATOM     10  N   UNL     1       1.321   7.671  21.184  0.00  0.00    +0.000 NA
ATOM     11  C   UNL     1       1.840   7.671  19.952  0.00  0.00    +0.000 A 
ATOM     12  H   UNL     1       1.684  10.926  17.795  0.00  0.00    +0.000 HD
ENDROOT
BRANCH   1  16
ATOM     13  C   UNL     1       2.462   2.992  19.536  0.00  0.00    +0.000 C 
ATOM     14  C   UNL     1       3.840   3.414  19.038  0.00  0.00    +0.000 C 
ATOM     15  O   UNL     1       3.998   4.814  19.377  0.00  0.00    +0.000 OA
ATOM     16  C   UNL     1       2.742   5.327  19.890  0.00  0.00    +0.000 C 
ATOM     17  C   UNL     1       1.673   4.288  19.529  0.00  0.00    +0.000 C 
BRANCH  13  18
ATOM     18  O   UNL     1       2.548   2.539  20.901  0.00  0.00    +0.000 OA
ATOM     19  H   UNL     1       2.808   3.308  21.443  0.00  0.00    +0.000 HD
ENDBRANCH  13  18
BRANCH  14  20
ATOM     20  C   UNL     1       4.040   3.255  17.532  0.00  0.00    +0.000 C 
ATOM     21 CL   UNL     1       5.107   4.512  16.869  0.00  0.00    +0.000 Cl
ENDBRANCH  14  20
BRANCH  17  22
ATOM     22  O   UNL     1       0.594   4.197  20.455  0.00  0.00    +0.000 OA
ATOM     23  H   UNL     1      -0.134   3.743  19.978  0.00  0.00    +0.000 HD
ENDBRANCH  17  22
ENDBRANCH   1  16
BRANCH   6  24
ATOM     24  C   UNL     1       1.089  12.323  19.285  0.00  0.00    +0.000 C 
ATOM     25  C   UNL     1      -0.192  12.548  20.060  0.00  0.00    +0.000 C 
ATOM     26  C   UNL     1      -1.125  13.156  19.033  0.00  0.00    +0.000 C 
ATOM     27  O   UNL     1      -0.319  13.846  18.069  0.00  0.00    +0.000 OA
ATOM     28  C   UNL     1       1.053  13.493  18.300  0.00  0.00    +0.000 C 
ENDBRANCH   6  24
TORSDOF 5
ENDMDL
MODEL 5
REMARK VINA RESULT:      -6.5      3.245      4.421
REMARK  Name = 
REMARK  5 active torsions:
REMARK  status: ('A' for Active; 'I' for Inactive)
REMARK    1  A    between atoms: O_1  and  C_2
REMARK    2  A    between atoms: C_3  and  C_4
REMARK    3  A    between atoms: C_7  and  N_8
REMARK    4  A    between atoms: N_13  and  C_14
REMARK    5  A    between atoms: C_24  and  O_25
REMARK                            x       y       z     vdW  Elec       q    Type
REMARK                         _______ _______ _______ _____ _____    ______ ____
ROOT
ATOM      1  N   UNL     1       4.016   6.182  17.680  0.00  0.00    +0.000 N 
ATOM      2  C   UNL     1       3.785   7.483  17.315  0.00  0.00    +0.000 A 
ATOM      3  N   UNL     1       2.910   8.075  18.104  0.00  0.00    +0.000 NA
ATOM      4  C   UNL     1       2.576   7.124  19.045  0.00  0.00    +0.000 A 
ATOM      5  C   UNL     1       1.705   7.142  20.161  0.00  0.00    +0.000 A 
ATOM      6  N   UNL     1       0.939   8.266  20.500  0.00  0.00    +0.000 N 
ATOM      7  N   UNL     1       1.623   6.014  20.913  0.00  0.00    +0.000 NA
ATOM      8  C   UNL     1       2.369   4.951  20.555  0.00  0.00    +0.000 A 
ATOM      9 CL   UNL     1       2.197   3.567  21.546  0.00  0.00    +0.000 Cl
ATOM     10  N   UNL     1       3.234   4.828  19.538  0.00  0.00    +0.000 NA
ATOM     11  C   UNL     1       3.279   5.949  18.811  0.00  0.00    +0.000 A 
ATOM     12  H   UNL     1       1.253   9.081  19.975  0.00  0.00    +0.000 HD
ENDROOT
BRANCH   1  16
ATOM     13  C   UNL     1       7.067   4.884  16.125  0.00  0.00    +0.000 C 
ATOM     14  C   UNL     1       7.049   4.415  17.575  0.00  0.00    +0.000 C 
ATOM     15  O   UNL     1       5.682   4.537  18.040  0.00  0.00    +0.000 OA
ATOM     16  C   UNL     1       4.893   5.216  17.030  0.00  0.00    +0.000 C 
ATOM     17  C   UNL     1       5.893   5.844  16.052  0.00  0.00    +0.000 C 
BRANCH  13  18
ATOM     18  O   UNL     1       6.784   3.780  15.244  0.00  0.00    +0.000 OA
ATOM     19  H   UNL     1       7.577   3.646  14.689  0.00  0.00    +0.000 HD
ENDBRANCH  13  18
BRANCH  14  20
ATOM     20  C   UNL     1       7.951   5.221  18.508  0.00  0.00    +0.000 C 
ATOM     21 CL   UNL     1       7.810   6.969  18.221  0.00  0.00    +0.000 Cl
ENDBRANCH  14  20
BRANCH  17  22
ATOM     22  O   UNL     1       5.433   5.936  14.707  0.00  0.00    +0.000 OA
ATOM     23  H   UNL     1       4.551   5.507  14.692  0.00  0.00    +0.000 HD
ENDBRANCH  17  22
ENDBRANCH   1  16
BRANCH   6  24
ATOM     24  C   UNL     1       0.721   8.463  21.939  0.00  0.00    +0.000 C 
ATOM     25  C   UNL     1      -0.710   8.874  22.216  0.00  0.00    +0.000 C 
ATOM     26  C   UNL     1      -0.681  10.381  22.053  0.00  0.00    +0.000 C 
ATOM     27  O   UNL     1       0.644  10.827  22.368  0.00  0.00    +0.000 OA
ATOM     28  C   UNL     1       1.491   9.673  22.473  0.00  0.00    +0.000 C 
ENDBRANCH   6  24
TORSDOF 5
ENDMDL
MODEL 6
REMARK VINA RESULT:      -6.2      2.440      7.619
REMARK  Name = 
REMARK  5 active torsions:
REMARK  status: ('A' for Active; 'I' for Inactive)
REMARK    1  A    between atoms: O_1  and  C_2
REMARK    2  A    between atoms: C_3  and  C_4
REMARK    3  A    between atoms: C_7  and  N_8
REMARK    4  A    between atoms: N_13  and  C_14
REMARK    5  A    between atoms: C_24  and  O_25
REMARK                            x       y       z     vdW  Elec       q    Type
REMARK                         _______ _______ _______ _____ _____    ______ ____
ROOT
ATOM      1  N   UNL     1       1.280  10.825  18.769  0.00  0.00    +0.000 N 
ATOM      2  C   UNL     1       1.897  10.134  17.759  0.00  0.00    +0.000 A 
ATOM      3  N   UNL     1       2.182   8.893  18.106  0.00  0.00    +0.000 NA
ATOM      4  C   UNL     1       1.703   8.762  19.392  0.00  0.00    +0.000 A 
ATOM      5  C   UNL     1       1.690   7.681  20.306  0.00  0.00    +0.000 A 
ATOM      6  N   UNL     1       2.256   6.434  20.006  0.00  0.00    +0.000 N 
ATOM      7  N   UNL     1       1.105   7.886  21.515  0.00  0.00    +0.000 NA
ATOM      8  C   UNL     1       0.575   9.098  21.771  0.00  0.00    +0.000 A 
ATOM      9 CL   UNL     1      -0.130   9.277  23.320  0.00  0.00    +0.000 Cl
ATOM     10  N   UNL     1       0.515  10.180  20.982  0.00  0.00    +0.000 NA
ATOM     11  C   UNL     1       1.113   9.949  19.808  0.00  0.00    +0.000 A 
ATOM     12  H   UNL     1       2.471   6.372  19.011  0.00  0.00    +0.000 HD
ENDROOT
BRANCH   1  16
ATOM     13  C   UNL     1      -0.859  13.713  19.472  0.00  0.00    +0.000 C 
ATOM     14  C   UNL     1       0.266  13.708  20.500  0.00  0.00    +0.000 C 
ATOM     15  O   UNL     1       1.320  12.869  19.966  0.00  0.00    +0.000 OA
ATOM     16  C   UNL     1       0.846  12.217  18.760  0.00  0.00    +0.000 C 
ATOM     17  C   UNL     1      -0.677  12.393  18.745  0.00  0.00    +0.000 C 
BRANCH  13  18
ATOM     18  O   UNL     1      -0.652  14.772  18.517  0.00  0.00    +0.000 OA
ATOM     19  H   UNL     1       0.238  14.643  18.136  0.00  0.00    +0.000 HD
ENDBRANCH  13  18
BRANCH  14  20
ATOM     20  C   UNL     1      -0.136  13.164  21.871  0.00  0.00    +0.000 C 
ATOM     21 CL   UNL     1      -1.899  13.014  22.033  0.00  0.00    +0.000 Cl
ENDBRANCH  14  20
BRANCH  17  22
ATOM     22  O   UNL     1      -1.254  12.480  17.445  0.00  0.00    +0.000 OA
ATOM     23  H   UNL     1      -0.691  13.105  16.940  0.00  0.00    +0.000 HD
ENDBRANCH  17  22
ENDBRANCH   1  16
BRANCH   6  24
ATOM     24  C   UNL     1       1.569   5.278  20.596  0.00  0.00    +0.000 C 
ATOM     25  C   UNL     1       2.543   4.406  21.361  0.00  0.00    +0.000 C 
ATOM     26  C   UNL     1       3.101   3.483  20.296  0.00  0.00    +0.000 C 
ATOM     27  O   UNL     1       2.102   3.338  19.279  0.00  0.00    +0.000 OA
ATOM     28  C   UNL     1       1.069   4.304  19.527  0.00  0.00    +0.000 C 
ENDBRANCH   6  24
TORSDOF 5
ENDMDL
MODEL 7
REMARK VINA RESULT:      -6.0      2.171      7.806
REMARK  Name = 
REMARK  5 active torsions:
REMARK  status: ('A' for Active; 'I' for Inactive)
REMARK    1  A    between atoms: O_1  and  C_2
REMARK    2  A    between atoms: C_3  and  C_4
REMARK    3  A    between atoms: C_7  and  N_8
REMARK    4  A    between atoms: N_13  and  C_14
REMARK    5  A    between atoms: C_24  and  O_25
REMARK                            x       y       z     vdW  Elec       q    Type
REMARK                         _______ _______ _______ _____ _____    ______ ____
ROOT
ATOM      1  N   UNL     1       1.444   8.631  19.970  0.00  0.00    +0.000 N 
ATOM      2  C   UNL     1       1.042   7.861  21.030  0.00  0.00    +0.000 A 
ATOM      3  N   UNL     1       1.471   6.617  20.935  0.00  0.00    +0.000 NA
ATOM      4  C   UNL     1       2.212   6.583  19.772  0.00  0.00    +0.000 A 
ATOM      5  C   UNL     1       2.937   5.554  19.126  0.00  0.00    +0.000 A 
ATOM      6  N   UNL     1       2.996   4.245  19.627  0.00  0.00    +0.000 N 
ATOM      7  N   UNL     1       3.589   5.869  17.977  0.00  0.00    +0.000 NA
ATOM      8  C   UNL     1       3.507   7.134  17.522  0.00  0.00    +0.000 A 
ATOM      9 CL   UNL     1       4.345   7.444  16.063  0.00  0.00    +0.000 Cl
ATOM     10  N   UNL     1       2.869   8.186  18.056  0.00  0.00    +0.000 NA
ATOM     11  C   UNL     1       2.227   7.838  19.176  0.00  0.00    +0.000 A 
ATOM     12  H   UNL     1       2.635   4.213  20.580  0.00  0.00    +0.000 HD
ENDROOT
BRANCH   1  16
ATOM     13  C   UNL     1      -0.618  11.630  19.560  0.00  0.00    +0.000 C 
ATOM     14  C   UNL     1      -0.056  11.643  20.977  0.00  0.00    +0.000 C 
ATOM     15  O   UNL     1       1.075  10.738  20.989  0.00  0.00    +0.000 OA
ATOM     16  C   UNL     1       1.138  10.035  19.722  0.00  0.00    +0.000 C 
ATOM     17  C   UNL     1      -0.213  10.265  19.034  0.00  0.00    +0.000 C 
BRANCH  13  18
ATOM     18  O   UNL     1       0.045  12.624  18.756  0.00  0.00    +0.000 OA
ATOM     19  H   UNL     1       0.529  13.212  19.368  0.00  0.00    +0.000 HD
ENDBRANCH  13  18
BRANCH  14  20
ATOM     20  C   UNL     1      -1.046  11.194  22.051  0.00  0.00    +0.000 C 
ATOM     21 CL   UNL     1      -0.311  10.047  23.193  0.00  0.00    +0.000 Cl
ENDBRANCH  14  20
BRANCH  17  22
ATOM     22  O   UNL     1      -0.159  10.297  17.611  0.00  0.00    +0.000 OA
ATOM     23  H   UNL     1       0.724  10.658  17.381  0.00  0.00    +0.000 HD
ENDBRANCH  17  22
ENDBRANCH   1  16
BRANCH   6  24
ATOM     24  C   UNL     1       4.263   3.541  19.388  0.00  0.00    +0.000 C 
ATOM     25  C   UNL     1       4.356   3.073  17.950  0.00  0.00    +0.000 C 
ATOM     26  C   UNL     1       3.656   1.730  17.970  0.00  0.00    +0.000 C 
ATOM     27  O   UNL     1       3.801   1.184  19.287  0.00  0.00    +0.000 OA
ATOM     28  C   UNL     1       4.327   2.210  20.141  0.00  0.00    +0.000 C 
ENDBRANCH   6  24
TORSDOF 5
ENDMDL
MODEL 8
REMARK VINA RESULT:      -5.9      2.557      3.473
REMARK  Name = 
REMARK  5 active torsions:
REMARK  status: ('A' for Active; 'I' for Inactive)
REMARK    1  A    between atoms: O_1  and  C_2
REMARK    2  A    between atoms: C_3  and  C_4
REMARK    3  A    between atoms: C_7  and  N_8
REMARK    4  A    between atoms: N_13  and  C_14
REMARK    5  A    between atoms: C_24  and  O_25
REMARK                            x       y       z     vdW  Elec       q    Type
REMARK                         _______ _______ _______ _____ _____    ______ ____
ROOT
ATOM      1  N   UNL     1       2.629   4.722  19.775  0.00  0.00    +0.000 N 
ATOM      2  C   UNL     1       1.764   5.053  20.786  0.00  0.00    +0.000 A 
ATOM      3  N   UNL     1       1.431   6.329  20.761  0.00  0.00    +0.000 NA
ATOM      4  C   UNL     1       2.089   6.848  19.665  0.00  0.00    +0.000 A 
ATOM      5  C   UNL     1       2.132   8.144  19.097  0.00  0.00    +0.000 A 
ATOM      6  N   UNL     1       1.445   9.233  19.652  0.00  0.00    +0.000 N 
ATOM      7  N   UNL     1       2.879   8.314  17.976  0.00  0.00    +0.000 NA
ATOM      8  C   UNL     1       3.530   7.248  17.473  0.00  0.00    +0.000 A 
ATOM      9 CL   UNL     1       4.458   7.551  16.068  0.00  0.00    +0.000 Cl
ATOM     10  N   UNL     1       3.547   5.982  17.913  0.00  0.00    +0.000 NA
ATOM     11  C   UNL     1       2.815   5.852  19.025  0.00  0.00    +0.000 A 
ATOM     12  H   UNL     1       0.782   8.912  20.357  0.00  0.00    +0.000 HD
ENDROOT
BRANCH   1  16
ATOM     13  C   UNL     1       3.630   1.790  17.823  0.00  0.00    +0.000 C 
ATOM     14  C   UNL     1       4.837   2.714  17.924  0.00  0.00    +0.000 C 
ATOM     15  O   UNL     1       4.587   3.614  19.031  0.00  0.00    +0.000 OA
ATOM     16  C   UNL     1       3.230   3.422  19.506  0.00  0.00    +0.000 C 
ATOM     17  C   UNL     1       2.505   2.614  18.422  0.00  0.00    +0.000 C 
BRANCH  13  18
ATOM     18  O   UNL     1       3.820   0.634  18.662  0.00  0.00    +0.000 OA
ATOM     19  H   UNL     1       3.331  -0.104  18.249  0.00  0.00    +0.000 HD
ENDBRANCH  13  18
BRANCH  14  20
ATOM     20  C   UNL     1       5.096   3.550  16.671  0.00  0.00    +0.000 C 
ATOM     21 CL   UNL     1       6.642   4.423  16.764  0.00  0.00    +0.000 Cl
ENDBRANCH  14  20
BRANCH  17  22
ATOM     22  O   UNL     1       1.483   1.748  18.908  0.00  0.00    +0.000 OA
ATOM     23  H   UNL     1       1.043   1.376  18.113  0.00  0.00    +0.000 HD
ENDBRANCH  17  22
ENDBRANCH   1  16
BRANCH   6  24
ATOM     24  C   UNL     1       0.939  10.213  18.681  0.00  0.00    +0.000 C 
ATOM     25  C   UNL     1       0.929  11.605  19.277  0.00  0.00    +0.000 C 
ATOM     26  C   UNL     1      -0.408  11.675  19.987  0.00  0.00    +0.000 C 
ATOM     27  O   UNL     1      -1.309  10.793  19.305  0.00  0.00    +0.000 OA
ATOM     28  C   UNL     1      -0.547  10.003  18.380  0.00  0.00    +0.000 C 
ENDBRANCH   6  24
TORSDOF 5
ENDMDL
MODEL 9
REMARK VINA RESULT:      -5.9      5.702      7.969
REMARK  Name = 
REMARK  5 active torsions:
REMARK  status: ('A' for Active; 'I' for Inactive)
REMARK    1  A    between atoms: O_1  and  C_2
REMARK    2  A    between atoms: C_3  and  C_4
REMARK    3  A    between atoms: C_7  and  N_8
REMARK    4  A    between atoms: N_13  and  C_14
REMARK    5  A    between atoms: C_24  and  O_25
REMARK                            x       y       z     vdW  Elec       q    Type
REMARK                         _______ _______ _______ _____ _____    ______ ____
ROOT
ATOM      1  N   UNL     1      -1.775  11.905  20.059  0.00  0.00    +0.000 N 
ATOM      2  C   UNL     1      -1.627  12.327  21.355  0.00  0.00    +0.000 A 
ATOM      3  N   UNL     1      -2.736  12.850  21.840  0.00  0.00    +0.000 NA
ATOM      4  C   UNL     1      -3.659  12.737  20.821  0.00  0.00    +0.000 A 
ATOM      5  C   UNL     1      -5.024  13.098  20.717  0.00  0.00    +0.000 A 
ATOM      6  N   UNL     1      -5.718  13.726  21.762  0.00  0.00    +0.000 N 
ATOM      7  N   UNL     1      -5.662  12.820  19.551  0.00  0.00    +0.000 NA
ATOM      8  C   UNL     1      -4.963  12.222  18.567  0.00  0.00    +0.000 A 
ATOM      9 CL   UNL     1      -5.837  11.919  17.127  0.00  0.00    +0.000 Cl
ATOM     10  N   UNL     1      -3.683  11.822  18.560  0.00  0.00    +0.000 NA
ATOM     11  C   UNL     1      -3.082  12.124  19.716  0.00  0.00    +0.000 A 
ATOM     12  H   UNL     1      -5.175  13.685  22.624  0.00  0.00    +0.000 HD
ENDROOT
BRANCH   1  16
ATOM     13  C   UNL     1       1.530  10.699  19.041  0.00  0.00    +0.000 C 
ATOM     14  C   UNL     1       0.723   9.496  19.515  0.00  0.00    +0.000 C 
ATOM     15  O   UNL     1      -0.672   9.888  19.486  0.00  0.00    +0.000 OA
ATOM     16  C   UNL     1      -0.764  11.306  19.196  0.00  0.00    +0.000 C 
ATOM     17  C   UNL     1       0.644  11.879  19.397  0.00  0.00    +0.000 C 
BRANCH  13  18
ATOM     18  O   UNL     1       1.665  10.670  17.607  0.00  0.00    +0.000 OA
ATOM     19  H   UNL     1       0.800  10.924  17.232  0.00  0.00    +0.000 HD
ENDBRANCH  13  18
BRANCH  14  20
ATOM     20  C   UNL     1       1.064   9.027  20.929  0.00  0.00    +0.000 C 
ATOM     21 CL   UNL     1      -0.395   8.752  21.906  0.00  0.00    +0.000 Cl
ENDBRANCH  14  20
BRANCH  17  22
ATOM     22  O   UNL     1       0.962  12.986  18.559  0.00  0.00    +0.000 OA
ATOM     23  H   UNL     1       1.461  13.617  19.120  0.00  0.00    +0.000 HD
ENDBRANCH  17  22
ENDBRANCH   1  16
BRANCH   6  24
ATOM     24  C   UNL     1      -7.139  13.369  21.871  0.00  0.00    +0.000 C 
ATOM     25  C   UNL     1      -7.813  14.171  22.964  0.00  0.00    +0.000 C 
ATOM     26  C   UNL     1      -7.551  13.354  24.214  0.00  0.00    +0.000 C 
ATOM     27  O   UNL     1      -7.415  11.984  23.816  0.00  0.00    +0.000 OA
ATOM     28  C   UNL     1      -7.331  11.940  22.384  0.00  0.00    +0.000 C 
ENDBRANCH   6  24
TORSDOF 5
ENDMDL
