MODEL 1
REMARK VINA RESULT:      -7.3      0.000      0.000
REMARK  Name = 
REMARK  5 active torsions:
REMARK  status: ('A' for Active; 'I' for Inactive)
REMARK    1  A    between atoms: C_1  and  C_2
REMARK    2  A    between atoms: C_2  and  N_3
REMARK    3  A    between atoms: N_6  and  C_7
REMARK    4  A    between atoms: C_9  and  N_10
REMARK    5  A    between atoms: C_11  and  C_13
REMARK                            x       y       z     vdW  Elec       q    Type
REMARK                         _______ _______ _______ _____ _____    ______ ____
ROOT
ATOM      1  N   UNL     1       2.012   7.311  19.640  0.00  0.00    +0.000 N 
ATOM      2  C   UNL     1       2.722   7.097  18.488  0.00  0.00    +0.000 C 
ATOM      3  O   UNL     1       3.096   8.009  17.753  0.00  0.00    +0.000 OA
ATOM      4  H   UNL     1       1.765   6.506  20.217  0.00  0.00    +0.000 HD
ENDROOT
BRANCH   2   5
ATOM      5  C   UNL     1       3.039   5.676  18.170  0.00  0.00    +0.000 A 
ATOM      6  C   UNL     1       4.057   5.434  17.314  0.00  0.00    +0.000 A 
ATOM      7  C   UNL     1       4.486   4.080  17.010  0.00  0.00    +0.000 A 
ATOM      8 CL   UNL     1       5.794   3.847  15.923  0.00  0.00    +0.000 Cl
ATOM      9  C   UNL     1       3.872   3.048  17.602  0.00  0.00    +0.000 A 
ATOM     10  N   UNL     1       2.816   3.303  18.472  0.00  0.00    +0.000 N 
ATOM     11  C   UNL     1       2.048   2.424  19.192  0.00  0.00    +0.000 A 
ATOM     12  C   UNL     1       1.132   3.198  19.865  0.00  0.00    +0.000 A 
ATOM     13  N   UNL     1       1.319   4.528  19.594  0.00  0.00    +0.000 NA
ATOM     14  C   UNL     1       2.348   4.578  18.768  0.00  0.00    +0.000 A 
ENDBRANCH   2   5
BRANCH   1  21
ATOM     15  N   UNL     1       0.741  10.854  19.081  0.00  0.00    +0.000 NA
ATOM     16  C   UNL     1       0.909  11.426  20.423  0.00  0.00    +0.000 C 
ATOM     17  C   UNL     1       0.039  10.813  21.541  0.00  0.00    +0.000 C 
ATOM     18  N   UNL     1       0.791   9.793  22.284  0.00  0.00    +0.000 NA
ATOM     19  C   UNL     1       0.139   9.504  23.562  0.00  0.00    +0.000 C 
ATOM     20  C   UNL     1       0.943   8.548  21.512  0.00  0.00    +0.000 C 
ATOM     21  C   UNL     1       1.626   8.645  20.116  0.00  0.00    +0.000 C 
ATOM     22  C   UNL     1       0.734   9.374  19.071  0.00  0.00    +0.000 C 
BRANCH  15  24
ATOM     23  C   UNL     1      -1.399  10.283  17.892  0.00  0.00    +0.000 C 
ATOM     24  C   UNL     1      -0.432  11.370  18.355  0.00  0.00    +0.000 C 
ENDBRANCH  15  24
ENDBRANCH   1  21
TORSDOF 3
ENDMDL
MODEL 2
REMARK VINA RESULT:      -7.3      2.873      7.212
REMARK  Name = 
REMARK  5 active torsions:
REMARK  status: ('A' for Active; 'I' for Inactive)
REMARK    1  A    between atoms: C_1  and  C_2
REMARK    2  A    between atoms: C_2  and  N_3
REMARK    3  A    between atoms: N_6  and  C_7
REMARK    4  A    between atoms: C_9  and  N_10
REMARK    5  A    between atoms: C_11  and  C_13
REMARK                            x       y       z     vdW  Elec       q    Type
REMARK                         _______ _______ _______ _____ _____    ______ ____
ROOT
ATOM      1  N   UNL     1       2.037   7.169  18.881  0.00  0.00    +0.000 N 
ATOM      2  C   UNL     1       1.920   8.412  18.318  0.00  0.00    +0.000 C 
ATOM      3  O   UNL     1       2.535   8.751  17.309  0.00  0.00    +0.000 OA
ATOM      4  H   UNL     1       1.468   6.950  19.700  0.00  0.00    +0.000 HD
ENDROOT
BRANCH   2   5
ATOM      5  C   UNL     1       0.978   9.350  18.995  0.00  0.00    +0.000 A 
ATOM      6  C   UNL     1       0.196  10.129  18.214  0.00  0.00    +0.000 A 
ATOM      7  C   UNL     1      -0.804  11.013  18.786  0.00  0.00    +0.000 A 
ATOM      8 CL   UNL     1      -1.771  11.965  17.734  0.00  0.00    +0.000 Cl
ATOM      9  C   UNL     1      -0.969  11.045  20.114  0.00  0.00    +0.000 A 
ATOM     10  N   UNL     1      -0.153  10.251  20.913  0.00  0.00    +0.000 N 
ATOM     11  C   UNL     1      -0.137  10.111  22.277  0.00  0.00    +0.000 A 
ATOM     12  C   UNL     1       0.880   9.226  22.548  0.00  0.00    +0.000 A 
ATOM     13  N   UNL     1       1.485   8.805  21.392  0.00  0.00    +0.000 NA
ATOM     14  C   UNL     1       0.841   9.415  20.415  0.00  0.00    +0.000 A 
ENDBRANCH   2   5
BRANCH   1  21
ATOM     15  N   UNL     1       5.449   5.623  18.212  0.00  0.00    +0.000 NA
ATOM     16  C   UNL     1       5.078   4.486  17.359  0.00  0.00    +0.000 C 
ATOM     17  C   UNL     1       4.215   3.390  18.019  0.00  0.00    +0.000 C 
ATOM     18  N   UNL     1       2.792   3.601  17.724  0.00  0.00    +0.000 NA
ATOM     19  C   UNL     1       2.026   2.382  17.992  0.00  0.00    +0.000 C 
ATOM     20  C   UNL     1       2.228   4.721  18.496  0.00  0.00    +0.000 C 
ATOM     21  C   UNL     1       2.904   6.115  18.341  0.00  0.00    +0.000 C 
ATOM     22  C   UNL     1       4.315   6.164  18.994  0.00  0.00    +0.000 C 
BRANCH  15  24
ATOM     23  C   UNL     1       7.824   6.207  18.793  0.00  0.00    +0.000 C 
ATOM     24  C   UNL     1       6.594   5.355  19.099  0.00  0.00    +0.000 C 
ENDBRANCH  15  24
ENDBRANCH   1  21
TORSDOF 3
ENDMDL
MODEL 3
REMARK VINA RESULT:      -7.2      1.592      1.771
REMARK  Name = 
REMARK  5 active torsions:
REMARK  status: ('A' for Active; 'I' for Inactive)
REMARK    1  A    between atoms: C_1  and  C_2
REMARK    2  A    between atoms: C_2  and  N_3
REMARK    3  A    between atoms: N_6  and  C_7
REMARK    4  A    between atoms: C_9  and  N_10
REMARK    5  A    between atoms: C_11  and  C_13
REMARK                            x       y       z     vdW  Elec       q    Type
REMARK                         _______ _______ _______ _____ _____    ______ ____
ROOT
ATOM      1  N   UNL     1       1.462   8.687  19.492  0.00  0.00    +0.000 N 
ATOM      2  C   UNL     1       2.178   8.452  18.348  0.00  0.00    +0.000 C 
ATOM      3  O   UNL     1       2.241   9.256  17.420  0.00  0.00    +0.000 OA
ATOM      4  H   UNL     1       1.485   7.986  20.233  0.00  0.00    +0.000 HD
ENDROOT
BRANCH   2   5
ATOM      5  C   UNL     1       2.905   7.151  18.287  0.00  0.00    +0.000 A 
ATOM      6  C   UNL     1       3.832   6.992  17.315  0.00  0.00    +0.000 A 
ATOM      7  C   UNL     1       4.642   5.790  17.230  0.00  0.00    +0.000 A 
ATOM      8 CL   UNL     1       5.809   5.660  15.977  0.00  0.00    +0.000 Cl
ATOM      9  C   UNL     1       4.482   4.825  18.144  0.00  0.00    +0.000 A 
ATOM     10  N   UNL     1       3.518   4.988  19.134  0.00  0.00    +0.000 N 
ATOM     11  C   UNL     1       3.179   4.154  20.167  0.00  0.00    +0.000 A 
ATOM     12  C   UNL     1       2.150   4.781  20.829  0.00  0.00    +0.000 A 
ATOM     13  N   UNL     1       1.851   5.984  20.244  0.00  0.00    +0.000 NA
ATOM     14  C   UNL     1       2.696   6.104  19.236  0.00  0.00    +0.000 A 
ENDBRANCH   2   5
BRANCH   1  21
ATOM     15  N   UNL     1      -0.801  11.526  18.351  0.00  0.00    +0.000 NA
ATOM     16  C   UNL     1      -0.806  12.376  19.548  0.00  0.00    +0.000 C 
ATOM     17  C   UNL     1      -1.453  11.772  20.813  0.00  0.00    +0.000 C 
ATOM     18  N   UNL     1      -0.432  11.183  21.688  0.00  0.00    +0.000 NA
ATOM     19  C   UNL     1      -0.967  10.977  23.035  0.00  0.00    +0.000 C 
ATOM     20  C   UNL     1       0.080   9.907  21.157  0.00  0.00    +0.000 C 
ATOM     21  C   UNL     1       0.700   9.918  19.730  0.00  0.00    +0.000 C 
ATOM     22  C   UNL     1      -0.370  10.136  18.622  0.00  0.00    +0.000 C 
BRANCH  15  24
ATOM     23  C   UNL     1      -2.709  10.142  17.478  0.00  0.00    +0.000 C 
ATOM     24  C   UNL     1      -2.075  11.525  17.614  0.00  0.00    +0.000 C 
ENDBRANCH  15  24
ENDBRANCH   1  21
TORSDOF 3
ENDMDL
MODEL 4
REMARK VINA RESULT:      -7.2      2.715      7.081
REMARK  Name = 
REMARK  5 active torsions:
REMARK  status: ('A' for Active; 'I' for Inactive)
REMARK    1  A    between atoms: C_1  and  C_2
REMARK    2  A    between atoms: C_2  and  N_3
REMARK    3  A    between atoms: N_6  and  C_7
REMARK    4  A    between atoms: C_9  and  N_10
REMARK    5  A    between atoms: C_11  and  C_13
REMARK                            x       y       z     vdW  Elec       q    Type
REMARK                         _______ _______ _______ _____ _____    ______ ____
ROOT
ATOM      1  N   UNL     1       2.174   7.218  19.969  0.00  0.00    +0.000 N 
ATOM      2  C   UNL     1       1.818   8.168  19.048  0.00  0.00    +0.000 C 
ATOM      3  O   UNL     1       1.862   7.973  17.835  0.00  0.00    +0.000 OA
ATOM      4  H   UNL     1       2.078   7.441  20.960  0.00  0.00    +0.000 HD
ENDROOT
BRANCH   2   5
ATOM      5  C   UNL     1       1.352   9.472  19.600  0.00  0.00    +0.000 A 
ATOM      6  C   UNL     1       1.538  10.578  18.845  0.00  0.00    +0.000 A 
ATOM      7  C   UNL     1       1.043  11.876  19.269  0.00  0.00    +0.000 A 
ATOM      8 CL   UNL     1       1.304  13.236  18.255  0.00  0.00    +0.000 Cl
ATOM      9  C   UNL     1       0.373  11.978  20.424  0.00  0.00    +0.000 A 
ATOM     10  N   UNL     1       0.197  10.839  21.203  0.00  0.00    +0.000 N 
ATOM     11  C   UNL     1      -0.450  10.694  22.403  0.00  0.00    +0.000 A 
ATOM     12  C   UNL     1      -0.305   9.371  22.746  0.00  0.00    +0.000 A 
ATOM     13  N   UNL     1       0.401   8.690  21.789  0.00  0.00    +0.000 NA
ATOM     14  C   UNL     1       0.680   9.582  20.856  0.00  0.00    +0.000 A 
ENDBRANCH   2   5
BRANCH   1  21
ATOM     15  N   UNL     1       4.695   4.830  18.411  0.00  0.00    +0.000 NA
ATOM     16  C   UNL     1       3.968   3.558  18.505  0.00  0.00    +0.000 C 
ATOM     17  C   UNL     1       3.683   3.036  19.929  0.00  0.00    +0.000 C 
ATOM     18  N   UNL     1       2.332   3.415  20.360  0.00  0.00    +0.000 NA
ATOM     19  C   UNL     1       1.913   2.606  21.507  0.00  0.00    +0.000 C 
ATOM     20  C   UNL     1       2.242   4.845  20.703  0.00  0.00    +0.000 C 
ATOM     21  C   UNL     1       2.641   5.874  19.606  0.00  0.00    +0.000 C 
ATOM     22  C   UNL     1       4.170   5.873  19.321  0.00  0.00    +0.000 C 
BRANCH  15  24
ATOM     23  C   UNL     1       6.923   4.665  17.261  0.00  0.00    +0.000 C 
ATOM     24  C   UNL     1       6.152   4.699  18.578  0.00  0.00    +0.000 C 
ENDBRANCH  15  24
ENDBRANCH   1  21
TORSDOF 3
ENDMDL
MODEL 5
REMARK VINA RESULT:      -7.1      2.724      7.185
REMARK  Name = 
REMARK  5 active torsions:
REMARK  status: ('A' for Active; 'I' for Inactive)
REMARK    1  A    between atoms: C_1  and  C_2
REMARK    2  A    between atoms: C_2  and  N_3
REMARK    3  A    between atoms: N_6  and  C_7
REMARK    4  A    between atoms: C_9  and  N_10
REMARK    5  A    between atoms: C_11  and  C_13
REMARK                            x       y       z     vdW  Elec       q    Type
REMARK                         _______ _______ _______ _____ _____    ______ ____
ROOT
ATOM      1  N   UNL     1       2.230   7.329  19.018  0.00  0.00    +0.000 N 
ATOM      2  C   UNL     1       2.028   8.491  18.321  0.00  0.00    +0.000 C 
ATOM      3  O   UNL     1       2.251   8.597  17.116  0.00  0.00    +0.000 OA
ATOM      4  H   UNL     1       1.991   7.309  20.010  0.00  0.00    +0.000 HD
ENDROOT
BRANCH   2   5
ATOM      5  C   UNL     1       1.501   9.643  19.108  0.00  0.00    +0.000 A 
ATOM      6  C   UNL     1       1.622  10.879  18.573  0.00  0.00    +0.000 A 
ATOM      7  C   UNL     1       1.066  12.047  19.233  0.00  0.00    +0.000 A 
ATOM      8 CL   UNL     1       1.246  13.585  18.492  0.00  0.00    +0.000 Cl
ATOM      9  C   UNL     1       0.403  11.896  20.386  0.00  0.00    +0.000 A 
ATOM     10  N   UNL     1       0.293  10.624  20.938  0.00  0.00    +0.000 N 
ATOM     11  C   UNL     1      -0.333  10.223  22.090  0.00  0.00    +0.000 A 
ATOM     12  C   UNL     1      -0.117   8.869  22.179  0.00  0.00    +0.000 A 
ATOM     13  N   UNL     1       0.613   8.417  21.111  0.00  0.00    +0.000 NA
ATOM     14  C   UNL     1       0.837   9.481  20.362  0.00  0.00    +0.000 A 
ENDBRANCH   2   5
BRANCH   1  21
ATOM     15  N   UNL     1       5.026   5.106  17.706  0.00  0.00    +0.000 NA
ATOM     16  C   UNL     1       4.253   4.011  17.105  0.00  0.00    +0.000 C 
ATOM     17  C   UNL     1       3.418   3.150  18.076  0.00  0.00    +0.000 C 
ATOM     18  N   UNL     1       2.027   3.616  18.119  0.00  0.00    +0.000 NA
ATOM     19  C   UNL     1       1.160   2.590  18.703  0.00  0.00    +0.000 C 
ATOM     20  C   UNL     1       1.888   4.872  18.876  0.00  0.00    +0.000 C 
ATOM     21  C   UNL     1       2.729   6.094  18.403  0.00  0.00    +0.000 C 
ATOM     22  C   UNL     1       4.249   5.907  18.678  0.00  0.00    +0.000 C 
BRANCH  15  24
ATOM     23  C   UNL     1       7.458   4.606  17.316  0.00  0.00    +0.000 C 
ATOM     24  C   UNL     1       6.299   4.676  18.309  0.00  0.00    +0.000 C 
ENDBRANCH  15  24
ENDBRANCH   1  21
TORSDOF 3
ENDMDL
MODEL 6
REMARK VINA RESULT:      -7.1      1.642      2.506
REMARK  Name = 
REMARK  5 active torsions:
REMARK  status: ('A' for Active; 'I' for Inactive)
REMARK    1  A    between atoms: C_1  and  C_2
REMARK    2  A    between atoms: C_2  and  N_3
REMARK    3  A    between atoms: N_6  and  C_7
REMARK    4  A    between atoms: C_9  and  N_10
REMARK    5  A    between atoms: C_11  and  C_13
REMARK                            x       y       z     vdW  Elec       q    Type
REMARK                         _______ _______ _______ _____ _____    ______ ____
ROOT
ATOM      1  N   UNL     1       1.892   7.508  19.593  0.00  0.00    +0.000 N 
ATOM      2  C   UNL     1       2.625   7.332  18.449  0.00  0.00    +0.000 C 
ATOM      3  O   UNL     1       3.029   8.268  17.762  0.00  0.00    +0.000 OA
ATOM      4  H   UNL     1       1.620   6.682  20.128  0.00  0.00    +0.000 HD
ENDROOT
BRANCH   2   5
ATOM      5  C   UNL     1       2.928   5.920  18.077  0.00  0.00    +0.000 A 
ATOM      6  C   UNL     1       2.047   4.966  18.455  0.00  0.00    +0.000 A 
ATOM      7  C   UNL     1       2.222   3.578  18.068  0.00  0.00    +0.000 A 
ATOM      8 CL   UNL     1       1.058   2.421  18.573  0.00  0.00    +0.000 Cl
ATOM      9  C   UNL     1       3.267   3.235  17.305  0.00  0.00    +0.000 A 
ATOM     10  N   UNL     1       4.178   4.219  16.930  0.00  0.00    +0.000 N 
ATOM     11  C   UNL     1       5.306   4.115  16.158  0.00  0.00    +0.000 A 
ATOM     12  C   UNL     1       5.850   5.377  16.124  0.00  0.00    +0.000 A 
ATOM     13  N   UNL     1       5.086   6.261  16.839  0.00  0.00    +0.000 NA
ATOM     14  C   UNL     1       4.072   5.554  17.304  0.00  0.00    +0.000 A 
ENDBRANCH   2   5
BRANCH   1  21
ATOM     15  N   UNL     1       0.639  11.075  19.163  0.00  0.00    +0.000 NA
ATOM     16  C   UNL     1       0.815  11.598  20.524  0.00  0.00    +0.000 C 
ATOM     17  C   UNL     1      -0.055  10.951  21.623  0.00  0.00    +0.000 C 
ATOM     18  N   UNL     1       0.693   9.901  22.326  0.00  0.00    +0.000 NA
ATOM     19  C   UNL     1       0.043   9.571  23.596  0.00  0.00    +0.000 C 
ATOM     20  C   UNL     1       0.835   8.683  21.510  0.00  0.00    +0.000 C 
ATOM     21  C   UNL     1       1.515   8.826  20.117  0.00  0.00    +0.000 C 
ATOM     22  C   UNL     1       0.624   9.597  19.101  0.00  0.00    +0.000 C 
BRANCH  15  24
ATOM     23  C   UNL     1      -1.493  10.557  17.938  0.00  0.00    +0.000 C 
ATOM     24  C   UNL     1      -0.532  11.624  18.460  0.00  0.00    +0.000 C 
ENDBRANCH  15  24
ENDBRANCH   1  21
TORSDOF 3
ENDMDL
MODEL 7
REMARK VINA RESULT:      -7.0      2.497      3.834
REMARK  Name = 
REMARK  5 active torsions:
REMARK  status: ('A' for Active; 'I' for Inactive)
REMARK    1  A    between atoms: C_1  and  C_2
REMARK    2  A    between atoms: C_2  and  N_3
REMARK    3  A    between atoms: N_6  and  C_7
REMARK    4  A    between atoms: C_9  and  N_10
REMARK    5  A    between atoms: C_11  and  C_13
REMARK                            x       y       z     vdW  Elec       q    Type
REMARK                         _______ _______ _______ _____ _____    ______ ____
ROOT
ATOM      1  N   UNL     1       1.431   8.811  19.016  0.00  0.00    +0.000 N 
ATOM      2  C   UNL     1       1.688   8.032  20.112  0.00  0.00    +0.000 C 
ATOM      3  O   UNL     1       1.498   8.414  21.265  0.00  0.00    +0.000 OA
ATOM      4  H   UNL     1       1.582   8.412  18.088  0.00  0.00    +0.000 HD
ENDROOT
BRANCH   2   5
ATOM      5  C   UNL     1       2.207   6.662  19.833  0.00  0.00    +0.000 A 
ATOM      6  C   UNL     1       1.771   5.651  20.619  0.00  0.00    +0.000 A 
ATOM      7  C   UNL     1       2.162   4.276  20.369  0.00  0.00    +0.000 A 
ATOM      8 CL   UNL     1       1.561   3.040  21.399  0.00  0.00    +0.000 Cl
ATOM      9  C   UNL     1       2.957   3.997  19.329  0.00  0.00    +0.000 A 
ATOM     10  N   UNL     1       3.414   5.043  18.532  0.00  0.00    +0.000 N 
ATOM     11  C   UNL     1       4.221   5.007  17.425  0.00  0.00    +0.000 A 
ATOM     12  C   UNL     1       4.382   6.317  17.040  0.00  0.00    +0.000 A 
ATOM     13  N   UNL     1       3.688   7.161  17.868  0.00  0.00    +0.000 NA
ATOM     14  C   UNL     1       3.095   6.378  18.751  0.00  0.00    +0.000 A 
ENDBRANCH   2   5
BRANCH   1  21
ATOM     15  N   UNL     1       1.851  12.593  19.048  0.00  0.00    +0.000 NA
ATOM     16  C   UNL     1       0.486  13.023  19.376  0.00  0.00    +0.000 C 
ATOM     17  C   UNL     1      -0.601  12.705  18.327  0.00  0.00    +0.000 C 
ATOM     18  N   UNL     1      -1.306  11.463  18.669  0.00  0.00    +0.000 NA
ATOM     19  C   UNL     1      -2.567  11.369  17.932  0.00  0.00    +0.000 C 
ATOM     20  C   UNL     1      -0.484  10.270  18.399  0.00  0.00    +0.000 C 
ATOM     21  C   UNL     1       0.902  10.178  19.101  0.00  0.00    +0.000 C 
ATOM     22  C   UNL     1       1.922  11.207  18.534  0.00  0.00    +0.000 C 
BRANCH  15  24
ATOM     23  C   UNL     1       2.398  14.983  18.494  0.00  0.00    +0.000 C 
ATOM     24  C   UNL     1       2.562  13.507  18.138  0.00  0.00    +0.000 C 
ENDBRANCH  15  24
ENDBRANCH   1  21
TORSDOF 3
ENDMDL
MODEL 8
REMARK VINA RESULT:      -7.0      2.034      2.706
REMARK  Name = 
REMARK  5 active torsions:
REMARK  status: ('A' for Active; 'I' for Inactive)
REMARK    1  A    between atoms: C_1  and  C_2
REMARK    2  A    between atoms: C_2  and  N_3
REMARK    3  A    between atoms: N_6  and  C_7
REMARK    4  A    between atoms: C_9  and  N_10
REMARK    5  A    between atoms: C_11  and  C_13
REMARK                            x       y       z     vdW  Elec       q    Type
REMARK                         _______ _______ _______ _____ _____    ______ ____
ROOT
ATOM      1  N   UNL     1       2.017   8.420  17.911  0.00  0.00    +0.000 N 
ATOM      2  C   UNL     1       2.432   7.391  18.715  0.00  0.00    +0.000 C 
ATOM      3  O   UNL     1       2.273   7.388  19.934  0.00  0.00    +0.000 OA
ATOM      4  H   UNL     1       2.154   8.336  16.903  0.00  0.00    +0.000 HD
ENDROOT
BRANCH   2   5
ATOM      5  C   UNL     1       3.087   6.244  18.023  0.00  0.00    +0.000 A 
ATOM      6  C   UNL     1       4.263   6.475  17.396  0.00  0.00    +0.000 A 
ATOM      7  C   UNL     1       5.008   5.401  16.765  0.00  0.00    +0.000 A 
ATOM      8 CL   UNL     1       6.500   5.764  15.998  0.00  0.00    +0.000 Cl
ATOM      9  C   UNL     1       4.532   4.151  16.820  0.00  0.00    +0.000 A 
ATOM     10  N   UNL     1       3.316   3.921  17.455  0.00  0.00    +0.000 N 
ATOM     11  C   UNL     1       2.637   2.744  17.642  0.00  0.00    +0.000 A 
ATOM     12  C   UNL     1       1.481   3.083  18.303  0.00  0.00    +0.000 A 
ATOM     13  N   UNL     1       1.429   4.432  18.542  0.00  0.00    +0.000 NA
ATOM     14  C   UNL     1       2.549   4.921  18.043  0.00  0.00    +0.000 A 
ENDBRANCH   2   5
BRANCH   1  21
ATOM     15  N   UNL     1       1.956  12.097  18.889  0.00  0.00    +0.000 NA
ATOM     16  C   UNL     1       0.618  12.206  19.483  0.00  0.00    +0.000 C 
ATOM     17  C   UNL     1      -0.574  11.980  18.528  0.00  0.00    +0.000 C 
ATOM     18  N   UNL     1      -1.052  10.594  18.613  0.00  0.00    +0.000 NA
ATOM     19  C   UNL     1      -2.394  10.478  18.038  0.00  0.00    +0.000 C 
ATOM     20  C   UNL     1      -0.141   9.653  17.940  0.00  0.00    +0.000 C 
ATOM     21  C   UNL     1       1.341   9.620  18.418  0.00  0.00    +0.000 C 
ATOM     22  C   UNL     1       2.118  10.908  18.023  0.00  0.00    +0.000 C 
BRANCH  15  24
ATOM     23  C   UNL     1       2.125  14.604  18.935  0.00  0.00    +0.000 C 
ATOM     24  C   UNL     1       2.391  13.308  18.173  0.00  0.00    +0.000 C 
ENDBRANCH  15  24
ENDBRANCH   1  21
TORSDOF 3
ENDMDL
MODEL 9
REMARK VINA RESULT:      -6.9      2.496      3.631
REMARK  Name = 
REMARK  5 active torsions:
REMARK  status: ('A' for Active; 'I' for Inactive)
REMARK    1  A    between atoms: C_1  and  C_2
REMARK    2  A    between atoms: C_2  and  N_3
REMARK    3  A    between atoms: N_6  and  C_7
REMARK    4  A    between atoms: C_9  and  N_10
REMARK    5  A    between atoms: C_11  and  C_13
REMARK                            x       y       z     vdW  Elec       q    Type
REMARK                         _______ _______ _______ _____ _____    ______ ____
ROOT
ATOM      1  N   UNL     1       1.838   8.528  18.207  0.00  0.00    +0.000 N 
ATOM      2  C   UNL     1       2.138   7.520  19.085  0.00  0.00    +0.000 C 
ATOM      3  O   UNL     1       1.971   7.618  20.299  0.00  0.00    +0.000 OA
ATOM      4  H   UNL     1       1.972   8.361  17.209  0.00  0.00    +0.000 HD
ENDROOT
BRANCH   2   5
ATOM      5  C   UNL     1       2.674   6.266  18.482  0.00  0.00    +0.000 A 
ATOM      6  C   UNL     1       1.996   5.118  18.708  0.00  0.00    +0.000 A 
ATOM      7  C   UNL     1       2.401   3.866  18.095  0.00  0.00    +0.000 A 
ATOM      8 CL   UNL     1       1.486   2.449  18.417  0.00  0.00    +0.000 Cl
ATOM      9  C   UNL     1       3.457   3.848  17.273  0.00  0.00    +0.000 A 
ATOM     10  N   UNL     1       4.159   5.030  17.054  0.00  0.00    +0.000 N 
ATOM     11  C   UNL     1       5.254   5.260  16.262  0.00  0.00    +0.000 A 
ATOM     12  C   UNL     1       5.560   6.590  16.429  0.00  0.00    +0.000 A 
ATOM     13  N   UNL     1       4.680   7.192  17.290  0.00  0.00    +0.000 NA
ATOM     14  C   UNL     1       3.831   6.245  17.644  0.00  0.00    +0.000 A 
ENDBRANCH   2   5
BRANCH   1  21
ATOM     15  N   UNL     1       2.136  12.266  18.859  0.00  0.00    +0.000 NA
ATOM     16  C   UNL     1       0.832  12.547  19.471  0.00  0.00    +0.000 C 
ATOM     17  C   UNL     1      -0.404  12.351  18.568  0.00  0.00    +0.000 C 
ATOM     18  N   UNL     1      -1.002  11.027  18.785  0.00  0.00    +0.000 NA
ATOM     19  C   UNL     1      -2.365  10.985  18.253  0.00  0.00    +0.000 C 
ATOM     20  C   UNL     1      -0.199   9.952  18.177  0.00  0.00    +0.000 C 
ATOM     21  C   UNL     1       1.288   9.824  18.622  0.00  0.00    +0.000 C 
ATOM     22  C   UNL     1       2.165  10.997  18.098  0.00  0.00    +0.000 C 
BRANCH  15  24
ATOM     23  C   UNL     1       2.498  14.745  18.665  0.00  0.00    +0.000 C 
ATOM     24  C   UNL     1       2.656  13.366  18.030  0.00  0.00    +0.000 C 
ENDBRANCH  15  24
ENDBRANCH   1  21
TORSDOF 3
ENDMDL
