MODEL 1
REMARK VINA RESULT:      -5.9      0.000      0.000
REMARK  Name = 
REMARK  5 active torsions:
REMARK  status: ('A' for Active; 'I' for Inactive)
REMARK    1  A    between atoms: C_1  and  C_2
REMARK    2  A    between atoms: C_2  and  S_3
REMARK    3  A    between atoms: S_3  and  C_5
REMARK    4  A    between atoms: C_10  and  C_11
REMARK    5  A    between atoms: C_11  and  O_13
REMARK                            x       y       z     vdW  Elec       q    Type
REMARK                         _______ _______ _______ _____ _____    ______ ____
ROOT
ATOM      1  C   UNL     1       3.770   4.423  19.427  0.00  0.00    +0.000 A 
ATOM      2  C   UNL     1       2.995   5.531  19.818  0.00  0.00    +0.000 A 
ATOM      3  C   UNL     1       1.774   5.365  20.471  0.00  0.00    +0.000 A 
ATOM      4  C   UNL     1       1.302   4.086  20.739  0.00  0.00    +0.000 A 
ATOM      5  C   UNL     1       2.056   2.973  20.365  0.00  0.00    +0.000 A 
ATOM      6  C   UNL     1       3.306   3.128  19.731  0.00  0.00    +0.000 A 
ENDROOT
BRANCH   1   7
ATOM      7  S   UNL     1       5.344   4.765  18.575  0.00  0.00    +0.000 S 
ATOM      8  O   UNL     1       6.360   5.199  19.697  0.00  0.00    +0.000 OA
BRANCH   7  10
ATOM      9  C   UNL     1       5.119   6.223  16.231  0.00  0.00    +0.000 C 
ATOM     10  C   UNL     1       4.817   6.295  17.719  0.00  0.00    +0.000 C 
ENDBRANCH   7  10
ENDBRANCH   1   7
BRANCH   6  11
ATOM     11  C   UNL     1       4.050   1.903  19.343  0.00  0.00    +0.000 C 
ATOM     12  O   UNL     1       3.702   1.176  18.423  0.00  0.00    +0.000 OA
BRANCH  11  13
ATOM     13  O   UNL     1       5.125   1.623  20.112  0.00  0.00    +0.000 OA
ATOM     14  H   UNL     1       5.181   0.709  20.450  0.00  0.00    +0.000 HD
ENDBRANCH  11  13
ENDBRANCH   6  11
TORSDOF 4
ENDMDL
MODEL 2
REMARK VINA RESULT:      -5.7      1.005      1.076
REMARK  Name = 
REMARK  5 active torsions:
REMARK  status: ('A' for Active; 'I' for Inactive)
REMARK    1  A    between atoms: C_1  and  C_2
REMARK    2  A    between atoms: C_2  and  S_3
REMARK    3  A    between atoms: S_3  and  C_5
REMARK    4  A    between atoms: C_10  and  C_11
REMARK    5  A    between atoms: C_11  and  O_13
REMARK                            x       y       z     vdW  Elec       q    Type
REMARK                         _______ _______ _______ _____ _____    ______ ____
ROOT
ATOM      1  C   UNL     1       4.013   4.767  18.820  0.00  0.00    +0.000 A 
ATOM      2  C   UNL     1       3.433   6.032  19.027  0.00  0.00    +0.000 A 
ATOM      3  C   UNL     1       2.323   6.192  19.856  0.00  0.00    +0.000 A 
ATOM      4  C   UNL     1       1.768   5.086  20.489  0.00  0.00    +0.000 A 
ATOM      5  C   UNL     1       2.329   3.823  20.302  0.00  0.00    +0.000 A 
ATOM      6  C   UNL     1       3.469   3.652  19.490  0.00  0.00    +0.000 A 
ENDROOT
BRANCH   1   7
ATOM      7  S   UNL     1       5.456   4.681  17.710  0.00  0.00    +0.000 S 
ATOM      8  O   UNL     1       6.684   4.309  18.622  0.00  0.00    +0.000 OA
BRANCH   7  10
ATOM      9  C   UNL     1       7.023   6.949  17.443  0.00  0.00    +0.000 C 
ATOM     10  C   UNL     1       5.582   6.473  17.356  0.00  0.00    +0.000 C 
ENDBRANCH   7  10
ENDBRANCH   1   7
BRANCH   6  11
ATOM     11  C   UNL     1       4.007   2.279  19.318  0.00  0.00    +0.000 C 
ATOM     12  O   UNL     1       3.469   1.436  18.614  0.00  0.00    +0.000 OA
BRANCH  11  13
ATOM     13  O   UNL     1       5.120   2.010  20.036  0.00  0.00    +0.000 OA
ATOM     14  H   UNL     1       5.039   1.300  20.700  0.00  0.00    +0.000 HD
ENDBRANCH  11  13
ENDBRANCH   6  11
TORSDOF 4
ENDMDL
MODEL 3
REMARK VINA RESULT:      -5.7      2.032      2.925
REMARK  Name = 
REMARK  5 active torsions:
REMARK  status: ('A' for Active; 'I' for Inactive)
REMARK    1  A    between atoms: C_1  and  C_2
REMARK    2  A    between atoms: C_2  and  S_3
REMARK    3  A    between atoms: S_3  and  C_5
REMARK    4  A    between atoms: C_10  and  C_11
REMARK    5  A    between atoms: C_11  and  O_13
REMARK                            x       y       z     vdW  Elec       q    Type
REMARK                         _______ _______ _______ _____ _____    ______ ____
ROOT
ATOM      1  C   UNL     1       5.045   5.407  17.396  0.00  0.00    +0.000 A 
ATOM      2  C   UNL     1       4.769   6.764  17.147  0.00  0.00    +0.000 A 
ATOM      3  C   UNL     1       3.580   7.352  17.579  0.00  0.00    +0.000 A 
ATOM      4  C   UNL     1       2.641   6.589  18.262  0.00  0.00    +0.000 A 
ATOM      5  C   UNL     1       2.895   5.242  18.525  0.00  0.00    +0.000 A 
ATOM      6  C   UNL     1       4.106   4.644  18.119  0.00  0.00    +0.000 A 
ENDROOT
BRANCH   1   7
ATOM      7  S   UNL     1       6.628   4.751  16.777  0.00  0.00    +0.000 S 
ATOM      8  O   UNL     1       7.446   5.996  16.268  0.00  0.00    +0.000 OA
BRANCH   7  10
ATOM      9  C   UNL     1       6.619   4.437  14.025  0.00  0.00    +0.000 C 
ATOM     10  C   UNL     1       5.965   3.910  15.292  0.00  0.00    +0.000 C 
ENDBRANCH   7  10
ENDBRANCH   1   7
BRANCH   6  11
ATOM     11  C   UNL     1       4.308   3.203  18.414  0.00  0.00    +0.000 C 
ATOM     12  O   UNL     1       3.763   2.311  17.779  0.00  0.00    +0.000 OA
BRANCH  11  13
ATOM     13  O   UNL     1       5.111   2.945  19.469  0.00  0.00    +0.000 OA
ATOM     14  H   UNL     1       5.984   3.381  19.458  0.00  0.00    +0.000 HD
ENDBRANCH  11  13
ENDBRANCH   6  11
TORSDOF 4
ENDMDL
MODEL 4
REMARK VINA RESULT:      -5.7      2.976      4.240
REMARK  Name = 
REMARK  5 active torsions:
REMARK  status: ('A' for Active; 'I' for Inactive)
REMARK    1  A    between atoms: C_1  and  C_2
REMARK    2  A    between atoms: C_2  and  S_3
REMARK    3  A    between atoms: S_3  and  C_5
REMARK    4  A    between atoms: C_10  and  C_11
REMARK    5  A    between atoms: C_11  and  O_13
REMARK                            x       y       z     vdW  Elec       q    Type
REMARK                         _______ _______ _______ _____ _____    ______ ____
ROOT
ATOM      1  C   UNL     1       5.682   4.717  17.070  0.00  0.00    +0.000 A 
ATOM      2  C   UNL     1       4.349   4.333  16.839  0.00  0.00    +0.000 A 
ATOM      3  C   UNL     1       3.380   4.445  17.837  0.00  0.00    +0.000 A 
ATOM      4  C   UNL     1       3.731   4.936  19.088  0.00  0.00    +0.000 A 
ATOM      5  C   UNL     1       5.047   5.328  19.338  0.00  0.00    +0.000 A 
ATOM      6  C   UNL     1       6.028   5.247  18.329  0.00  0.00    +0.000 A 
ENDROOT
BRANCH   1   7
ATOM      7  S   UNL     1       6.859   4.518  15.693  0.00  0.00    +0.000 S 
ATOM      8  O   UNL     1       7.512   5.934  15.472  0.00  0.00    +0.000 OA
BRANCH   7  10
ATOM      9  C   UNL     1       6.252   3.678  13.124  0.00  0.00    +0.000 C 
ATOM     10  C   UNL     1       5.621   4.294  14.362  0.00  0.00    +0.000 C 
ENDBRANCH   7  10
ENDBRANCH   1   7
BRANCH   6  11
ATOM     11  C   UNL     1       7.414   5.663  18.666  0.00  0.00    +0.000 C 
ATOM     12  O   UNL     1       8.179   4.965  19.315  0.00  0.00    +0.000 OA
BRANCH  11  13
ATOM     13  O   UNL     1       7.758   6.897  18.236  0.00  0.00    +0.000 OA
ATOM     14  H   UNL     1       8.499   7.322  18.707  0.00  0.00    +0.000 HD
ENDBRANCH  11  13
ENDBRANCH   6  11
TORSDOF 4
ENDMDL
MODEL 5
REMARK VINA RESULT:      -5.6      1.495      1.736
REMARK  Name = 
REMARK  5 active torsions:
REMARK  status: ('A' for Active; 'I' for Inactive)
REMARK    1  A    between atoms: C_1  and  C_2
REMARK    2  A    between atoms: C_2  and  S_3
REMARK    3  A    between atoms: S_3  and  C_5
REMARK    4  A    between atoms: C_10  and  C_11
REMARK    5  A    between atoms: C_11  and  O_13
REMARK                            x       y       z     vdW  Elec       q    Type
REMARK                         _______ _______ _______ _____ _____    ______ ____
ROOT
ATOM      1  C   UNL     1       3.843   3.819  18.188  0.00  0.00    +0.000 A 
ATOM      2  C   UNL     1       2.884   4.705  17.667  0.00  0.00    +0.000 A 
ATOM      3  C   UNL     1       1.518   4.456  17.805  0.00  0.00    +0.000 A 
ATOM      4  C   UNL     1       1.088   3.309  18.461  0.00  0.00    +0.000 A 
ATOM      5  C   UNL     1       2.022   2.418  18.990  0.00  0.00    +0.000 A 
ATOM      6  C   UNL     1       3.405   2.674  18.883  0.00  0.00    +0.000 A 
ENDROOT
BRANCH   1   7
ATOM      7  S   UNL     1       5.598   4.247  17.940  0.00  0.00    +0.000 S 
ATOM      8  O   UNL     1       6.082   4.892  19.293  0.00  0.00    +0.000 OA
BRANCH   7  10
ATOM      9  C   UNL     1       6.051   6.883  17.222  0.00  0.00    +0.000 C 
ATOM     10  C   UNL     1       5.335   5.624  16.762  0.00  0.00    +0.000 C 
ENDBRANCH   7  10
ENDBRANCH   1   7
BRANCH   6  11
ATOM     11  C   UNL     1       4.347   1.677  19.452  0.00  0.00    +0.000 C 
ATOM     12  O   UNL     1       4.982   1.872  20.479  0.00  0.00    +0.000 OA
BRANCH  11  13
ATOM     13  O   UNL     1       4.486   0.546  18.726  0.00  0.00    +0.000 OA
ATOM     14  H   UNL     1       5.007   0.627  17.905  0.00  0.00    +0.000 HD
ENDBRANCH  11  13
ENDBRANCH   6  11
TORSDOF 4
ENDMDL
MODEL 6
REMARK VINA RESULT:      -5.6      0.897      1.345
REMARK  Name = 
REMARK  5 active torsions:
REMARK  status: ('A' for Active; 'I' for Inactive)
REMARK    1  A    between atoms: C_1  and  C_2
REMARK    2  A    between atoms: C_2  and  S_3
REMARK    3  A    between atoms: S_3  and  C_5
REMARK    4  A    between atoms: C_10  and  C_11
REMARK    5  A    between atoms: C_11  and  O_13
REMARK                            x       y       z     vdW  Elec       q    Type
REMARK                         _______ _______ _______ _____ _____    ______ ____
ROOT
ATOM      1  C   UNL     1       3.395   4.331  19.090  0.00  0.00    +0.000 A 
ATOM      2  C   UNL     1       3.025   5.460  19.843  0.00  0.00    +0.000 A 
ATOM      3  C   UNL     1       1.845   5.480  20.587  0.00  0.00    +0.000 A 
ATOM      4  C   UNL     1       1.009   4.370  20.583  0.00  0.00    +0.000 A 
ATOM      5  C   UNL     1       1.358   3.237  19.848  0.00  0.00    +0.000 A 
ATOM      6  C   UNL     1       2.562   3.194  19.116  0.00  0.00    +0.000 A 
ENDROOT
BRANCH   1   7
ATOM      7  S   UNL     1       4.956   4.426  18.154  0.00  0.00    +0.000 S 
ATOM      8  O   UNL     1       6.108   4.400  19.228  0.00  0.00    +0.000 OA
BRANCH   7  10
ATOM      9  C   UNL     1       5.153   6.308  16.132  0.00  0.00    +0.000 C 
ATOM     10  C   UNL     1       4.788   6.163  17.601  0.00  0.00    +0.000 C 
ENDBRANCH   7  10
ENDBRANCH   1   7
BRANCH   6  11
ATOM     11  C   UNL     1       2.866   1.965  18.340  0.00  0.00    +0.000 C 
ATOM     12  O   UNL     1       3.744   1.176  18.660  0.00  0.00    +0.000 OA
BRANCH  11  13
ATOM     13  O   UNL     1       2.126   1.801  17.221  0.00  0.00    +0.000 OA
ATOM     14  H   UNL     1       1.209   2.133  17.264  0.00  0.00    +0.000 HD
ENDBRANCH  11  13
ENDBRANCH   6  11
TORSDOF 4
ENDMDL
MODEL 7
REMARK VINA RESULT:      -5.6      1.446      1.894
REMARK  Name = 
REMARK  5 active torsions:
REMARK  status: ('A' for Active; 'I' for Inactive)
REMARK    1  A    between atoms: C_1  and  C_2
REMARK    2  A    between atoms: C_2  and  S_3
REMARK    3  A    between atoms: S_3  and  C_5
REMARK    4  A    between atoms: C_10  and  C_11
REMARK    5  A    between atoms: C_11  and  O_13
REMARK                            x       y       z     vdW  Elec       q    Type
REMARK                         _______ _______ _______ _____ _____    ______ ____
ROOT
ATOM      1  C   UNL     1       4.481   4.683  18.394  0.00  0.00    +0.000 A 
ATOM      2  C   UNL     1       3.821   5.857  17.986  0.00  0.00    +0.000 A 
ATOM      3  C   UNL     1       2.428   5.936  17.972  0.00  0.00    +0.000 A 
ATOM      4  C   UNL     1       1.670   4.839  18.360  0.00  0.00    +0.000 A 
ATOM      5  C   UNL     1       2.303   3.666  18.775  0.00  0.00    +0.000 A 
ATOM      6  C   UNL     1       3.710   3.583  18.821  0.00  0.00    +0.000 A 
ENDROOT
BRANCH   1   7
ATOM      7  S   UNL     1       6.303   4.697  18.364  0.00  0.00    +0.000 S 
ATOM      8  O   UNL     1       6.757   5.235  19.772  0.00  0.00    +0.000 OA
BRANCH   7  10
ATOM      9  C   UNL     1       7.509   7.097  17.691  0.00  0.00    +0.000 C 
ATOM     10  C   UNL     1       6.505   6.078  17.179  0.00  0.00    +0.000 C 
ENDBRANCH   7  10
ENDBRANCH   1   7
BRANCH   6  11
ATOM     11  C   UNL     1       4.321   2.301  19.254  0.00  0.00    +0.000 C 
ATOM     12  O   UNL     1       4.930   2.176  20.307  0.00  0.00    +0.000 OA
BRANCH  11  13
ATOM     13  O   UNL     1       4.192   1.284  18.374  0.00  0.00    +0.000 OA
ATOM     14  H   UNL     1       4.079   0.395  18.762  0.00  0.00    +0.000 HD
ENDBRANCH  11  13
ENDBRANCH   6  11
TORSDOF 4
ENDMDL
MODEL 8
REMARK VINA RESULT:      -5.6      1.923      3.979
REMARK  Name = 
REMARK  5 active torsions:
REMARK  status: ('A' for Active; 'I' for Inactive)
REMARK    1  A    between atoms: C_1  and  C_2
REMARK    2  A    between atoms: C_2  and  S_3
REMARK    3  A    between atoms: S_3  and  C_5
REMARK    4  A    between atoms: C_10  and  C_11
REMARK    5  A    between atoms: C_11  and  O_13
REMARK                            x       y       z     vdW  Elec       q    Type
REMARK                         _______ _______ _______ _____ _____    ______ ____
ROOT
ATOM      1  C   UNL     1       3.289   4.199  18.363  0.00  0.00    +0.000 A 
ATOM      2  C   UNL     1       3.348   5.493  17.814  0.00  0.00    +0.000 A 
ATOM      3  C   UNL     1       4.546   6.207  17.771  0.00  0.00    +0.000 A 
ATOM      4  C   UNL     1       5.707   5.640  18.283  0.00  0.00    +0.000 A 
ATOM      5  C   UNL     1       5.672   4.355  18.827  0.00  0.00    +0.000 A 
ATOM      6  C   UNL     1       4.474   3.613  18.850  0.00  0.00    +0.000 A 
ENDROOT
BRANCH   1   7
ATOM      7  S   UNL     1       1.666   3.369  18.370  0.00  0.00    +0.000 S 
ATOM      8  O   UNL     1       0.807   4.085  17.262  0.00  0.00    +0.000 OA
BRANCH   7  10
ATOM      9  C   UNL     1       1.276   2.976  21.083  0.00  0.00    +0.000 C 
ATOM     10  C   UNL     1       1.087   4.008  19.984  0.00  0.00    +0.000 C 
ENDBRANCH   7  10
ENDBRANCH   1   7
BRANCH   6  11
ATOM     11  C   UNL     1       4.501   2.259  19.459  0.00  0.00    +0.000 C 
ATOM     12  O   UNL     1       4.761   2.064  20.638  0.00  0.00    +0.000 OA
BRANCH  11  13
ATOM     13  O   UNL     1       4.259   1.244  18.600  0.00  0.00    +0.000 OA
ATOM     14  H   UNL     1       4.694   0.395  18.809  0.00  0.00    +0.000 HD
ENDBRANCH  11  13
ENDBRANCH   6  11
TORSDOF 4
ENDMDL
MODEL 9
REMARK VINA RESULT:      -5.5      1.780      4.159
REMARK  Name = 
REMARK  5 active torsions:
REMARK  status: ('A' for Active; 'I' for Inactive)
REMARK    1  A    between atoms: C_1  and  C_2
REMARK    2  A    between atoms: C_2  and  S_3
REMARK    3  A    between atoms: S_3  and  C_5
REMARK    4  A    between atoms: C_10  and  C_11
REMARK    5  A    between atoms: C_11  and  O_13
REMARK                            x       y       z     vdW  Elec       q    Type
REMARK                         _______ _______ _______ _____ _____    ______ ____
ROOT
ATOM      1  C   UNL     1       3.485   4.694  18.550  0.00  0.00    +0.000 A 
ATOM      2  C   UNL     1       2.373   5.545  18.689  0.00  0.00    +0.000 A 
ATOM      3  C   UNL     1       2.408   6.862  18.232  0.00  0.00    +0.000 A 
ATOM      4  C   UNL     1       3.561   7.355  17.634  0.00  0.00    +0.000 A 
ATOM      5  C   UNL     1       4.674   6.528  17.481  0.00  0.00    +0.000 A 
ATOM      6  C   UNL     1       4.641   5.186  17.912  0.00  0.00    +0.000 A 
ENDROOT
BRANCH   1   7
ATOM      7  S   UNL     1       3.323   2.996  19.191  0.00  0.00    +0.000 S 
ATOM      8  O   UNL     1       3.385   2.050  17.934  0.00  0.00    +0.000 OA
BRANCH   7  10
ATOM      9  C   UNL     1       1.401   2.892  21.183  0.00  0.00    +0.000 C 
ATOM     10  C   UNL     1       1.563   3.103  19.686  0.00  0.00    +0.000 C 
ENDBRANCH   7  10
ENDBRANCH   1   7
BRANCH   6  11
ATOM     11  C   UNL     1       5.866   4.365  17.737  0.00  0.00    +0.000 C 
ATOM     12  O   UNL     1       6.837   4.452  18.474  0.00  0.00    +0.000 OA
BRANCH  11  13
ATOM     13  O   UNL     1       5.847   3.536  16.669  0.00  0.00    +0.000 OA
ATOM     14  H   UNL     1       4.977   3.406  16.246  0.00  0.00    +0.000 HD
ENDBRANCH  11  13
ENDBRANCH   6  11
TORSDOF 4
ENDMDL
