MODEL 1
REMARK VINA RESULT:      -7.8      0.000      0.000
REMARK  Name = 
REMARK  11 active torsions:
REMARK  status: ('A' for Active; 'I' for Inactive)
REMARK    1  A    between atoms: C_1  and  C_2
REMARK    2  A    between atoms: C_2  and  C_3
REMARK    3  A    between atoms: C_3  and  O_4
REMARK    4  A    between atoms: O_4  and  C_5
REMARK    5  A    between atoms: C_8  and  O_9
REMARK    6  A    between atoms: O_9  and  C_10
REMARK    7  A    between atoms: C_13  and  C_14
REMARK    8  A    between atoms: C_17  and  C_18
REMARK    9  A    between atoms: C_18  and  C_19
REMARK   10  A    between atoms: C_18  and  N_20
REMARK   11  A    between atoms: C_21  and  C_22
REMARK                            x       y       z     vdW  Elec       q    Type
REMARK                         _______ _______ _______ _____ _____    ______ ____
ROOT
ATOM      1  C   UNL     1       6.705   5.836  17.162  0.00  0.00    +0.000 A 
ATOM      2  C   UNL     1       7.670   5.797  18.153  0.00  0.00    +0.000 A 
ATOM      3  C   UNL     1       8.259   7.004  18.554  0.00  0.00    +0.000 A 
ATOM      4  C   UNL     1       7.885   8.220  17.961  0.00  0.00    +0.000 A 
ATOM      5  C   UNL     1       6.912   8.120  16.962  0.00  0.00    +0.000 A 
ATOM      6  N   UNL     1       6.296   6.982  16.579  0.00  0.00    +0.000 NA
ENDROOT
BRANCH   4   7
ATOM      7  C   UNL     1       8.451   9.532  18.346  0.00  0.00    +0.000 A 
ATOM      8  C   UNL     1       9.243   9.713  19.490  0.00  0.00    +0.000 A 
ATOM      9  C   UNL     1       9.813  10.959  19.793  0.00  0.00    +0.000 A 
ATOM     10  C   UNL     1       9.630  12.065  18.951  0.00  0.00    +0.000 A 
ATOM     11  C   UNL     1       8.789  11.912  17.847  0.00  0.00    +0.000 A 
ATOM     12  C   UNL     1       8.217  10.671  17.553  0.00  0.00    +0.000 A 
BRANCH  10  13
ATOM     13  C   UNL     1      10.345  13.369  19.259  0.00  0.00    +0.000 C 
ATOM     14  C   UNL     1      11.648  13.178  20.050  0.00  0.00    +0.000 C 
BRANCH  13  15
ATOM     15  N   UNL     1      10.583  14.112  18.035  0.00  0.00    +0.000 N 
ATOM     16  C   UNL     1      10.294  15.454  17.948  0.00  0.00    +0.000 C 
ATOM     17  C   UNL     1      10.639  16.088  16.629  0.00  0.00    +0.000 C 
ATOM     18  O   UNL     1       9.768  16.093  18.855  0.00  0.00    +0.000 OA
ATOM     19  H   UNL     1      11.077  13.652  17.284  0.00  0.00    +0.000 HD
ENDBRANCH  13  15
ENDBRANCH  10  13
ENDBRANCH   4   7
BRANCH   1  20
ATOM     20  O   UNL     1       6.179   4.632  16.705  0.00  0.00    +0.000 OA
BRANCH  20  24
ATOM     21  C   UNL     1       3.123   2.873  18.959  0.00  0.00    +0.000 A 
ATOM     22  C   UNL     1       4.324   3.238  19.567  0.00  0.00    +0.000 A 
ATOM     23  C   UNL     1       5.321   3.874  18.838  0.00  0.00    +0.000 A 
ATOM     24  C   UNL     1       5.168   4.085  17.470  0.00  0.00    +0.000 A 
ATOM     25  C   UNL     1       3.961   3.756  16.854  0.00  0.00    +0.000 A 
ATOM     26  C   UNL     1       2.938   3.150  17.602  0.00  0.00    +0.000 A 
BRANCH  21  27
ATOM     27  O   UNL     1       2.086   2.245  19.615  0.00  0.00    +0.000 OA
BRANCH  27  28
ATOM     28  C   UNL     1       1.604   2.968  20.752  0.00  0.00    +0.000 C 
BRANCH  28  30
ATOM     29  C   UNL     1       1.557   5.449  20.834  0.00  0.00    +0.000 C 
ATOM     30  C   UNL     1       0.825   4.206  20.345  0.00  0.00    +0.000 C 
ENDBRANCH  28  30
ENDBRANCH  27  28
ENDBRANCH  21  27
ENDBRANCH  20  24
ENDBRANCH   1  20
TORSDOF 8
ENDMDL
MODEL 2
REMARK VINA RESULT:      -7.7      0.746      1.209
REMARK  Name = 
REMARK  11 active torsions:
REMARK  status: ('A' for Active; 'I' for Inactive)
REMARK    1  A    between atoms: C_1  and  C_2
REMARK    2  A    between atoms: C_2  and  C_3
REMARK    3  A    between atoms: C_3  and  O_4
REMARK    4  A    between atoms: O_4  and  C_5
REMARK    5  A    between atoms: C_8  and  O_9
REMARK    6  A    between atoms: O_9  and  C_10
REMARK    7  A    between atoms: C_13  and  C_14
REMARK    8  A    between atoms: C_17  and  C_18
REMARK    9  A    between atoms: C_18  and  C_19
REMARK   10  A    between atoms: C_18  and  N_20
REMARK   11  A    between atoms: C_21  and  C_22
REMARK                            x       y       z     vdW  Elec       q    Type
REMARK                         _______ _______ _______ _____ _____    ______ ____
ROOT
ATOM      1  C   UNL     1       7.299   5.956  17.552  0.00  0.00    +0.000 A 
ATOM      2  C   UNL     1       8.005   6.116  18.731  0.00  0.00    +0.000 A 
ATOM      3  C   UNL     1       8.472   7.396  19.059  0.00  0.00    +0.000 A 
ATOM      4  C   UNL     1       8.236   8.488  18.208  0.00  0.00    +0.000 A 
ATOM      5  C   UNL     1       7.525   8.190  17.041  0.00  0.00    +0.000 A 
ATOM      6  N   UNL     1       7.026   6.979  16.715  0.00  0.00    +0.000 NA
ENDROOT
BRANCH   4   7
ATOM      7  C   UNL     1       8.684   9.869  18.498  0.00  0.00    +0.000 A 
ATOM      8  C   UNL     1       8.490  10.934  17.606  0.00  0.00    +0.000 A 
ATOM      9  C   UNL     1       8.873  12.243  17.939  0.00  0.00    +0.000 A 
ATOM     10  C   UNL     1       9.445  12.536  19.185  0.00  0.00    +0.000 A 
ATOM     11  C   UNL     1       9.702  11.472  20.052  0.00  0.00    +0.000 A 
ATOM     12  C   UNL     1       9.326  10.169  19.714  0.00  0.00    +0.000 A 
BRANCH  10  13
ATOM     13  C   UNL     1       9.753  13.979  19.547  0.00  0.00    +0.000 C 
ATOM     14  C   UNL     1      10.528  14.125  20.865  0.00  0.00    +0.000 C 
BRANCH  13  15
ATOM     15  N   UNL     1      10.452  14.632  18.456  0.00  0.00    +0.000 N 
ATOM     16  C   UNL     1       9.981  15.802  17.907  0.00  0.00    +0.000 C 
ATOM     17  C   UNL     1      10.842  16.377  16.815  0.00  0.00    +0.000 C 
ATOM     18  O   UNL     1       8.928  16.334  18.247  0.00  0.00    +0.000 OA
ATOM     19  H   UNL     1      11.357  14.276  18.185  0.00  0.00    +0.000 HD
ENDBRANCH  13  15
ENDBRANCH  10  13
ENDBRANCH   4   7
BRANCH   1  20
ATOM     20  O   UNL     1       6.906   4.673  17.185  0.00  0.00    +0.000 OA
BRANCH  20  24
ATOM     21  C   UNL     1       3.087   3.413  18.341  0.00  0.00    +0.000 A 
ATOM     22  C   UNL     1       4.093   3.568  19.293  0.00  0.00    +0.000 A 
ATOM     23  C   UNL     1       5.347   4.041  18.926  0.00  0.00    +0.000 A 
ATOM     24  C   UNL     1       5.642   4.290  17.589  0.00  0.00    +0.000 A 
ATOM     25  C   UNL     1       4.637   4.171  16.629  0.00  0.00    +0.000 A 
ATOM     26  C   UNL     1       3.358   3.733  17.008  0.00  0.00    +0.000 A 
BRANCH  21  27
ATOM     27  O   UNL     1       1.818   2.955  18.627  0.00  0.00    +0.000 OA
BRANCH  27  28
ATOM     28  C   UNL     1       1.741   2.194  19.836  0.00  0.00    +0.000 C 
BRANCH  28  30
ATOM     29  C   UNL     1       0.952   4.440  20.542  0.00  0.00    +0.000 C 
ATOM     30  C   UNL     1       1.084   2.981  20.957  0.00  0.00    +0.000 C 
ENDBRANCH  28  30
ENDBRANCH  27  28
ENDBRANCH  21  27
ENDBRANCH  20  24
ENDBRANCH   1  20
TORSDOF 8
ENDMDL
MODEL 3
REMARK VINA RESULT:      -7.5      6.471      9.433
REMARK  Name = 
REMARK  11 active torsions:
REMARK  status: ('A' for Active; 'I' for Inactive)
REMARK    1  A    between atoms: C_1  and  C_2
REMARK    2  A    between atoms: C_2  and  C_3
REMARK    3  A    between atoms: C_3  and  O_4
REMARK    4  A    between atoms: O_4  and  C_5
REMARK    5  A    between atoms: C_8  and  O_9
REMARK    6  A    between atoms: O_9  and  C_10
REMARK    7  A    between atoms: C_13  and  C_14
REMARK    8  A    between atoms: C_17  and  C_18
REMARK    9  A    between atoms: C_18  and  C_19
REMARK   10  A    between atoms: C_18  and  N_20
REMARK   11  A    between atoms: C_21  and  C_22
REMARK                            x       y       z     vdW  Elec       q    Type
REMARK                         _______ _______ _______ _____ _____    ______ ____
ROOT
ATOM      1  C   UNL     1       2.360   8.290  18.406  0.00  0.00    +0.000 A 
ATOM      2  C   UNL     1       1.766   9.417  17.867  0.00  0.00    +0.000 A 
ATOM      3  C   UNL     1       0.881  10.151  18.669  0.00  0.00    +0.000 A 
ATOM      4  C   UNL     1       0.600   9.748  19.984  0.00  0.00    +0.000 A 
ATOM      5  C   UNL     1       1.252   8.583  20.402  0.00  0.00    +0.000 A 
ATOM      6  N   UNL     1       2.140   7.877  19.671  0.00  0.00    +0.000 NA
ENDROOT
BRANCH   4   7
ATOM      7  C   UNL     1      -0.308  10.482  20.894  0.00  0.00    +0.000 A 
ATOM      8  C   UNL     1      -0.407  10.197  22.264  0.00  0.00    +0.000 A 
ATOM      9  C   UNL     1      -1.234  10.953  23.108  0.00  0.00    +0.000 A 
ATOM     10  C   UNL     1      -1.977  12.036  22.617  0.00  0.00    +0.000 A 
ATOM     11  C   UNL     1      -1.937  12.285  21.243  0.00  0.00    +0.000 A 
ATOM     12  C   UNL     1      -1.117  11.524  20.404  0.00  0.00    +0.000 A 
BRANCH  10  13
ATOM     13  C   UNL     1      -2.781  12.892  23.579  0.00  0.00    +0.000 C 
ATOM     14  C   UNL     1      -2.103  14.227  23.921  0.00  0.00    +0.000 C 
BRANCH  13  15
ATOM     15  N   UNL     1      -4.120  13.106  23.063  0.00  0.00    +0.000 N 
ATOM     16  C   UNL     1      -5.230  12.691  23.762  0.00  0.00    +0.000 C 
ATOM     17  C   UNL     1      -6.545  13.026  23.114  0.00  0.00    +0.000 C 
ATOM     18  O   UNL     1      -5.170  12.069  24.819  0.00  0.00    +0.000 OA
ATOM     19  H   UNL     1      -4.229  13.673  22.234  0.00  0.00    +0.000 HD
ENDBRANCH  13  15
ENDBRANCH  10  13
ENDBRANCH   4   7
BRANCH   1  20
ATOM     20  O   UNL     1       3.174   7.515  17.585  0.00  0.00    +0.000 OA
BRANCH  20  24
ATOM     21  C   UNL     1       3.126   3.412  18.403  0.00  0.00    +0.000 A 
ATOM     22  C   UNL     1       1.949   4.071  18.051  0.00  0.00    +0.000 A 
ATOM     23  C   UNL     1       1.966   5.421  17.722  0.00  0.00    +0.000 A 
ATOM     24  C   UNL     1       3.146   6.154  17.817  0.00  0.00    +0.000 A 
ATOM     25  C   UNL     1       4.337   5.503  18.136  0.00  0.00    +0.000 A 
ATOM     26  C   UNL     1       4.325   4.129  18.428  0.00  0.00    +0.000 A 
BRANCH  21  27
ATOM     27  O   UNL     1       3.191   2.075  18.736  0.00  0.00    +0.000 OA
BRANCH  27  28
ATOM     28  C   UNL     1       2.285   1.698  19.777  0.00  0.00    +0.000 C 
BRANCH  28  30
ATOM     29  C   UNL     1       1.347   2.962  21.697  0.00  0.00    +0.000 C 
ATOM     30  C   UNL     1       2.618   2.383  21.091  0.00  0.00    +0.000 C 
ENDBRANCH  28  30
ENDBRANCH  27  28
ENDBRANCH  21  27
ENDBRANCH  20  24
ENDBRANCH   1  20
TORSDOF 8
ENDMDL
MODEL 4
REMARK VINA RESULT:      -7.4      7.857     11.794
REMARK  Name = 
REMARK  11 active torsions:
REMARK  status: ('A' for Active; 'I' for Inactive)
REMARK    1  A    between atoms: C_1  and  C_2
REMARK    2  A    between atoms: C_2  and  C_3
REMARK    3  A    between atoms: C_3  and  O_4
REMARK    4  A    between atoms: O_4  and  C_5
REMARK    5  A    between atoms: C_8  and  O_9
REMARK    6  A    between atoms: O_9  and  C_10
REMARK    7  A    between atoms: C_13  and  C_14
REMARK    8  A    between atoms: C_17  and  C_18
REMARK    9  A    between atoms: C_18  and  C_19
REMARK   10  A    between atoms: C_18  and  N_20
REMARK   11  A    between atoms: C_21  and  C_22
REMARK                            x       y       z     vdW  Elec       q    Type
REMARK                         _______ _______ _______ _____ _____    ______ ____
ROOT
ATOM      1  C   UNL     1      -0.717  12.149  22.481  0.00  0.00    +0.000 A 
ATOM      2  C   UNL     1      -0.536  12.430  21.138  0.00  0.00    +0.000 A 
ATOM      3  C   UNL     1       0.063  11.454  20.329  0.00  0.00    +0.000 A 
ATOM      4  C   UNL     1       0.475  10.225  20.869  0.00  0.00    +0.000 A 
ATOM      5  C   UNL     1       0.249  10.073  22.240  0.00  0.00    +0.000 A 
ATOM      6  N   UNL     1      -0.360  10.974  23.039  0.00  0.00    +0.000 NA
ENDROOT
BRANCH   4   7
ATOM      7  C   UNL     1       1.096   9.144  20.072  0.00  0.00    +0.000 A 
ATOM      8  C   UNL     1       1.348   9.260  18.697  0.00  0.00    +0.000 A 
ATOM      9  C   UNL     1       1.993   8.238  17.985  0.00  0.00    +0.000 A 
ATOM     10  C   UNL     1       2.430   7.070  18.627  0.00  0.00    +0.000 A 
ATOM     11  C   UNL     1       2.124   6.917  19.981  0.00  0.00    +0.000 A 
ATOM     12  C   UNL     1       1.474   7.935  20.685  0.00  0.00    +0.000 A 
BRANCH  10  13
ATOM     13  C   UNL     1       3.214   6.032  17.844  0.00  0.00    +0.000 C 
ATOM     14  C   UNL     1       4.708   6.364  17.715  0.00  0.00    +0.000 C 
BRANCH  13  15
ATOM     15  N   UNL     1       3.021   4.715  18.423  0.00  0.00    +0.000 N 
ATOM     16  C   UNL     1       1.981   3.907  18.027  0.00  0.00    +0.000 C 
ATOM     17  C   UNL     1       1.945   2.556  18.688  0.00  0.00    +0.000 C 
ATOM     18  O   UNL     1       1.123   4.254  17.220  0.00  0.00    +0.000 OA
ATOM     19  H   UNL     1       3.736   4.353  19.038  0.00  0.00    +0.000 HD
ENDBRANCH  13  15
ENDBRANCH  10  13
ENDBRANCH   4   7
BRANCH   1  20
ATOM     20  O   UNL     1      -1.235  13.146  23.301  0.00  0.00    +0.000 OA
BRANCH  20  24
ATOM     21  C   UNL     1      -5.381  13.710  23.255  0.00  0.00    +0.000 A 
ATOM     22  C   UNL     1      -4.558  14.489  22.443  0.00  0.00    +0.000 A 
ATOM     23  C   UNL     1      -3.186  14.270  22.410  0.00  0.00    +0.000 A 
ATOM     24  C   UNL     1      -2.604  13.322  23.247  0.00  0.00    +0.000 A 
ATOM     25  C   UNL     1      -3.416  12.513  24.041  0.00  0.00    +0.000 A 
ATOM     26  C   UNL     1      -4.807  12.709  24.042  0.00  0.00    +0.000 A 
BRANCH  21  27
ATOM     27  O   UNL     1      -6.749  13.863  23.339  0.00  0.00    +0.000 OA
BRANCH  27  28
ATOM     28  C   UNL     1      -7.434  13.583  22.114  0.00  0.00    +0.000 C 
BRANCH  28  30
ATOM     29  C   UNL     1      -7.076  11.686  20.553  0.00  0.00    +0.000 C 
ATOM     30  C   UNL     1      -7.637  12.092  21.910  0.00  0.00    +0.000 C 
ENDBRANCH  28  30
ENDBRANCH  27  28
ENDBRANCH  21  27
ENDBRANCH  20  24
ENDBRANCH   1  20
TORSDOF 8
ENDMDL
MODEL 5
REMARK VINA RESULT:      -7.4      1.620      2.289
REMARK  Name = 
REMARK  11 active torsions:
REMARK  status: ('A' for Active; 'I' for Inactive)
REMARK    1  A    between atoms: C_1  and  C_2
REMARK    2  A    between atoms: C_2  and  C_3
REMARK    3  A    between atoms: C_3  and  O_4
REMARK    4  A    between atoms: O_4  and  C_5
REMARK    5  A    between atoms: C_8  and  O_9
REMARK    6  A    between atoms: O_9  and  C_10
REMARK    7  A    between atoms: C_13  and  C_14
REMARK    8  A    between atoms: C_17  and  C_18
REMARK    9  A    between atoms: C_18  and  C_19
REMARK   10  A    between atoms: C_18  and  N_20
REMARK   11  A    between atoms: C_21  and  C_22
REMARK                            x       y       z     vdW  Elec       q    Type
REMARK                         _______ _______ _______ _____ _____    ______ ____
ROOT
ATOM      1  C   UNL     1       7.063   6.130  17.568  0.00  0.00    +0.000 A 
ATOM      2  C   UNL     1       7.874   6.181  18.689  0.00  0.00    +0.000 A 
ATOM      3  C   UNL     1       8.449   7.411  19.039  0.00  0.00    +0.000 A 
ATOM      4  C   UNL     1       8.214   8.560  18.268  0.00  0.00    +0.000 A 
ATOM      5  C   UNL     1       7.390   8.371  17.154  0.00  0.00    +0.000 A 
ATOM      6  N   UNL     1       6.789   7.213  16.811  0.00  0.00    +0.000 NA
ENDROOT
BRANCH   4   7
ATOM      7  C   UNL     1       8.772   9.893  18.587  0.00  0.00    +0.000 A 
ATOM      8  C   UNL     1       8.689  10.983  17.708  0.00  0.00    +0.000 A 
ATOM      9  C   UNL     1       9.177  12.249  18.067  0.00  0.00    +0.000 A 
ATOM     10  C   UNL     1       9.745  12.476  19.328  0.00  0.00    +0.000 A 
ATOM     11  C   UNL     1       9.892  11.382  20.185  0.00  0.00    +0.000 A 
ATOM     12  C   UNL     1       9.412  10.121  19.819  0.00  0.00    +0.000 A 
BRANCH  10  13
ATOM     13  C   UNL     1      10.169  13.882  19.718  0.00  0.00    +0.000 C 
ATOM     14  C   UNL     1       9.885  14.928  18.631  0.00  0.00    +0.000 C 
BRANCH  13  15
ATOM     15  N   UNL     1       9.554  14.260  20.978  0.00  0.00    +0.000 N 
ATOM     16  C   UNL     1       8.205  14.510  21.067  0.00  0.00    +0.000 C 
ATOM     17  C   UNL     1       7.716  14.845  22.449  0.00  0.00    +0.000 C 
ATOM     18  O   UNL     1       7.448  14.494  20.100  0.00  0.00    +0.000 OA
ATOM     19  H   UNL     1      10.117  14.220  21.816  0.00  0.00    +0.000 HD
ENDBRANCH  13  15
ENDBRANCH  10  13
ENDBRANCH   4   7
BRANCH   1  20
ATOM     20  O   UNL     1       6.558   4.896  17.173  0.00  0.00    +0.000 OA
BRANCH  20  24
ATOM     21  C   UNL     1       2.457   4.277  17.722  0.00  0.00    +0.000 A 
ATOM     22  C   UNL     1       3.037   5.493  18.079  0.00  0.00    +0.000 A 
ATOM     23  C   UNL     1       4.387   5.728  17.847  0.00  0.00    +0.000 A 
ATOM     24  C   UNL     1       5.198   4.721  17.329  0.00  0.00    +0.000 A 
ATOM     25  C   UNL     1       4.626   3.511  16.937  0.00  0.00    +0.000 A 
ATOM     26  C   UNL     1       3.253   3.291  17.133  0.00  0.00    +0.000 A 
BRANCH  21  27
ATOM     27  O   UNL     1       1.126   3.972  17.914  0.00  0.00    +0.000 OA
BRANCH  27  28
ATOM     28  C   UNL     1       0.897   3.038  18.974  0.00  0.00    +0.000 C 
BRANCH  28  30
ATOM     29  C   UNL     1       1.406   2.743  21.386  0.00  0.00    +0.000 C 
ATOM     30  C   UNL     1       0.893   3.716  20.332  0.00  0.00    +0.000 C 
ENDBRANCH  28  30
ENDBRANCH  27  28
ENDBRANCH  21  27
ENDBRANCH  20  24
ENDBRANCH   1  20
TORSDOF 8
ENDMDL
MODEL 6
REMARK VINA RESULT:      -7.4      6.955     10.928
REMARK  Name = 
REMARK  11 active torsions:
REMARK  status: ('A' for Active; 'I' for Inactive)
REMARK    1  A    between atoms: C_1  and  C_2
REMARK    2  A    between atoms: C_2  and  C_3
REMARK    3  A    between atoms: C_3  and  O_4
REMARK    4  A    between atoms: O_4  and  C_5
REMARK    5  A    between atoms: C_8  and  O_9
REMARK    6  A    between atoms: O_9  and  C_10
REMARK    7  A    between atoms: C_13  and  C_14
REMARK    8  A    between atoms: C_17  and  C_18
REMARK    9  A    between atoms: C_18  and  C_19
REMARK   10  A    between atoms: C_18  and  N_20
REMARK   11  A    between atoms: C_21  and  C_22
REMARK                            x       y       z     vdW  Elec       q    Type
REMARK                         _______ _______ _______ _____ _____    ______ ____
ROOT
ATOM      1  C   UNL     1      -0.421  10.987  22.094  0.00  0.00    +0.000 A 
ATOM      2  C   UNL     1       0.383  11.281  21.006  0.00  0.00    +0.000 A 
ATOM      3  C   UNL     1       1.069  10.230  20.382  0.00  0.00    +0.000 A 
ATOM      4  C   UNL     1       0.950   8.913  20.854  0.00  0.00    +0.000 A 
ATOM      5  C   UNL     1       0.120   8.753  21.968  0.00  0.00    +0.000 A 
ATOM      6  N   UNL     1      -0.586   9.735  22.567  0.00  0.00    +0.000 NA
ENDROOT
BRANCH   4   7
ATOM      7  C   UNL     1       1.629   7.753  20.235  0.00  0.00    +0.000 A 
ATOM      8  C   UNL     1       1.699   6.494  20.852  0.00  0.00    +0.000 A 
ATOM      9  C   UNL     1       2.300   5.400  20.210  0.00  0.00    +0.000 A 
ATOM     10  C   UNL     1       2.832   5.519  18.919  0.00  0.00    +0.000 A 
ATOM     11  C   UNL     1       2.825   6.783  18.324  0.00  0.00    +0.000 A 
ATOM     12  C   UNL     1       2.233   7.872  18.970  0.00  0.00    +0.000 A 
BRANCH  10  13
ATOM     13  C   UNL     1       3.381   4.289  18.218  0.00  0.00    +0.000 C 
ATOM     14  C   UNL     1       2.352   3.587  17.320  0.00  0.00    +0.000 C 
BRANCH  13  15
ATOM     15  N   UNL     1       4.578   4.629  17.471  0.00  0.00    +0.000 N 
ATOM     16  C   UNL     1       5.829   4.491  18.025  0.00  0.00    +0.000 C 
ATOM     17  C   UNL     1       6.968   4.843  17.108  0.00  0.00    +0.000 C 
ATOM     18  O   UNL     1       6.020   4.139  19.186  0.00  0.00    +0.000 OA
ATOM     19  H   UNL     1       4.482   4.857  16.491  0.00  0.00    +0.000 HD
ENDBRANCH  13  15
ENDBRANCH  10  13
ENDBRANCH   4   7
BRANCH   1  20
ATOM     20  O   UNL     1      -1.037  12.039  22.764  0.00  0.00    +0.000 OA
BRANCH  20  24
ATOM     21  C   UNL     1      -4.943  13.031  21.639  0.00  0.00    +0.000 A 
ATOM     22  C   UNL     1      -3.933  12.956  20.680  0.00  0.00    +0.000 A 
ATOM     23  C   UNL     1      -2.647  12.572  21.036  0.00  0.00    +0.000 A 
ATOM     24  C   UNL     1      -2.327  12.334  22.370  0.00  0.00    +0.000 A 
ATOM     25  C   UNL     1      -3.332  12.372  23.336  0.00  0.00    +0.000 A 
ATOM     26  C   UNL     1      -4.641  12.720  22.967  0.00  0.00    +0.000 A 
BRANCH  21  27
ATOM     27  O   UNL     1      -6.243  13.398  21.363  0.00  0.00    +0.000 OA
BRANCH  27  28
ATOM     28  C   UNL     1      -6.817  12.691  20.258  0.00  0.00    +0.000 C 
BRANCH  28  30
ATOM     29  C   UNL     1      -6.931  10.350  19.442  0.00  0.00    +0.000 C 
ATOM     30  C   UNL     1      -7.187  11.266  20.631  0.00  0.00    +0.000 C 
ENDBRANCH  28  30
ENDBRANCH  27  28
ENDBRANCH  21  27
ENDBRANCH  20  24
ENDBRANCH   1  20
TORSDOF 8
ENDMDL
MODEL 7
REMARK VINA RESULT:      -7.4      6.936     10.767
REMARK  Name = 
REMARK  11 active torsions:
REMARK  status: ('A' for Active; 'I' for Inactive)
REMARK    1  A    between atoms: C_1  and  C_2
REMARK    2  A    between atoms: C_2  and  C_3
REMARK    3  A    between atoms: C_3  and  O_4
REMARK    4  A    between atoms: O_4  and  C_5
REMARK    5  A    between atoms: C_8  and  O_9
REMARK    6  A    between atoms: O_9  and  C_10
REMARK    7  A    between atoms: C_13  and  C_14
REMARK    8  A    between atoms: C_17  and  C_18
REMARK    9  A    between atoms: C_18  and  C_19
REMARK   10  A    between atoms: C_18  and  N_20
REMARK   11  A    between atoms: C_21  and  C_22
REMARK                            x       y       z     vdW  Elec       q    Type
REMARK                         _______ _______ _______ _____ _____    ______ ____
ROOT
ATOM      1  C   UNL     1       0.364  11.239  21.331  0.00  0.00    +0.000 A 
ATOM      2  C   UNL     1       0.499  11.175  19.956  0.00  0.00    +0.000 A 
ATOM      3  C   UNL     1       1.014   9.998  19.392  0.00  0.00    +0.000 A 
ATOM      4  C   UNL     1       1.390   8.916  20.204  0.00  0.00    +0.000 A 
ATOM      5  C   UNL     1       1.218   9.115  21.577  0.00  0.00    +0.000 A 
ATOM      6  N   UNL     1       0.688  10.217  22.150  0.00  0.00    +0.000 NA
ENDROOT
BRANCH   4   7
ATOM      7  C   UNL     1       1.922   7.639  19.678  0.00  0.00    +0.000 A 
ATOM      8  C   UNL     1       2.493   7.521  18.402  0.00  0.00    +0.000 A 
ATOM      9  C   UNL     1       3.042   6.308  17.958  0.00  0.00    +0.000 A 
ATOM     10  C   UNL     1       3.062   5.176  18.784  0.00  0.00    +0.000 A 
ATOM     11  C   UNL     1       2.437   5.265  20.030  0.00  0.00    +0.000 A 
ATOM     12  C   UNL     1       1.884   6.473  20.465  0.00  0.00    +0.000 A 
BRANCH  10  13
ATOM     13  C   UNL     1       3.756   3.912  18.307  0.00  0.00    +0.000 C 
ATOM     14  C   UNL     1       2.832   2.967  17.524  0.00  0.00    +0.000 C 
BRANCH  13  15
ATOM     15  N   UNL     1       4.935   4.249  17.531  0.00  0.00    +0.000 N 
ATOM     16  C   UNL     1       6.152   4.458  18.136  0.00  0.00    +0.000 C 
ATOM     17  C   UNL     1       7.284   4.755  17.191  0.00  0.00    +0.000 C 
ATOM     18  O   UNL     1       6.315   4.438  19.353  0.00  0.00    +0.000 OA
ATOM     19  H   UNL     1       4.873   4.210  16.523  0.00  0.00    +0.000 HD
ENDBRANCH  13  15
ENDBRANCH  10  13
ENDBRANCH   4   7
BRANCH   1  20
ATOM     20  O   UNL     1      -0.069  12.434  21.897  0.00  0.00    +0.000 OA
BRANCH  20  24
ATOM     21  C   UNL     1      -4.191  12.625  22.587  0.00  0.00    +0.000 A 
ATOM     22  C   UNL     1      -3.318  12.328  23.632  0.00  0.00    +0.000 A 
ATOM     23  C   UNL     1      -1.944  12.318  23.424  0.00  0.00    +0.000 A 
ATOM     24  C   UNL     1      -1.423  12.527  22.150  0.00  0.00    +0.000 A 
ATOM     25  C   UNL     1      -2.281  12.857  21.102  0.00  0.00    +0.000 A 
ATOM     26  C   UNL     1      -3.667  12.907  21.323  0.00  0.00    +0.000 A 
BRANCH  21  27
ATOM     27  O   UNL     1      -5.564  12.659  22.715  0.00  0.00    +0.000 OA
BRANCH  27  28
ATOM     28  C   UNL     1      -6.260  12.569  21.468  0.00  0.00    +0.000 C 
BRANCH  28  30
ATOM     29  C   UNL     1      -7.101  14.182  19.778  0.00  0.00    +0.000 C 
ATOM     30  C   UNL     1      -7.167  13.766  21.242  0.00  0.00    +0.000 C 
ENDBRANCH  28  30
ENDBRANCH  27  28
ENDBRANCH  21  27
ENDBRANCH  20  24
ENDBRANCH   1  20
TORSDOF 8
ENDMDL
MODEL 8
REMARK VINA RESULT:      -7.4      6.311      9.035
REMARK  Name = 
REMARK  11 active torsions:
REMARK  status: ('A' for Active; 'I' for Inactive)
REMARK    1  A    between atoms: C_1  and  C_2
REMARK    2  A    between atoms: C_2  and  C_3
REMARK    3  A    between atoms: C_3  and  O_4
REMARK    4  A    between atoms: O_4  and  C_5
REMARK    5  A    between atoms: C_8  and  O_9
REMARK    6  A    between atoms: O_9  and  C_10
REMARK    7  A    between atoms: C_13  and  C_14
REMARK    8  A    between atoms: C_17  and  C_18
REMARK    9  A    between atoms: C_18  and  C_19
REMARK   10  A    between atoms: C_18  and  N_20
REMARK   11  A    between atoms: C_21  and  C_22
REMARK                            x       y       z     vdW  Elec       q    Type
REMARK                         _______ _______ _______ _____ _____    ______ ____
ROOT
ATOM      1  C   UNL     1       2.995   5.279  19.681  0.00  0.00    +0.000 A 
ATOM      2  C   UNL     1       3.119   6.411  18.895  0.00  0.00    +0.000 A 
ATOM      3  C   UNL     1       2.387   7.552  19.252  0.00  0.00    +0.000 A 
ATOM      4  C   UNL     1       1.544   7.544  20.375  0.00  0.00    +0.000 A 
ATOM      5  C   UNL     1       1.496   6.333  21.074  0.00  0.00    +0.000 A 
ATOM      6  N   UNL     1       2.217   5.231  20.782  0.00  0.00    +0.000 NA
ENDROOT
BRANCH   4   7
ATOM      7  C   UNL     1       0.756   8.715  20.821  0.00  0.00    +0.000 A 
ATOM      8  C   UNL     1       0.346   8.894  22.151  0.00  0.00    +0.000 A 
ATOM      9  C   UNL     1      -0.348  10.046  22.551  0.00  0.00    +0.000 A 
ATOM     10  C   UNL     1      -0.638  11.071  21.640  0.00  0.00    +0.000 A 
ATOM     11  C   UNL     1      -0.293  10.872  20.301  0.00  0.00    +0.000 A 
ATOM     12  C   UNL     1       0.392   9.719  19.905  0.00  0.00    +0.000 A 
BRANCH  10  13
ATOM     13  C   UNL     1      -1.301  12.346  22.132  0.00  0.00    +0.000 C 
ATOM     14  C   UNL     1      -1.630  13.336  21.005  0.00  0.00    +0.000 C 
BRANCH  13  15
ATOM     15  N   UNL     1      -2.485  12.029  22.909  0.00  0.00    +0.000 N 
ATOM     16  C   UNL     1      -2.979  12.907  23.846  0.00  0.00    +0.000 C 
ATOM     17  C   UNL     1      -4.237  12.451  24.534  0.00  0.00    +0.000 C 
ATOM     18  O   UNL     1      -2.435  13.969  24.132  0.00  0.00    +0.000 OA
ATOM     19  H   UNL     1      -3.010  11.201  22.666  0.00  0.00    +0.000 HD
ENDBRANCH  13  15
ENDBRANCH  10  13
ENDBRANCH   4   7
BRANCH   1  20
ATOM     20  O   UNL     1       3.656   4.122  19.281  0.00  0.00    +0.000 OA
BRANCH  20  24
ATOM     21  C   UNL     1       6.401   4.461  16.141  0.00  0.00    +0.000 A 
ATOM     22  C   UNL     1       5.075   4.116  15.881  0.00  0.00    +0.000 A 
ATOM     23  C   UNL     1       4.145   4.057  16.911  0.00  0.00    +0.000 A 
ATOM     24  C   UNL     1       4.540   4.263  18.230  0.00  0.00    +0.000 A 
ATOM     25  C   UNL     1       5.855   4.641  18.503  0.00  0.00    +0.000 A 
ATOM     26  C   UNL     1       6.784   4.740  17.456  0.00  0.00    +0.000 A 
BRANCH  21  27
ATOM     27  O   UNL     1       7.380   4.546  15.174  0.00  0.00    +0.000 OA
BRANCH  27  28
ATOM     28  C   UNL     1       6.900   5.017  13.910  0.00  0.00    +0.000 C 
BRANCH  28  30
ATOM     29  C   UNL     1       5.890   3.355  12.368  0.00  0.00    +0.000 C 
ATOM     30  C   UNL     1       7.187   4.029  12.794  0.00  0.00    +0.000 C 
ENDBRANCH  28  30
ENDBRANCH  27  28
ENDBRANCH  21  27
ENDBRANCH  20  24
ENDBRANCH   1  20
TORSDOF 8
ENDMDL
MODEL 9
REMARK VINA RESULT:      -7.4      1.416      1.899
REMARK  Name = 
REMARK  11 active torsions:
REMARK  status: ('A' for Active; 'I' for Inactive)
REMARK    1  A    between atoms: C_1  and  C_2
REMARK    2  A    between atoms: C_2  and  C_3
REMARK    3  A    between atoms: C_3  and  O_4
REMARK    4  A    between atoms: O_4  and  C_5
REMARK    5  A    between atoms: C_8  and  O_9
REMARK    6  A    between atoms: O_9  and  C_10
REMARK    7  A    between atoms: C_13  and  C_14
REMARK    8  A    between atoms: C_17  and  C_18
REMARK    9  A    between atoms: C_18  and  C_19
REMARK   10  A    between atoms: C_18  and  N_20
REMARK   11  A    between atoms: C_21  and  C_22
REMARK                            x       y       z     vdW  Elec       q    Type
REMARK                         _______ _______ _______ _____ _____    ______ ____
ROOT
ATOM      1  C   UNL     1       6.854   6.164  17.371  0.00  0.00    +0.000 A 
ATOM      2  C   UNL     1       7.696   6.122  18.468  0.00  0.00    +0.000 A 
ATOM      3  C   UNL     1       8.332   7.308  18.864  0.00  0.00    +0.000 A 
ATOM      4  C   UNL     1       8.124   8.506  18.161  0.00  0.00    +0.000 A 
ATOM      5  C   UNL     1       7.263   8.409  17.064  0.00  0.00    +0.000 A 
ATOM      6  N   UNL     1       6.604   7.296  16.679  0.00  0.00    +0.000 NA
ENDROOT
BRANCH   4   7
ATOM      7  C   UNL     1       8.746   9.796  18.533  0.00  0.00    +0.000 A 
ATOM      8  C   UNL     1       8.735  10.917  17.689  0.00  0.00    +0.000 A 
ATOM      9  C   UNL     1       9.283  12.143  18.098  0.00  0.00    +0.000 A 
ATOM     10  C   UNL     1       9.841  12.298  19.374  0.00  0.00    +0.000 A 
ATOM     11  C   UNL     1       9.916  11.171  20.196  0.00  0.00    +0.000 A 
ATOM     12  C   UNL     1       9.377   9.950  19.782  0.00  0.00    +0.000 A 
BRANCH  10  13
ATOM     13  C   UNL     1      10.331  13.666  19.817  0.00  0.00    +0.000 C 
ATOM     14  C   UNL     1      11.710  14.034  19.249  0.00  0.00    +0.000 C 
BRANCH  13  15
ATOM     15  N   UNL     1       9.346  14.681  19.491  0.00  0.00    +0.000 N 
ATOM     16  C   UNL     1       8.324  14.988  20.359  0.00  0.00    +0.000 C 
ATOM     17  C   UNL     1       7.414  16.093  19.896  0.00  0.00    +0.000 C 
ATOM     18  O   UNL     1       8.136  14.398  21.419  0.00  0.00    +0.000 OA
ATOM     19  H   UNL     1       9.493  15.245  18.666  0.00  0.00    +0.000 HD
ENDBRANCH  13  15
ENDBRANCH  10  13
ENDBRANCH   4   7
BRANCH   1  20
ATOM     20  O   UNL     1       6.287   4.974  16.927  0.00  0.00    +0.000 OA
BRANCH  20  24
ATOM     21  C   UNL     1       2.564   3.952  18.539  0.00  0.00    +0.000 A 
ATOM     22  C   UNL     1       3.614   3.036  18.562  0.00  0.00    +0.000 A 
ATOM     23  C   UNL     1       4.869   3.386  18.080  0.00  0.00    +0.000 A 
ATOM     24  C   UNL     1       5.076   4.633  17.494  0.00  0.00    +0.000 A 
ATOM     25  C   UNL     1       4.045   5.572  17.494  0.00  0.00    +0.000 A 
ATOM     26  C   UNL     1       2.789   5.229  18.019  0.00  0.00    +0.000 A 
BRANCH  21  27
ATOM     27  O   UNL     1       1.294   3.681  19.003  0.00  0.00    +0.000 OA
BRANCH  27  28
ATOM     28  C   UNL     1       0.969   4.362  20.219  0.00  0.00    +0.000 C 
BRANCH  28  30
ATOM     29  C   UNL     1       1.641   2.471  21.680  0.00  0.00    +0.000 C 
ATOM     30  C   UNL     1       1.877   3.941  21.361  0.00  0.00    +0.000 C 
ENDBRANCH  28  30
ENDBRANCH  27  28
ENDBRANCH  21  27
ENDBRANCH  20  24
ENDBRANCH   1  20
TORSDOF 8
ENDMDL
