MODEL 1
REMARK VINA RESULT:      -7.7      0.000      0.000
REMARK  Name = 
REMARK  3 active torsions:
REMARK  status: ('A' for Active; 'I' for Inactive)
REMARK    1  A    between atoms: O_1  and  C_2
REMARK    2  A    between atoms: C_5  and  C_6
REMARK    3  A    between atoms: C_6  and  C_7
REMARK                            x       y       z     vdW  Elec       q    Type
REMARK                         _______ _______ _______ _____ _____    ______ ____
ROOT
ATOM      1  C   UNL     1       2.904   3.053  20.857  0.00  0.00    +0.000 A 
ATOM      2  N   UNL     1       3.760   2.178  20.303  0.00  0.00    +0.000 NA
ATOM      3  N   UNL     1       4.487   2.567  19.227  0.00  0.00    +0.000 NA
ATOM      4  C   UNL     1       4.349   3.821  18.719  0.00  0.00    +0.000 A 
ATOM      5  C   UNL     1       3.458   4.762  19.286  0.00  0.00    +0.000 A 
ATOM      6  C   UNL     1       3.255   6.080  18.808  0.00  0.00    +0.000 A 
ATOM      7  C   UNL     1       2.348   6.953  19.415  0.00  0.00    +0.000 A 
ATOM      8  C   UNL     1       1.615   6.535  20.516  0.00  0.00    +0.000 A 
ATOM      9  C   UNL     1       1.793   5.243  21.008  0.00  0.00    +0.000 A 
ATOM     10  C   UNL     1       2.707   4.352  20.404  0.00  0.00    +0.000 A 
ENDROOT
BRANCH   1  11
ATOM     11  O   UNL     1       2.211   2.557  21.922  0.00  0.00    +0.000 OA
ATOM     12  H   UNL     1       2.819   1.860  22.231  0.00  0.00    +0.000 HD
ENDBRANCH   1  11
BRANCH   4  13
ATOM     13  C   UNL     1       5.232   4.119  17.520  0.00  0.00    +0.000 C 
BRANCH  13  14
ATOM     14  C   UNL     1       6.141   5.321  17.702  0.00  0.00    +0.000 A 
ATOM     15  C   UNL     1       7.110   5.280  18.726  0.00  0.00    +0.000 A 
ATOM     16  C   UNL     1       7.950   6.367  18.972  0.00  0.00    +0.000 A 
ATOM     17  C   UNL     1       7.836   7.514  18.195  0.00  0.00    +0.000 A 
ATOM     18 CL   UNL     1       8.846   8.869  18.516  0.00  0.00    +0.000 Cl
ATOM     19  C   UNL     1       6.915   7.569  17.155  0.00  0.00    +0.000 A 
ATOM     20  C   UNL     1       6.083   6.474  16.898  0.00  0.00    +0.000 A 
ATOM     21 CL   UNL     1       5.029   6.607  15.535  0.00  0.00    +0.000 Cl
ENDBRANCH  13  14
ENDBRANCH   4  13
TORSDOF 3
ENDMDL
MODEL 2
REMARK VINA RESULT:      -7.6      3.424      5.647
REMARK  Name = 
REMARK  3 active torsions:
REMARK  status: ('A' for Active; 'I' for Inactive)
REMARK    1  A    between atoms: O_1  and  C_2
REMARK    2  A    between atoms: C_5  and  C_6
REMARK    3  A    between atoms: C_6  and  C_7
REMARK                            x       y       z     vdW  Elec       q    Type
REMARK                         _______ _______ _______ _____ _____    ______ ____
ROOT
ATOM      1  C   UNL     1       7.047   4.965  18.573  0.00  0.00    +0.000 A 
ATOM      2  N   UNL     1       6.234   5.165  19.623  0.00  0.00    +0.000 NA
ATOM      3  N   UNL     1       4.901   5.281  19.406  0.00  0.00    +0.000 NA
ATOM      4  C   UNL     1       4.399   5.199  18.144  0.00  0.00    +0.000 A 
ATOM      5  C   UNL     1       5.232   4.986  17.022  0.00  0.00    +0.000 A 
ATOM      6  C   UNL     1       4.784   4.897  15.681  0.00  0.00    +0.000 A 
ATOM      7  C   UNL     1       5.669   4.695  14.619  0.00  0.00    +0.000 A 
ATOM      8  C   UNL     1       7.030   4.577  14.864  0.00  0.00    +0.000 A 
ATOM      9  C   UNL     1       7.501   4.660  16.173  0.00  0.00    +0.000 A 
ATOM     10  C   UNL     1       6.616   4.864  17.255  0.00  0.00    +0.000 A 
ENDROOT
BRANCH   1  11
ATOM     11  O   UNL     1       8.368   4.878  18.898  0.00  0.00    +0.000 OA
ATOM     12  H   UNL     1       8.356   4.132  19.526  0.00  0.00    +0.000 HD
ENDBRANCH   1  11
BRANCH   4  13
ATOM     13  C   UNL     1       2.890   5.339  18.054  0.00  0.00    +0.000 C 
BRANCH  13  14
ATOM     14  C   UNL     1       2.344   6.606  18.689  0.00  0.00    +0.000 A 
ATOM     15  C   UNL     1       2.281   7.775  17.904  0.00  0.00    +0.000 A 
ATOM     16  C   UNL     1       1.827   8.982  18.438  0.00  0.00    +0.000 A 
ATOM     17  C   UNL     1       1.427   9.039  19.768  0.00  0.00    +0.000 A 
ATOM     18 CL   UNL     1       0.900  10.531  20.440  0.00  0.00    +0.000 Cl
ATOM     19  C   UNL     1       1.444   7.893  20.555  0.00  0.00    +0.000 A 
ATOM     20  C   UNL     1       1.884   6.679  20.016  0.00  0.00    +0.000 A 
ATOM     21 CL   UNL     1       1.791   5.296  21.047  0.00  0.00    +0.000 Cl
ENDBRANCH  13  14
ENDBRANCH   4  13
TORSDOF 3
ENDMDL
MODEL 3
REMARK VINA RESULT:      -7.3      3.189      4.959
REMARK  Name = 
REMARK  3 active torsions:
REMARK  status: ('A' for Active; 'I' for Inactive)
REMARK    1  A    between atoms: O_1  and  C_2
REMARK    2  A    between atoms: C_5  and  C_6
REMARK    3  A    between atoms: C_6  and  C_7
REMARK                            x       y       z     vdW  Elec       q    Type
REMARK                         _______ _______ _______ _____ _____    ______ ____
ROOT
ATOM      1  C   UNL     1       4.623   3.196  19.466  0.00  0.00    +0.000 A 
ATOM      2  N   UNL     1       5.399   4.292  19.423  0.00  0.00    +0.000 NA
ATOM      3  N   UNL     1       4.859   5.459  18.994  0.00  0.00    +0.000 NA
ATOM      4  C   UNL     1       3.554   5.515  18.611  0.00  0.00    +0.000 A 
ATOM      5  C   UNL     1       2.716   4.377  18.650  0.00  0.00    +0.000 A 
ATOM      6  C   UNL     1       1.354   4.357  18.262  0.00  0.00    +0.000 A 
ATOM      7  C   UNL     1       0.588   3.190  18.318  0.00  0.00    +0.000 A 
ATOM      8  C   UNL     1       1.160   2.007  18.762  0.00  0.00    +0.000 A 
ATOM      9  C   UNL     1       2.498   1.995  19.150  0.00  0.00    +0.000 A 
ATOM     10  C   UNL     1       3.283   3.168  19.099  0.00  0.00    +0.000 A 
ENDROOT
BRANCH   1  11
ATOM     11  O   UNL     1       5.267   2.074  19.896  0.00  0.00    +0.000 OA
ATOM     12  H   UNL     1       5.049   2.087  20.846  0.00  0.00    +0.000 HD
ENDBRANCH   1  11
BRANCH   4  13
ATOM     13  C   UNL     1       3.086   6.888  18.163  0.00  0.00    +0.000 C 
BRANCH  13  14
ATOM     14  C   UNL     1       2.235   7.619  19.187  0.00  0.00    +0.000 A 
ATOM     15  C   UNL     1       1.986   6.989  20.423  0.00  0.00    +0.000 A 
ATOM     16  C   UNL     1       1.180   7.589  21.392  0.00  0.00    +0.000 A 
ATOM     17  C   UNL     1       0.611   8.831  21.140  0.00  0.00    +0.000 A 
ATOM     18 CL   UNL     1      -0.411   9.559  22.317  0.00  0.00    +0.000 Cl
ATOM     19  C   UNL     1       0.869   9.493  19.945  0.00  0.00    +0.000 A 
ATOM     20  C   UNL     1       1.689   8.898  18.979  0.00  0.00    +0.000 A 
ATOM     21 CL   UNL     1       2.017   9.832  17.563  0.00  0.00    +0.000 Cl
ENDBRANCH  13  14
ENDBRANCH   4  13
TORSDOF 3
ENDMDL
MODEL 4
REMARK VINA RESULT:      -7.3      2.762      3.810
REMARK  Name = 
REMARK  3 active torsions:
REMARK  status: ('A' for Active; 'I' for Inactive)
REMARK    1  A    between atoms: O_1  and  C_2
REMARK    2  A    between atoms: C_5  and  C_6
REMARK    3  A    between atoms: C_6  and  C_7
REMARK                            x       y       z     vdW  Elec       q    Type
REMARK                         _______ _______ _______ _____ _____    ______ ____
ROOT
ATOM      1  C   UNL     1       2.667   6.373  19.266  0.00  0.00    +0.000 A 
ATOM      2  N   UNL     1       3.261   6.634  18.090  0.00  0.00    +0.000 NA
ATOM      3  N   UNL     1       3.885   5.625  17.434  0.00  0.00    +0.000 NA
ATOM      4  C   UNL     1       3.910   4.371  17.963  0.00  0.00    +0.000 A 
ATOM      5  C   UNL     1       3.289   4.070  19.197  0.00  0.00    +0.000 A 
ATOM      6  C   UNL     1       3.280   2.794  19.812  0.00  0.00    +0.000 A 
ATOM      7  C   UNL     1       2.653   2.572  21.041  0.00  0.00    +0.000 A 
ATOM      8  C   UNL     1       2.019   3.618  21.694  0.00  0.00    +0.000 A 
ATOM      9  C   UNL     1       2.012   4.886  21.114  0.00  0.00    +0.000 A 
ATOM     10  C   UNL     1       2.641   5.123  19.872  0.00  0.00    +0.000 A 
ENDROOT
BRANCH   1  11
ATOM     11  O   UNL     1       2.083   7.459  19.849  0.00  0.00    +0.000 OA
ATOM     12  H   UNL     1       1.139   7.268  19.696  0.00  0.00    +0.000 HD
ENDBRANCH   1  11
BRANCH   4  13
ATOM     13  C   UNL     1       4.636   3.342  17.115  0.00  0.00    +0.000 C 
BRANCH  13  14
ATOM     14  C   UNL     1       5.542   3.940  16.053  0.00  0.00    +0.000 A 
ATOM     15  C   UNL     1       5.109   3.914  14.712  0.00  0.00    +0.000 A 
ATOM     16  C   UNL     1       5.910   4.412  13.682  0.00  0.00    +0.000 A 
ATOM     17  C   UNL     1       7.158   4.945  13.979  0.00  0.00    +0.000 A 
ATOM     18 CL   UNL     1       8.163   5.528  12.711  0.00  0.00    +0.000 Cl
ATOM     19  C   UNL     1       7.596   5.018  15.297  0.00  0.00    +0.000 A 
ATOM     20  C   UNL     1       6.786   4.534  16.331  0.00  0.00    +0.000 A 
ATOM     21 CL   UNL     1       7.381   4.742  17.940  0.00  0.00    +0.000 Cl
ENDBRANCH  13  14
ENDBRANCH   4  13
TORSDOF 3
ENDMDL
MODEL 5
REMARK VINA RESULT:      -7.2      3.570      5.466
REMARK  Name = 
REMARK  3 active torsions:
REMARK  status: ('A' for Active; 'I' for Inactive)
REMARK    1  A    between atoms: O_1  and  C_2
REMARK    2  A    between atoms: C_5  and  C_6
REMARK    3  A    between atoms: C_6  and  C_7
REMARK                            x       y       z     vdW  Elec       q    Type
REMARK                         _______ _______ _______ _____ _____    ______ ____
ROOT
ATOM      1  C   UNL     1       5.445   4.792  18.085  0.00  0.00    +0.000 A 
ATOM      2  N   UNL     1       5.745   6.101  18.021  0.00  0.00    +0.000 NA
ATOM      3  N   UNL     1       4.735   6.997  17.902  0.00  0.00    +0.000 NA
ATOM      4  C   UNL     1       3.442   6.576  17.845  0.00  0.00    +0.000 A 
ATOM      5  C   UNL     1       3.101   5.205  17.912  0.00  0.00    +0.000 A 
ATOM      6  C   UNL     1       1.782   4.692  17.851  0.00  0.00    +0.000 A 
ATOM      7  C   UNL     1       1.520   3.322  17.915  0.00  0.00    +0.000 A 
ATOM      8  C   UNL     1       2.568   2.421  18.039  0.00  0.00    +0.000 A 
ATOM      9  C   UNL     1       3.877   2.896  18.101  0.00  0.00    +0.000 A 
ATOM     10  C   UNL     1       4.154   4.279  18.038  0.00  0.00    +0.000 A 
ENDROOT
BRANCH   1  11
ATOM     11  O   UNL     1       6.533   3.976  18.188  0.00  0.00    +0.000 OA
ATOM     12  H   UNL     1       7.137   4.536  18.709  0.00  0.00    +0.000 HD
ENDBRANCH   1  11
BRANCH   4  13
ATOM     13  C   UNL     1       2.419   7.691  17.720  0.00  0.00    +0.000 C 
BRANCH  13  14
ATOM     14  C   UNL     1       1.882   8.192  19.048  0.00  0.00    +0.000 A 
ATOM     15  C   UNL     1       1.915   7.321  20.156  0.00  0.00    +0.000 A 
ATOM     16  C   UNL     1       1.401   7.706  21.396  0.00  0.00    +0.000 A 
ATOM     17  C   UNL     1       0.847   8.972  21.547  0.00  0.00    +0.000 A 
ATOM     18 CL   UNL     1       0.182   9.438  23.063  0.00  0.00    +0.000 Cl
ATOM     19  C   UNL     1       0.835   9.865  20.482  0.00  0.00    +0.000 A 
ATOM     20  C   UNL     1       1.363   9.485  19.244  0.00  0.00    +0.000 A 
ATOM     21 CL   UNL     1       1.376  10.691  18.006  0.00  0.00    +0.000 Cl
ENDBRANCH  13  14
ENDBRANCH   4  13
TORSDOF 3
ENDMDL
MODEL 6
REMARK VINA RESULT:      -7.1      3.872      5.269
REMARK  Name = 
REMARK  3 active torsions:
REMARK  status: ('A' for Active; 'I' for Inactive)
REMARK    1  A    between atoms: O_1  and  C_2
REMARK    2  A    between atoms: C_5  and  C_6
REMARK    3  A    between atoms: C_6  and  C_7
REMARK                            x       y       z     vdW  Elec       q    Type
REMARK                         _______ _______ _______ _____ _____    ______ ____
ROOT
ATOM      1  C   UNL     1       1.405  10.003  18.438  0.00  0.00    +0.000 A 
ATOM      2  N   UNL     1       2.099   9.176  17.639  0.00  0.00    +0.000 NA
ATOM      3  N   UNL     1       2.467   7.962  18.117  0.00  0.00    +0.000 NA
ATOM      4  C   UNL     1       2.139   7.592  19.385  0.00  0.00    +0.000 A 
ATOM      5  C   UNL     1       1.406   8.444  20.245  0.00  0.00    +0.000 A 
ATOM      6  C   UNL     1       1.036   8.132  21.576  0.00  0.00    +0.000 A 
ATOM      7  C   UNL     1       0.319   9.029  22.371  0.00  0.00    +0.000 A 
ATOM      8  C   UNL     1      -0.049  10.266  21.861  0.00  0.00    +0.000 A 
ATOM      9  C   UNL     1       0.302  10.601  20.554  0.00  0.00    +0.000 A 
ATOM     10  C   UNL     1       1.026   9.703  19.741  0.00  0.00    +0.000 A 
ENDROOT
BRANCH   1  11
ATOM     11  O   UNL     1       1.100  11.204  17.866  0.00  0.00    +0.000 OA
ATOM     12  H   UNL     1       0.641  10.913  17.057  0.00  0.00    +0.000 HD
ENDBRANCH   1  11
BRANCH   4  13
ATOM     13  C   UNL     1       2.609   6.204  19.781  0.00  0.00    +0.000 C 
BRANCH  13  14
ATOM     14  C   UNL     1       3.466   5.517  18.733  0.00  0.00    +0.000 A 
ATOM     15  C   UNL     1       4.858   5.740  18.755  0.00  0.00    +0.000 A 
ATOM     16  C   UNL     1       5.698   5.171  17.797  0.00  0.00    +0.000 A 
ATOM     17  C   UNL     1       5.159   4.366  16.800  0.00  0.00    +0.000 A 
ATOM     18 CL   UNL     1       6.185   3.690  15.597  0.00  0.00    +0.000 Cl
ATOM     19  C   UNL     1       3.794   4.098  16.776  0.00  0.00    +0.000 A 
ATOM     20  C   UNL     1       2.954   4.656  17.745  0.00  0.00    +0.000 A 
ATOM     21 CL   UNL     1       1.289   4.200  17.679  0.00  0.00    +0.000 Cl
ENDBRANCH  13  14
ENDBRANCH   4  13
TORSDOF 3
ENDMDL
MODEL 7
REMARK VINA RESULT:      -7.1      3.012      5.459
REMARK  Name = 
REMARK  3 active torsions:
REMARK  status: ('A' for Active; 'I' for Inactive)
REMARK    1  A    between atoms: O_1  and  C_2
REMARK    2  A    between atoms: C_5  and  C_6
REMARK    3  A    between atoms: C_6  and  C_7
REMARK                            x       y       z     vdW  Elec       q    Type
REMARK                         _______ _______ _______ _____ _____    ______ ____
ROOT
ATOM      1  C   UNL     1       7.103   4.953  18.632  0.00  0.00    +0.000 A 
ATOM      2  N   UNL     1       6.394   5.147  19.756  0.00  0.00    +0.000 NA
ATOM      3  N   UNL     1       5.040   5.173  19.678  0.00  0.00    +0.000 NA
ATOM      4  C   UNL     1       4.416   5.007  18.481  0.00  0.00    +0.000 A 
ATOM      5  C   UNL     1       5.139   4.798  17.284  0.00  0.00    +0.000 A 
ATOM      6  C   UNL     1       4.561   4.625  16.002  0.00  0.00    +0.000 A 
ATOM      7  C   UNL     1       5.341   4.433  14.860  0.00  0.00    +0.000 A 
ATOM      8  C   UNL     1       6.724   4.408  14.963  0.00  0.00    +0.000 A 
ATOM      9  C   UNL     1       7.323   4.576  16.210  0.00  0.00    +0.000 A 
ATOM     10  C   UNL     1       6.545   4.771  17.372  0.00  0.00    +0.000 A 
ENDROOT
BRANCH   1  11
ATOM     11  O   UNL     1       8.454   4.962  18.817  0.00  0.00    +0.000 OA
ATOM     12  H   UNL     1       8.715   5.710  18.249  0.00  0.00    +0.000 HD
ENDBRANCH   1  11
BRANCH   4  13
ATOM     13  C   UNL     1       2.899   5.050  18.548  0.00  0.00    +0.000 C 
BRANCH  13  14
ATOM     14  C   UNL     1       2.343   6.285  19.233  0.00  0.00    +0.000 A 
ATOM     15  C   UNL     1       1.746   6.136  20.501  0.00  0.00    +0.000 A 
ATOM     16  C   UNL     1       1.180   7.224  21.168  0.00  0.00    +0.000 A 
ATOM     17  C   UNL     1       1.204   8.481  20.577  0.00  0.00    +0.000 A 
ATOM     18 CL   UNL     1       0.478   9.818  21.378  0.00  0.00    +0.000 Cl
ATOM     19  C   UNL     1       1.819   8.665  19.343  0.00  0.00    +0.000 A 
ATOM     20  C   UNL     1       2.400   7.577  18.681  0.00  0.00    +0.000 A 
ATOM     21 CL   UNL     1       3.210   7.921  17.194  0.00  0.00    +0.000 Cl
ENDBRANCH  13  14
ENDBRANCH   4  13
TORSDOF 3
ENDMDL
MODEL 8
REMARK VINA RESULT:      -7.0      4.405      6.477
REMARK  Name = 
REMARK  3 active torsions:
REMARK  status: ('A' for Active; 'I' for Inactive)
REMARK    1  A    between atoms: O_1  and  C_2
REMARK    2  A    between atoms: C_5  and  C_6
REMARK    3  A    between atoms: C_6  and  C_7
REMARK                            x       y       z     vdW  Elec       q    Type
REMARK                         _______ _______ _______ _____ _____    ______ ____
ROOT
ATOM      1  C   UNL     1       0.288  10.224  18.671  0.00  0.00    +0.000 A 
ATOM      2  N   UNL     1       1.056   9.538  17.807  0.00  0.00    +0.000 NA
ATOM      3  N   UNL     1       1.849   8.547  18.283  0.00  0.00    +0.000 NA
ATOM      4  C   UNL     1       1.866   8.255  19.612  0.00  0.00    +0.000 A 
ATOM      5  C   UNL     1       1.065   8.960  20.540  0.00  0.00    +0.000 A 
ATOM      6  C   UNL     1       1.035   8.719  21.936  0.00  0.00    +0.000 A 
ATOM      7  C   UNL     1       0.224   9.463  22.796  0.00  0.00    +0.000 A 
ATOM      8  C   UNL     1      -0.581  10.472  22.288  0.00  0.00    +0.000 A 
ATOM      9  C   UNL     1      -0.573  10.733  20.919  0.00  0.00    +0.000 A 
ATOM     10  C   UNL     1       0.243   9.988  20.039  0.00  0.00    +0.000 A 
ENDROOT
BRANCH   1  11
ATOM     11  O   UNL     1      -0.457  11.209  18.093  0.00  0.00    +0.000 OA
ATOM     12  H   UNL     1       0.216  11.902  17.967  0.00  0.00    +0.000 HD
ENDBRANCH   1  11
BRANCH   4  13
ATOM     13  C   UNL     1       2.794   7.117  19.998  0.00  0.00    +0.000 C 
BRANCH  13  14
ATOM     14  C   UNL     1       2.279   5.740  19.616  0.00  0.00    +0.000 A 
ATOM     15  C   UNL     1       1.325   5.127  20.453  0.00  0.00    +0.000 A 
ATOM     16  C   UNL     1       0.840   3.846  20.181  0.00  0.00    +0.000 A 
ATOM     17  C   UNL     1       1.302   3.158  19.065  0.00  0.00    +0.000 A 
ATOM     18 CL   UNL     1       0.734   1.567  18.745  0.00  0.00    +0.000 Cl
ATOM     19  C   UNL     1       2.215   3.754  18.202  0.00  0.00    +0.000 A 
ATOM     20  C   UNL     1       2.690   5.043  18.466  0.00  0.00    +0.000 A 
ATOM     21 CL   UNL     1       3.758   5.729  17.293  0.00  0.00    +0.000 Cl
ENDBRANCH  13  14
ENDBRANCH   4  13
TORSDOF 3
ENDMDL
MODEL 9
REMARK VINA RESULT:      -7.0      1.620      2.763
REMARK  Name = 
REMARK  3 active torsions:
REMARK  status: ('A' for Active; 'I' for Inactive)
REMARK    1  A    between atoms: O_1  and  C_2
REMARK    2  A    between atoms: C_5  and  C_6
REMARK    3  A    between atoms: C_6  and  C_7
REMARK                            x       y       z     vdW  Elec       q    Type
REMARK                         _______ _______ _______ _____ _____    ______ ____
ROOT
ATOM      1  C   UNL     1       2.787   2.952  20.555  0.00  0.00    +0.000 A 
ATOM      2  N   UNL     1       3.920   2.289  20.271  0.00  0.00    +0.000 NA
ATOM      3  N   UNL     1       4.950   2.968  19.708  0.00  0.00    +0.000 NA
ATOM      4  C   UNL     1       4.833   4.296  19.435  0.00  0.00    +0.000 A 
ATOM      5  C   UNL     1       3.652   5.017  19.728  0.00  0.00    +0.000 A 
ATOM      6  C   UNL     1       3.454   6.395  19.466  0.00  0.00    +0.000 A 
ATOM      7  C   UNL     1       2.254   7.039  19.774  0.00  0.00    +0.000 A 
ATOM      8  C   UNL     1       1.214   6.326  20.352  0.00  0.00    +0.000 A 
ATOM      9  C   UNL     1       1.378   4.969  20.621  0.00  0.00    +0.000 A 
ATOM     10  C   UNL     1       2.587   4.306  20.314  0.00  0.00    +0.000 A 
ENDROOT
BRANCH   1  11
ATOM     11  O   UNL     1       1.809   2.174  21.103  0.00  0.00    +0.000 OA
ATOM     12  H   UNL     1       1.039   2.769  21.035  0.00  0.00    +0.000 HD
ENDBRANCH   1  11
BRANCH   4  13
ATOM     13  C   UNL     1       6.068   4.925  18.814  0.00  0.00    +0.000 C 
BRANCH  13  14
ATOM     14  C   UNL     1       6.165   4.748  17.309  0.00  0.00    +0.000 A 
ATOM     15  C   UNL     1       5.499   3.655  16.719  0.00  0.00    +0.000 A 
ATOM     16  C   UNL     1       5.580   3.412  15.347  0.00  0.00    +0.000 A 
ATOM     17  C   UNL     1       6.328   4.262  14.541  0.00  0.00    +0.000 A 
ATOM     18 CL   UNL     1       6.459   3.949  12.856  0.00  0.00    +0.000 Cl
ATOM     19  C   UNL     1       6.965   5.370  15.090  0.00  0.00    +0.000 A 
ATOM     20  C   UNL     1       6.871   5.621  16.463  0.00  0.00    +0.000 A 
ATOM     21 CL   UNL     1       7.628   7.065  17.037  0.00  0.00    +0.000 Cl
ENDBRANCH  13  14
ENDBRANCH   4  13
TORSDOF 3
ENDMDL
