MODEL 1
REMARK VINA RESULT:      -6.9      0.000      0.000
REMARK  Name = 
REMARK  6 active torsions:
REMARK  status: ('A' for Active; 'I' for Inactive)
REMARK    1  A    between atoms: C_1  and  O_2
REMARK    2  A    between atoms: O_2  and  C_3
REMARK    3  A    between atoms: C_5  and  O_6
REMARK    4  A    between atoms: O_6  and  C_7
REMARK    5  A    between atoms: C_10  and  C_11
REMARK    6  A    between atoms: C_14  and  N_15
REMARK                            x       y       z     vdW  Elec       q    Type
REMARK                         _______ _______ _______ _____ _____    ______ ____
ROOT
ATOM      1  C   UNL     1       5.511   5.386  15.917  0.00  0.00    +0.000 A 
ATOM      2  C   UNL     1       5.280   4.201  16.613  0.00  0.00    +0.000 A 
ATOM      3  C   UNL     1       4.393   4.151  17.699  0.00  0.00    +0.000 A 
ATOM      4  C   UNL     1       3.755   5.353  18.069  0.00  0.00    +0.000 A 
ATOM      5  S   UNL     1       2.626   5.641  19.338  0.00  0.00    +0.000 S 
ATOM      6  C   UNL     1       2.560   7.310  18.930  0.00  0.00    +0.000 A 
ATOM      7  N   UNL     1       3.288   7.652  17.885  0.00  0.00    +0.000 NA
ATOM      8  C   UNL     1       3.984   6.555  17.401  0.00  0.00    +0.000 A 
ATOM      9  C   UNL     1       4.882   6.568  16.315  0.00  0.00    +0.000 A 
ENDROOT
BRANCH   6  10
ATOM     10  C   UNL     1       1.710   8.245  19.689  0.00  0.00    +0.000 A 
ATOM     11  C   UNL     1       1.338   8.016  21.023  0.00  0.00    +0.000 A 
ATOM     12  C   UNL     1       0.530   8.929  21.711  0.00  0.00    +0.000 A 
ATOM     13  C   UNL     1       0.110  10.112  21.104  0.00  0.00    +0.000 A 
ATOM     14  C   UNL     1       0.432  10.321  19.762  0.00  0.00    +0.000 A 
ATOM     15  C   UNL     1       1.244   9.413  19.070  0.00  0.00    +0.000 A 
BRANCH  13  16
ATOM     16  N   UNL     1      -0.800  10.952  21.755  0.00  0.00    +0.000 N 
ATOM     17  H   UNL     1      -1.478  11.379  21.134  0.00  0.00    +0.000 HD
ATOM     18  H   UNL     1      -1.238  10.528  22.567  0.00  0.00    +0.000 HD
ENDBRANCH  13  16
ENDBRANCH   6  10
BRANCH   1  20
ATOM     19  C   UNL     1       6.527   4.348  14.046  0.00  0.00    +0.000 C 
ATOM     20  O   UNL     1       6.368   5.510  14.854  0.00  0.00    +0.000 OA
ENDBRANCH   1  20
BRANCH   3  21
ATOM     21  O   UNL     1       4.107   3.026  18.428  0.00  0.00    +0.000 OA
ATOM     22  C   UNL     1       3.159   2.116  17.882  0.00  0.00    +0.000 C 
ENDBRANCH   3  21
TORSDOF 4
ENDMDL
MODEL 2
REMARK VINA RESULT:      -6.8      4.191      5.056
REMARK  Name = 
REMARK  6 active torsions:
REMARK  status: ('A' for Active; 'I' for Inactive)
REMARK    1  A    between atoms: C_1  and  O_2
REMARK    2  A    between atoms: O_2  and  C_3
REMARK    3  A    between atoms: C_5  and  O_6
REMARK    4  A    between atoms: O_6  and  C_7
REMARK    5  A    between atoms: C_10  and  C_11
REMARK    6  A    between atoms: C_14  and  N_15
REMARK                            x       y       z     vdW  Elec       q    Type
REMARK                         _______ _______ _______ _____ _____    ______ ____
ROOT
ATOM      1  C   UNL     1       6.438   4.516  14.387  0.00  0.00    +0.000 A 
ATOM      2  C   UNL     1       7.289   5.361  15.097  0.00  0.00    +0.000 A 
ATOM      3  C   UNL     1       7.121   5.582  16.473  0.00  0.00    +0.000 A 
ATOM      4  C   UNL     1       6.045   4.927  17.106  0.00  0.00    +0.000 A 
ATOM      5  S   UNL     1       5.559   4.979  18.758  0.00  0.00    +0.000 S 
ATOM      6  C   UNL     1       4.231   3.939  18.424  0.00  0.00    +0.000 A 
ATOM      7  N   UNL     1       4.157   3.524  17.175  0.00  0.00    +0.000 NA
ATOM      8  C   UNL     1       5.168   4.092  16.416  0.00  0.00    +0.000 A 
ATOM      9  C   UNL     1       5.367   3.893  15.035  0.00  0.00    +0.000 A 
ENDROOT
BRANCH   6  10
ATOM     10  C   UNL     1       3.296   3.535  19.489  0.00  0.00    +0.000 A 
ATOM     11  C   UNL     1       1.978   4.012  19.559  0.00  0.00    +0.000 A 
ATOM     12  C   UNL     1       1.119   3.604  20.586  0.00  0.00    +0.000 A 
ATOM     13  C   UNL     1       1.535   2.677  21.541  0.00  0.00    +0.000 A 
ATOM     14  C   UNL     1       2.860   2.239  21.508  0.00  0.00    +0.000 A 
ATOM     15  C   UNL     1       3.722   2.641  20.480  0.00  0.00    +0.000 A 
BRANCH  13  16
ATOM     16  N   UNL     1       0.714   2.375  22.633  0.00  0.00    +0.000 N 
ATOM     17  H   UNL     1      -0.036   1.730  22.415  0.00  0.00    +0.000 HD
ATOM     18  H   UNL     1       1.228   2.099  23.465  0.00  0.00    +0.000 HD
ENDBRANCH  13  16
ENDBRANCH   6  10
BRANCH   1  20
ATOM     19  C   UNL     1       5.625   3.293  12.529  0.00  0.00    +0.000 C 
ATOM     20  O   UNL     1       6.536   4.260  13.045  0.00  0.00    +0.000 OA
ENDBRANCH   1  20
BRANCH   3  21
ATOM     21  O   UNL     1       7.918   6.390  17.241  0.00  0.00    +0.000 OA
ATOM     22  C   UNL     1       7.505   7.739  17.419  0.00  0.00    +0.000 C 
ENDBRANCH   3  21
TORSDOF 4
ENDMDL
MODEL 3
REMARK VINA RESULT:      -6.8      3.578      7.910
REMARK  Name = 
REMARK  6 active torsions:
REMARK  status: ('A' for Active; 'I' for Inactive)
REMARK    1  A    between atoms: C_1  and  O_2
REMARK    2  A    between atoms: O_2  and  C_3
REMARK    3  A    between atoms: C_5  and  O_6
REMARK    4  A    between atoms: O_6  and  C_7
REMARK    5  A    between atoms: C_10  and  C_11
REMARK    6  A    between atoms: C_14  and  N_15
REMARK                            x       y       z     vdW  Elec       q    Type
REMARK                         _______ _______ _______ _____ _____    ______ ____
ROOT
ATOM      1  C   UNL     1       0.112  10.281  21.886  0.00  0.00    +0.000 A 
ATOM      2  C   UNL     1      -0.078  11.167  20.827  0.00  0.00    +0.000 A 
ATOM      3  C   UNL     1       0.397  10.880  19.538  0.00  0.00    +0.000 A 
ATOM      4  C   UNL     1       1.090   9.665  19.360  0.00  0.00    +0.000 A 
ATOM      5  S   UNL     1       1.797   9.015  17.930  0.00  0.00    +0.000 S 
ATOM      6  C   UNL     1       2.357   7.644  18.803  0.00  0.00    +0.000 A 
ATOM      7  N   UNL     1       2.011   7.622  20.076  0.00  0.00    +0.000 NA
ATOM      8  C   UNL     1       1.310   8.771  20.406  0.00  0.00    +0.000 A 
ATOM      9  C   UNL     1       0.819   9.092  21.688  0.00  0.00    +0.000 A 
ENDROOT
BRANCH   6  10
ATOM     10  C   UNL     1       3.125   6.578  18.135  0.00  0.00    +0.000 A 
ATOM     11  C   UNL     1       2.780   5.221  18.233  0.00  0.00    +0.000 A 
ATOM     12  C   UNL     1       3.535   4.238  17.583  0.00  0.00    +0.000 A 
ATOM     13  C   UNL     1       4.623   4.585  16.781  0.00  0.00    +0.000 A 
ATOM     14  C   UNL     1       5.003   5.926  16.721  0.00  0.00    +0.000 A 
ATOM     15  C   UNL     1       4.248   6.915  17.367  0.00  0.00    +0.000 A 
BRANCH  13  16
ATOM     16  N   UNL     1       5.445   3.589  16.242  0.00  0.00    +0.000 N 
ATOM     17  H   UNL     1       6.434   3.754  16.385  0.00  0.00    +0.000 HD
ATOM     18  H   UNL     1       5.170   2.647  16.506  0.00  0.00    +0.000 HD
ENDBRANCH  13  16
ENDBRANCH   6  10
BRANCH   1  20
ATOM     19  C   UNL     1      -1.552  11.195  23.302  0.00  0.00    +0.000 C 
ATOM     20  O   UNL     1      -0.316  10.498  23.169  0.00  0.00    +0.000 OA
ENDBRANCH   1  20
BRANCH   3  21
ATOM     21  O   UNL     1       0.244  11.694  18.446  0.00  0.00    +0.000 OA
ATOM     22  C   UNL     1      -1.020  12.324  18.271  0.00  0.00    +0.000 C 
ENDBRANCH   3  21
TORSDOF 4
ENDMDL
MODEL 4
REMARK VINA RESULT:      -6.8      0.263      1.104
REMARK  Name = 
REMARK  6 active torsions:
REMARK  status: ('A' for Active; 'I' for Inactive)
REMARK    1  A    between atoms: C_1  and  O_2
REMARK    2  A    between atoms: O_2  and  C_3
REMARK    3  A    between atoms: C_5  and  O_6
REMARK    4  A    between atoms: O_6  and  C_7
REMARK    5  A    between atoms: C_10  and  C_11
REMARK    6  A    between atoms: C_14  and  N_15
REMARK                            x       y       z     vdW  Elec       q    Type
REMARK                         _______ _______ _______ _____ _____    ______ ____
ROOT
ATOM      1  C   UNL     1       5.407   5.486  16.100  0.00  0.00    +0.000 A 
ATOM      2  C   UNL     1       5.196   4.310  16.819  0.00  0.00    +0.000 A 
ATOM      3  C   UNL     1       4.312   4.266  17.908  0.00  0.00    +0.000 A 
ATOM      4  C   UNL     1       3.657   5.465  18.257  0.00  0.00    +0.000 A 
ATOM      5  S   UNL     1       2.527   5.758  19.524  0.00  0.00    +0.000 S 
ATOM      6  C   UNL     1       2.433   7.418  19.086  0.00  0.00    +0.000 A 
ATOM      7  N   UNL     1       3.153   7.752  18.033  0.00  0.00    +0.000 NA
ATOM      8  C   UNL     1       3.865   6.658  17.567  0.00  0.00    +0.000 A 
ATOM      9  C   UNL     1       4.760   6.665  16.479  0.00  0.00    +0.000 A 
ENDROOT
BRANCH   6  10
ATOM     10  C   UNL     1       1.570   8.353  19.830  0.00  0.00    +0.000 A 
ATOM     11  C   UNL     1       1.054   9.525  19.258  0.00  0.00    +0.000 A 
ATOM     12  C   UNL     1       0.237  10.389  19.998  0.00  0.00    +0.000 A 
ATOM     13  C   UNL     1      -0.123  10.083  21.311  0.00  0.00    +0.000 A 
ATOM     14  C   UNL     1       0.429   8.946  21.903  0.00  0.00    +0.000 A 
ATOM     15  C   UNL     1       1.243   8.077  21.166  0.00  0.00    +0.000 A 
BRANCH  13  16
ATOM     16  N   UNL     1      -0.831  11.012  22.080  0.00  0.00    +0.000 N 
ATOM     17  H   UNL     1      -0.707  10.895  23.079  0.00  0.00    +0.000 HD
ATOM     18  H   UNL     1      -0.693  11.975  21.786  0.00  0.00    +0.000 HD
ENDBRANCH  13  16
ENDBRANCH   6  10
BRANCH   1  20
ATOM     19  C   UNL     1       6.516   4.405  14.309  0.00  0.00    +0.000 C 
ATOM     20  O   UNL     1       6.259   5.604  15.034  0.00  0.00    +0.000 OA
ENDBRANCH   1  20
BRANCH   3  21
ATOM     21  O   UNL     1       4.046   3.151  18.658  0.00  0.00    +0.000 OA
ATOM     22  C   UNL     1       3.541   2.009  17.976  0.00  0.00    +0.000 C 
ENDBRANCH   3  21
TORSDOF 4
ENDMDL
MODEL 5
REMARK VINA RESULT:      -6.7      0.966      1.038
REMARK  Name = 
REMARK  6 active torsions:
REMARK  status: ('A' for Active; 'I' for Inactive)
REMARK    1  A    between atoms: C_1  and  O_2
REMARK    2  A    between atoms: O_2  and  C_3
REMARK    3  A    between atoms: C_5  and  O_6
REMARK    4  A    between atoms: O_6  and  C_7
REMARK    5  A    between atoms: C_10  and  C_11
REMARK    6  A    between atoms: C_14  and  N_15
REMARK                            x       y       z     vdW  Elec       q    Type
REMARK                         _______ _______ _______ _____ _____    ______ ____
ROOT
ATOM      1  C   UNL     1       6.168   4.734  16.023  0.00  0.00    +0.000 A 
ATOM      2  C   UNL     1       5.453   3.601  16.406  0.00  0.00    +0.000 A 
ATOM      3  C   UNL     1       4.253   3.700  17.126  0.00  0.00    +0.000 A 
ATOM      4  C   UNL     1       3.806   4.994  17.462  0.00  0.00    +0.000 A 
ATOM      5  S   UNL     1       2.396   5.468  18.330  0.00  0.00    +0.000 S 
ATOM      6  C   UNL     1       2.843   7.123  18.200  0.00  0.00    +0.000 A 
ATOM      7  N   UNL     1       3.948   7.342  17.514  0.00  0.00    +0.000 NA
ATOM      8  C   UNL     1       4.512   6.143  17.108  0.00  0.00    +0.000 A 
ATOM      9  C   UNL     1       5.714   6.006  16.385  0.00  0.00    +0.000 A 
ENDROOT
BRANCH   6  10
ATOM     10  C   UNL     1       2.008   8.185  18.788  0.00  0.00    +0.000 A 
ATOM     11  C   UNL     1       1.631   8.190  20.139  0.00  0.00    +0.000 A 
ATOM     12  C   UNL     1       0.835   9.218  20.661  0.00  0.00    +0.000 A 
ATOM     13  C   UNL     1       0.435  10.288  19.861  0.00  0.00    +0.000 A 
ATOM     14  C   UNL     1       0.762  10.263  18.505  0.00  0.00    +0.000 A 
ATOM     15  C   UNL     1       1.561   9.239  17.979  0.00  0.00    +0.000 A 
BRANCH  13  16
ATOM     16  N   UNL     1      -0.462  11.240  20.358  0.00  0.00    +0.000 N 
ATOM     17  H   UNL     1      -1.254  10.838  20.847  0.00  0.00    +0.000 HD
ATOM     18  H   UNL     1      -0.017  11.981  20.891  0.00  0.00    +0.000 HD
ENDBRANCH  13  16
ENDBRANCH   6  10
BRANCH   1  20
ATOM     19  C   UNL     1       7.248   4.956  13.927  0.00  0.00    +0.000 C 
ATOM     20  O   UNL     1       7.348   4.713  15.327  0.00  0.00    +0.000 OA
ENDBRANCH   1  20
BRANCH   3  21
ATOM     21  O   UNL     1       3.491   2.636  17.531  0.00  0.00    +0.000 OA
ATOM     22  C   UNL     1       3.842   2.008  18.758  0.00  0.00    +0.000 C 
ENDBRANCH   3  21
TORSDOF 4
ENDMDL
MODEL 6
REMARK VINA RESULT:      -6.7      3.284      7.813
REMARK  Name = 
REMARK  6 active torsions:
REMARK  status: ('A' for Active; 'I' for Inactive)
REMARK    1  A    between atoms: C_1  and  O_2
REMARK    2  A    between atoms: O_2  and  C_3
REMARK    3  A    between atoms: C_5  and  O_6
REMARK    4  A    between atoms: O_6  and  C_7
REMARK    5  A    between atoms: C_10  and  C_11
REMARK    6  A    between atoms: C_14  and  N_15
REMARK                            x       y       z     vdW  Elec       q    Type
REMARK                         _______ _______ _______ _____ _____    ______ ____
ROOT
ATOM      1  C   UNL     1       0.204   9.163  21.586  0.00  0.00    +0.000 A 
ATOM      2  C   UNL     1       0.129  10.209  20.668  0.00  0.00    +0.000 A 
ATOM      3  C   UNL     1       0.773  10.139  19.423  0.00  0.00    +0.000 A 
ATOM      4  C   UNL     1       1.513   8.972  19.144  0.00  0.00    +0.000 A 
ATOM      5  S   UNL     1       2.414   8.566  17.733  0.00  0.00    +0.000 S 
ATOM      6  C   UNL     1       2.892   7.073  18.440  0.00  0.00    +0.000 A 
ATOM      7  N   UNL     1       2.387   6.843  19.636  0.00  0.00    +0.000 NA
ATOM      8  C   UNL     1       1.620   7.920  20.053  0.00  0.00    +0.000 A 
ATOM      9  C   UNL     1       0.960   8.025  21.293  0.00  0.00    +0.000 A 
ENDROOT
BRANCH   6  10
ATOM     10  C   UNL     1       3.766   6.134  17.715  0.00  0.00    +0.000 A 
ATOM     11  C   UNL     1       4.867   6.558  16.956  0.00  0.00    +0.000 A 
ATOM     12  C   UNL     1       5.675   5.635  16.281  0.00  0.00    +0.000 A 
ATOM     13  C   UNL     1       5.434   4.265  16.384  0.00  0.00    +0.000 A 
ATOM     14  C   UNL     1       4.311   3.839  17.093  0.00  0.00    +0.000 A 
ATOM     15  C   UNL     1       3.502   4.759  17.774  0.00  0.00    +0.000 A 
BRANCH  13  16
ATOM     16  N   UNL     1       6.166   3.362  15.605  0.00  0.00    +0.000 N 
ATOM     17  H   UNL     1       7.016   3.753  15.215  0.00  0.00    +0.000 HD
ATOM     18  H   UNL     1       6.329   2.469  16.060  0.00  0.00    +0.000 HD
ENDBRANCH  13  16
ENDBRANCH   6  10
BRANCH   1  20
ATOM     19  C   UNL     1      -0.943  10.412  23.240  0.00  0.00    +0.000 C 
ATOM     20  O   UNL     1      -0.391   9.167  22.821  0.00  0.00    +0.000 OA
ENDBRANCH   1  20
BRANCH   3  21
ATOM     21  O   UNL     1       0.740  11.119  18.466  0.00  0.00    +0.000 OA
ATOM     22  C   UNL     1       0.053  12.323  18.785  0.00  0.00    +0.000 C 
ENDBRANCH   3  21
TORSDOF 4
ENDMDL
MODEL 7
REMARK VINA RESULT:      -6.7      4.229      5.027
REMARK  Name = 
REMARK  6 active torsions:
REMARK  status: ('A' for Active; 'I' for Inactive)
REMARK    1  A    between atoms: C_1  and  O_2
REMARK    2  A    between atoms: O_2  and  C_3
REMARK    3  A    between atoms: C_5  and  O_6
REMARK    4  A    between atoms: O_6  and  C_7
REMARK    5  A    between atoms: C_10  and  C_11
REMARK    6  A    between atoms: C_14  and  N_15
REMARK                            x       y       z     vdW  Elec       q    Type
REMARK                         _______ _______ _______ _____ _____    ______ ____
ROOT
ATOM      1  C   UNL     1       6.424   4.324  14.209  0.00  0.00    +0.000 A 
ATOM      2  C   UNL     1       7.231   5.269  14.840  0.00  0.00    +0.000 A 
ATOM      3  C   UNL     1       7.077   5.572  16.201  0.00  0.00    +0.000 A 
ATOM      4  C   UNL     1       6.060   4.892  16.903  0.00  0.00    +0.000 A 
ATOM      5  S   UNL     1       5.605   5.025  18.560  0.00  0.00    +0.000 S 
ATOM      6  C   UNL     1       4.343   3.881  18.328  0.00  0.00    +0.000 A 
ATOM      7  N   UNL     1       4.272   3.377  17.111  0.00  0.00    +0.000 NA
ATOM      8  C   UNL     1       5.227   3.957  16.291  0.00  0.00    +0.000 A 
ATOM      9  C   UNL     1       5.411   3.678  14.922  0.00  0.00    +0.000 A 
ENDROOT
BRANCH   6  10
ATOM     10  C   UNL     1       3.458   3.490  19.440  0.00  0.00    +0.000 A 
ATOM     11  C   UNL     1       3.866   2.619  20.462  0.00  0.00    +0.000 A 
ATOM     12  C   UNL     1       2.996   2.272  21.502  0.00  0.00    +0.000 A 
ATOM     13  C   UNL     1       1.715   2.819  21.575  0.00  0.00    +0.000 A 
ATOM     14  C   UNL     1       1.284   3.644  20.535  0.00  0.00    +0.000 A 
ATOM     15  C   UNL     1       2.152   3.998  19.495  0.00  0.00    +0.000 A 
BRANCH  13  16
ATOM     16  N   UNL     1       0.812   2.367  22.544  0.00  0.00    +0.000 N 
ATOM     17  H   UNL     1       0.994   2.729  23.473  0.00  0.00    +0.000 HD
ATOM     18  H   UNL     1      -0.162   2.474  22.275  0.00  0.00    +0.000 HD
ENDBRANCH  13  16
ENDBRANCH   6  10
BRANCH   1  20
ATOM     19  C   UNL     1       5.414   3.243  12.359  0.00  0.00    +0.000 C 
ATOM     20  O   UNL     1       6.512   3.984  12.884  0.00  0.00    +0.000 OA
ENDBRANCH   1  20
BRANCH   3  21
ATOM     21  O   UNL     1       7.834   6.480  16.894  0.00  0.00    +0.000 OA
ATOM     22  C   UNL     1       7.216   7.710  17.251  0.00  0.00    +0.000 C 
ENDBRANCH   3  21
TORSDOF 4
ENDMDL
MODEL 8
REMARK VINA RESULT:      -6.6      3.606      7.839
REMARK  Name = 
REMARK  6 active torsions:
REMARK  status: ('A' for Active; 'I' for Inactive)
REMARK    1  A    between atoms: C_1  and  O_2
REMARK    2  A    between atoms: O_2  and  C_3
REMARK    3  A    between atoms: C_5  and  O_6
REMARK    4  A    between atoms: O_6  and  C_7
REMARK    5  A    between atoms: C_10  and  C_11
REMARK    6  A    between atoms: C_14  and  N_15
REMARK                            x       y       z     vdW  Elec       q    Type
REMARK                         _______ _______ _______ _____ _____    ______ ____
ROOT
ATOM      1  C   UNL     1       0.336  10.303  21.959  0.00  0.00    +0.000 A 
ATOM      2  C   UNL     1       0.518  11.083  20.818  0.00  0.00    +0.000 A 
ATOM      3  C   UNL     1       1.047  10.542  19.637  0.00  0.00    +0.000 A 
ATOM      4  C   UNL     1       1.403   9.177  19.654  0.00  0.00    +0.000 A 
ATOM      5  S   UNL     1       2.072   8.210  18.395  0.00  0.00    +0.000 S 
ATOM      6  C   UNL     1       2.135   6.849  19.444  0.00  0.00    +0.000 A 
ATOM      7  N   UNL     1       1.649   7.060  20.651  0.00  0.00    +0.000 NA
ATOM      8  C   UNL     1       1.249   8.380  20.788  0.00  0.00    +0.000 A 
ATOM      9  C   UNL     1       0.715   8.958  21.957  0.00  0.00    +0.000 A 
ENDROOT
BRANCH   6  10
ATOM     10  C   UNL     1       2.661   5.554  18.977  0.00  0.00    +0.000 A 
ATOM     11  C   UNL     1       2.046   4.810  17.958  0.00  0.00    +0.000 A 
ATOM     12  C   UNL     1       2.577   3.584  17.542  0.00  0.00    +0.000 A 
ATOM     13  C   UNL     1       3.758   3.090  18.096  0.00  0.00    +0.000 A 
ATOM     14  C   UNL     1       4.345   3.797  19.146  0.00  0.00    +0.000 A 
ATOM     15  C   UNL     1       3.821   5.027  19.563  0.00  0.00    +0.000 A 
BRANCH  13  16
ATOM     16  N   UNL     1       4.207   1.807  17.765  0.00  0.00    +0.000 N 
ATOM     17  H   UNL     1       4.924   1.797  17.049  0.00  0.00    +0.000 HD
ATOM     18  H   UNL     1       4.462   1.243  18.571  0.00  0.00    +0.000 HD
ENDBRANCH  13  16
ENDBRANCH   6  10
BRANCH   1  20
ATOM     19  C   UNL     1      -1.523  11.200  23.120  0.00  0.00    +0.000 C 
ATOM     20  O   UNL     1      -0.166  10.766  23.147  0.00  0.00    +0.000 OA
ENDBRANCH   1  20
BRANCH   3  21
ATOM     21  O   UNL     1       1.248  11.239  18.475  0.00  0.00    +0.000 OA
ATOM     22  C   UNL     1       1.859  12.520  18.577  0.00  0.00    +0.000 C 
ENDBRANCH   3  21
TORSDOF 4
ENDMDL
MODEL 9
REMARK VINA RESULT:      -6.6      3.613      8.026
REMARK  Name = 
REMARK  6 active torsions:
REMARK  status: ('A' for Active; 'I' for Inactive)
REMARK    1  A    between atoms: C_1  and  O_2
REMARK    2  A    between atoms: O_2  and  C_3
REMARK    3  A    between atoms: C_5  and  O_6
REMARK    4  A    between atoms: O_6  and  C_7
REMARK    5  A    between atoms: C_10  and  C_11
REMARK    6  A    between atoms: C_14  and  N_15
REMARK                            x       y       z     vdW  Elec       q    Type
REMARK                         _______ _______ _______ _____ _____    ______ ____
ROOT
ATOM      1  C   UNL     1      -0.222  10.232  21.802  0.00  0.00    +0.000 A 
ATOM      2  C   UNL     1      -0.293  11.172  20.775  0.00  0.00    +0.000 A 
ATOM      3  C   UNL     1       0.312  10.943  19.530  0.00  0.00    +0.000 A 
ATOM      4  C   UNL     1       1.009   9.729  19.363  0.00  0.00    +0.000 A 
ATOM      5  S   UNL     1       1.857   9.141  17.984  0.00  0.00    +0.000 S 
ATOM      6  C   UNL     1       2.312   7.721  18.840  0.00  0.00    +0.000 A 
ATOM      7  N   UNL     1       1.835   7.641  20.067  0.00  0.00    +0.000 NA
ATOM      8  C   UNL     1       1.112   8.781  20.381  0.00  0.00    +0.000 A 
ATOM      9  C   UNL     1       0.492   9.045  21.618  0.00  0.00    +0.000 A 
ENDROOT
BRANCH   6  10
ATOM     10  C   UNL     1       3.137   6.680  18.202  0.00  0.00    +0.000 A 
ATOM     11  C   UNL     1       4.225   6.982  17.369  0.00  0.00    +0.000 A 
ATOM     12  C   UNL     1       4.986   5.964  16.782  0.00  0.00    +0.000 A 
ATOM     13  C   UNL     1       4.711   4.622  17.046  0.00  0.00    +0.000 A 
ATOM     14  C   UNL     1       3.599   4.314  17.830  0.00  0.00    +0.000 A 
ATOM     15  C   UNL     1       2.837   5.329  18.424  0.00  0.00    +0.000 A 
BRANCH  13  16
ATOM     16  N   UNL     1       5.393   3.616  16.354  0.00  0.00    +0.000 N 
ATOM     17  H   UNL     1       5.221   3.617  15.355  0.00  0.00    +0.000 HD
ATOM     18  H   UNL     1       6.384   3.571  16.573  0.00  0.00    +0.000 HD
ENDBRANCH  13  16
ENDBRANCH   6  10
BRANCH   1  20
ATOM     19  C   UNL     1      -1.656  11.505  23.192  0.00  0.00    +0.000 C 
ATOM     20  O   UNL     1      -0.780  10.391  23.043  0.00  0.00    +0.000 OA
ENDBRANCH   1  20
BRANCH   3  21
ATOM     21  O   UNL     1       0.280  11.812  18.470  0.00  0.00    +0.000 OA
ATOM     22  C   UNL     1      -0.567  12.950  18.582  0.00  0.00    +0.000 C 
ENDBRANCH   3  21
TORSDOF 4
ENDMDL
