MODEL 1
REMARK VINA RESULT:      -6.8      0.000      0.000
REMARK  Name = 
REMARK  6 active torsions:
REMARK  status: ('A' for Active; 'I' for Inactive)
REMARK    1  A    between atoms: C_1  and  O_2
REMARK    2  A    between atoms: O_2  and  C_3
REMARK    3  A    between atoms: C_6  and  N_7
REMARK    4  A    between atoms: C_11  and  S_12
REMARK    5  A    between atoms: N_13  and  C_14
REMARK    6  A    between atoms: C_17  and  C_18
REMARK                            x       y       z     vdW  Elec       q    Type
REMARK                         _______ _______ _______ _____ _____    ______ ____
ROOT
ATOM      1  N   UNL     1       1.693   8.353  20.135  0.00  0.00    +0.000 N 
ATOM      2  C   UNL     1       1.329   9.483  19.271  0.00  0.00    +0.000 C 
ATOM      3  C   UNL     1      -0.177   9.761  19.382  0.00  0.00    +0.000 C 
ATOM      4  N   UNL     1      -0.537  10.046  20.782  0.00  0.00    +0.000 N 
ATOM      5  C   UNL     1      -1.011  11.249  21.295  0.00  0.00    +0.000 C 
ATOM      6  N   UNL     1      -1.372  11.370  22.538  0.00  0.00    +0.000 NA
ATOM      7  C   UNL     1      -0.206   8.910  21.676  0.00  0.00    +0.000 C 
ATOM      8  C   UNL     1       1.289   8.504  21.551  0.00  0.00    +0.000 C 
ENDROOT
BRANCH   6   9
ATOM      9  C   UNL     1      -1.952  12.526  23.109  0.00  0.00    +0.000 A 
ATOM     10  C   UNL     1      -3.305  12.590  23.472  0.00  0.00    +0.000 A 
ATOM     11  C   UNL     1      -3.861  13.742  24.026  0.00  0.00    +0.000 A 
ATOM     12  C   UNL     1      -3.055  14.841  24.326  0.00  0.00    +0.000 A 
ATOM     13  C   UNL     1      -3.645  16.060  24.967  0.00  0.00    +0.000 C 
ATOM     14  C   UNL     1      -1.681  14.758  24.059  0.00  0.00    +0.000 A 
ATOM     15  C   UNL     1      -1.142  13.614  23.447  0.00  0.00    +0.000 A 
ENDBRANCH   6   9
BRANCH   1  19
ATOM     16  C   UNL     1       3.060   4.697  18.519  0.00  0.00    +0.000 A 
ATOM     17  C   UNL     1       3.225   5.891  17.823  0.00  0.00    +0.000 A 
ATOM     18  C   UNL     1       2.788   7.101  18.376  0.00  0.00    +0.000 A 
ATOM     19  C   UNL     1       2.155   7.157  19.625  0.00  0.00    +0.000 A 
ATOM     20  C   UNL     1       1.980   5.935  20.294  0.00  0.00    +0.000 A 
ATOM     21  C   UNL     1       2.424   4.718  19.754  0.00  0.00    +0.000 A 
BRANCH  16  23
ATOM     22  C   UNL     1       2.593   2.501  17.794  0.00  0.00    +0.000 C 
ATOM     23  O   UNL     1       3.518   3.577  17.885  0.00  0.00    +0.000 OA
ENDBRANCH  16  23
ENDBRANCH   1  19
BRANCH   5  24
ATOM     24  S   UNL     1      -1.091  12.591  20.132  0.00  0.00    +0.000 S 
ATOM     25  H   UNL     1       0.238  12.752  20.068  0.00  0.00    +0.000 HD
ENDBRANCH   5  24
TORSDOF 4
ENDMDL
MODEL 2
REMARK VINA RESULT:      -6.7      0.413      1.060
REMARK  Name = 
REMARK  6 active torsions:
REMARK  status: ('A' for Active; 'I' for Inactive)
REMARK    1  A    between atoms: C_1  and  O_2
REMARK    2  A    between atoms: O_2  and  C_3
REMARK    3  A    between atoms: C_6  and  N_7
REMARK    4  A    between atoms: C_11  and  S_12
REMARK    5  A    between atoms: N_13  and  C_14
REMARK    6  A    between atoms: C_17  and  C_18
REMARK                            x       y       z     vdW  Elec       q    Type
REMARK                         _______ _______ _______ _____ _____    ______ ____
ROOT
ATOM      1  N   UNL     1       1.684   8.440  20.088  0.00  0.00    +0.000 N 
ATOM      2  C   UNL     1       1.267   9.549  19.221  0.00  0.00    +0.000 C 
ATOM      3  C   UNL     1      -0.241   9.794  19.376  0.00  0.00    +0.000 C 
ATOM      4  N   UNL     1      -0.564  10.090  20.782  0.00  0.00    +0.000 N 
ATOM      5  C   UNL     1      -1.049  11.289  21.294  0.00  0.00    +0.000 C 
ATOM      6  N   UNL     1      -1.373  11.419  22.546  0.00  0.00    +0.000 NA
ATOM      7  C   UNL     1      -0.178   8.975  21.681  0.00  0.00    +0.000 C 
ATOM      8  C   UNL     1       1.321   8.601  21.514  0.00  0.00    +0.000 C 
ENDROOT
BRANCH   6   9
ATOM      9  C   UNL     1      -1.963  12.570  23.119  0.00  0.00    +0.000 A 
ATOM     10  C   UNL     1      -3.315  12.622  23.487  0.00  0.00    +0.000 A 
ATOM     11  C   UNL     1      -3.879  13.768  24.044  0.00  0.00    +0.000 A 
ATOM     12  C   UNL     1      -3.082  14.875  24.341  0.00  0.00    +0.000 A 
ATOM     13  C   UNL     1      -3.680  16.088  24.985  0.00  0.00    +0.000 C 
ATOM     14  C   UNL     1      -1.708  14.804  24.070  0.00  0.00    +0.000 A 
ATOM     15  C   UNL     1      -1.161  13.665  23.455  0.00  0.00    +0.000 A 
ENDBRANCH   6   9
BRANCH   1  19
ATOM     16  C   UNL     1       3.178   4.785  18.586  0.00  0.00    +0.000 A 
ATOM     17  C   UNL     1       2.547   4.843  19.825  0.00  0.00    +0.000 A 
ATOM     18  C   UNL     1       2.036   6.054  20.306  0.00  0.00    +0.000 A 
ATOM     19  C   UNL     1       2.157   7.247  19.580  0.00  0.00    +0.000 A 
ATOM     20  C   UNL     1       2.820   7.164  18.345  0.00  0.00    +0.000 A 
ATOM     21  C   UNL     1       3.325   5.953  17.848  0.00  0.00    +0.000 A 
BRANCH  16  23
ATOM     22  C   UNL     1       3.843   2.631  19.281  0.00  0.00    +0.000 C 
ATOM     23  O   UNL     1       3.642   3.553  18.217  0.00  0.00    +0.000 OA
ENDBRANCH  16  23
ENDBRANCH   1  19
BRANCH   5  24
ATOM     24  S   UNL     1      -1.196  12.613  20.116  0.00  0.00    +0.000 S 
ATOM     25  H   UNL     1      -2.286  12.103  19.524  0.00  0.00    +0.000 HD
ENDBRANCH   5  24
TORSDOF 4
ENDMDL
MODEL 3
REMARK VINA RESULT:      -6.7      0.191      1.395
REMARK  Name = 
REMARK  6 active torsions:
REMARK  status: ('A' for Active; 'I' for Inactive)
REMARK    1  A    between atoms: C_1  and  O_2
REMARK    2  A    between atoms: O_2  and  C_3
REMARK    3  A    between atoms: C_6  and  N_7
REMARK    4  A    between atoms: C_11  and  S_12
REMARK    5  A    between atoms: N_13  and  C_14
REMARK    6  A    between atoms: C_17  and  C_18
REMARK                            x       y       z     vdW  Elec       q    Type
REMARK                         _______ _______ _______ _____ _____    ______ ____
ROOT
ATOM      1  N   UNL     1       1.793   8.281  20.015  0.00  0.00    +0.000 N 
ATOM      2  C   UNL     1       1.432   9.432  19.176  0.00  0.00    +0.000 C 
ATOM      3  C   UNL     1      -0.073   9.710  19.291  0.00  0.00    +0.000 C 
ATOM      4  N   UNL     1      -0.437   9.962  20.696  0.00  0.00    +0.000 N 
ATOM      5  C   UNL     1      -0.910  11.154  21.236  0.00  0.00    +0.000 C 
ATOM      6  N   UNL     1      -1.273  11.245  22.481  0.00  0.00    +0.000 NA
ATOM      7  C   UNL     1      -0.109   8.805  21.564  0.00  0.00    +0.000 C 
ATOM      8  C   UNL     1       1.385   8.399  21.433  0.00  0.00    +0.000 C 
ENDROOT
BRANCH   6   9
ATOM      9  C   UNL     1      -1.853  12.389  23.077  0.00  0.00    +0.000 A 
ATOM     10  C   UNL     1      -1.109  13.534  23.395  0.00  0.00    +0.000 A 
ATOM     11  C   UNL     1      -1.697  14.648  23.990  0.00  0.00    +0.000 A 
ATOM     12  C   UNL     1      -3.076  14.691  24.201  0.00  0.00    +0.000 A 
ATOM     13  C   UNL     1      -3.714  15.909  24.796  0.00  0.00    +0.000 C 
ATOM     14  C   UNL     1      -3.850  13.593  23.799  0.00  0.00    +0.000 A 
ATOM     15  C   UNL     1      -3.239  12.452  23.253  0.00  0.00    +0.000 A 
ENDBRANCH   6   9
BRANCH   1  19
ATOM     16  C   UNL     1       3.249   4.648  18.424  0.00  0.00    +0.000 A 
ATOM     17  C   UNL     1       2.604   4.681  19.657  0.00  0.00    +0.000 A 
ATOM     18  C   UNL     1       2.106   5.885  20.167  0.00  0.00    +0.000 A 
ATOM     19  C   UNL     1       2.253   7.096  19.477  0.00  0.00    +0.000 A 
ATOM     20  C   UNL     1       2.929   7.039  18.247  0.00  0.00    +0.000 A 
ATOM     21  C   UNL     1       3.421   5.835  17.722  0.00  0.00    +0.000 A 
BRANCH  16  23
ATOM     22  C   UNL     1       2.695   2.429  17.848  0.00  0.00    +0.000 C 
ATOM     23  O   UNL     1       3.698   3.421  18.025  0.00  0.00    +0.000 OA
ENDBRANCH  16  23
ENDBRANCH   1  19
BRANCH   5  24
ATOM     24  S   UNL     1      -0.985  12.523  20.105  0.00  0.00    +0.000 S 
ATOM     25  H   UNL     1      -1.533  13.362  20.995  0.00  0.00    +0.000 HD
ENDBRANCH   5  24
TORSDOF 4
ENDMDL
MODEL 4
REMARK VINA RESULT:      -6.5      0.688      1.222
REMARK  Name = 
REMARK  6 active torsions:
REMARK  status: ('A' for Active; 'I' for Inactive)
REMARK    1  A    between atoms: C_1  and  O_2
REMARK    2  A    between atoms: O_2  and  C_3
REMARK    3  A    between atoms: C_6  and  N_7
REMARK    4  A    between atoms: C_11  and  S_12
REMARK    5  A    between atoms: N_13  and  C_14
REMARK    6  A    between atoms: C_17  and  C_18
REMARK                            x       y       z     vdW  Elec       q    Type
REMARK                         _______ _______ _______ _____ _____    ______ ____
ROOT
ATOM      1  N   UNL     1       1.820   8.401  19.782  0.00  0.00    +0.000 N 
ATOM      2  C   UNL     1       1.310   9.513  18.970  0.00  0.00    +0.000 C 
ATOM      3  C   UNL     1      -0.193   9.698  19.222  0.00  0.00    +0.000 C 
ATOM      4  N   UNL     1      -0.440   9.949  20.652  0.00  0.00    +0.000 N 
ATOM      5  C   UNL     1      -0.936  11.117  21.222  0.00  0.00    +0.000 C 
ATOM      6  N   UNL     1      -1.188  11.205  22.494  0.00  0.00    +0.000 NA
ATOM      7  C   UNL     1       0.041   8.829  21.498  0.00  0.00    +0.000 C 
ATOM      8  C   UNL     1       1.539   8.516  21.231  0.00  0.00    +0.000 C 
ENDROOT
BRANCH   6   9
ATOM      9  C   UNL     1      -1.782  12.320  23.131  0.00  0.00    +0.000 A 
ATOM     10  C   UNL     1      -1.088  13.517  23.360  0.00  0.00    +0.000 A 
ATOM     11  C   UNL     1      -1.689  14.601  23.997  0.00  0.00    +0.000 A 
ATOM     12  C   UNL     1      -3.041  14.558  24.340  0.00  0.00    +0.000 A 
ATOM     13  C   UNL     1      -3.698  15.743  24.980  0.00  0.00    +0.000 C 
ATOM     14  C   UNL     1      -3.775  13.405  24.030  0.00  0.00    +0.000 A 
ATOM     15  C   UNL     1      -3.145  12.296  23.441  0.00  0.00    +0.000 A 
ENDBRANCH   6   9
BRANCH   1  19
ATOM     16  C   UNL     1       3.265   4.859  17.990  0.00  0.00    +0.000 A 
ATOM     17  C   UNL     1       3.588   6.107  17.466  0.00  0.00    +0.000 A 
ATOM     18  C   UNL     1       3.123   7.277  18.079  0.00  0.00    +0.000 A 
ATOM     19  C   UNL     1       2.304   7.239  19.216  0.00  0.00    +0.000 A 
ATOM     20  C   UNL     1       1.974   5.966  19.709  0.00  0.00    +0.000 A 
ATOM     21  C   UNL     1       2.445   4.789  19.109  0.00  0.00    +0.000 A 
BRANCH  16  23
ATOM     22  C   UNL     1       4.801   4.081  16.378  0.00  0.00    +0.000 C 
ATOM     23  O   UNL     1       3.769   3.786  17.310  0.00  0.00    +0.000 OA
ENDBRANCH  16  23
ENDBRANCH   1  19
BRANCH   5  24
ATOM     24  S   UNL     1      -1.204  12.460  20.089  0.00  0.00    +0.000 S 
ATOM     25  H   UNL     1      -0.005  12.339  19.500  0.00  0.00    +0.000 HD
ENDBRANCH   5  24
TORSDOF 4
ENDMDL
MODEL 5
REMARK VINA RESULT:      -6.4      0.865      1.310
REMARK  Name = 
REMARK  6 active torsions:
REMARK  status: ('A' for Active; 'I' for Inactive)
REMARK    1  A    between atoms: C_1  and  O_2
REMARK    2  A    between atoms: O_2  and  C_3
REMARK    3  A    between atoms: C_6  and  N_7
REMARK    4  A    between atoms: C_11  and  S_12
REMARK    5  A    between atoms: N_13  and  C_14
REMARK    6  A    between atoms: C_17  and  C_18
REMARK                            x       y       z     vdW  Elec       q    Type
REMARK                         _______ _______ _______ _____ _____    ______ ____
ROOT
ATOM      1  N   UNL     1       1.376   8.899  20.409  0.00  0.00    +0.000 N 
ATOM      2  C   UNL     1       0.833   9.928  19.513  0.00  0.00    +0.000 C 
ATOM      3  C   UNL     1      -0.655  10.153  19.816  0.00  0.00    +0.000 C 
ATOM      4  N   UNL     1      -0.830  10.550  21.224  0.00  0.00    +0.000 N 
ATOM      5  C   UNL     1      -1.292  11.775  21.695  0.00  0.00    +0.000 C 
ATOM      6  N   UNL     1      -1.481  11.995  22.962  0.00  0.00    +0.000 NA
ATOM      7  C   UNL     1      -0.316   9.517  22.155  0.00  0.00    +0.000 C 
ATOM      8  C   UNL     1       1.166   9.163  21.850  0.00  0.00    +0.000 C 
ENDROOT
BRANCH   6   9
ATOM      9  C   UNL     1      -2.037  13.175  23.510  0.00  0.00    +0.000 A 
ATOM     10  C   UNL     1      -1.272  14.322  23.766  0.00  0.00    +0.000 A 
ATOM     11  C   UNL     1      -1.837  15.472  24.314  0.00  0.00    +0.000 A 
ATOM     12  C   UNL     1      -3.213  15.546  24.535  0.00  0.00    +0.000 A 
ATOM     13  C   UNL     1      -3.826  16.800  25.078  0.00  0.00    +0.000 C 
ATOM     14  C   UNL     1      -4.008  14.443  24.193  0.00  0.00    +0.000 A 
ATOM     15  C   UNL     1      -3.419  13.268  23.696  0.00  0.00    +0.000 A 
ENDBRANCH   6   9
BRANCH   1  19
ATOM     16  C   UNL     1       2.704   5.173  18.924  0.00  0.00    +0.000 A 
ATOM     17  C   UNL     1       2.866   6.338  18.179  0.00  0.00    +0.000 A 
ATOM     18  C   UNL     1       2.443   7.571  18.688  0.00  0.00    +0.000 A 
ATOM     19  C   UNL     1       1.825   7.680  19.941  0.00  0.00    +0.000 A 
ATOM     20  C   UNL     1       1.652   6.487  20.661  0.00  0.00    +0.000 A 
ATOM     21  C   UNL     1       2.084   5.248  20.166  0.00  0.00    +0.000 A 
BRANCH  16  23
ATOM     22  C   UNL     1       4.266   4.179  17.463  0.00  0.00    +0.000 C 
ATOM     23  O   UNL     1       3.150   4.026  18.330  0.00  0.00    +0.000 OA
ENDBRANCH  16  23
ENDBRANCH   1  19
BRANCH   5  24
ATOM     24  S   UNL     1      -1.606  13.000  20.445  0.00  0.00    +0.000 S 
ATOM     25  H   UNL     1      -2.644  12.340  19.913  0.00  0.00    +0.000 HD
ENDBRANCH   5  24
TORSDOF 4
ENDMDL
MODEL 6
REMARK VINA RESULT:      -6.3      3.415      9.774
REMARK  Name = 
REMARK  6 active torsions:
REMARK  status: ('A' for Active; 'I' for Inactive)
REMARK    1  A    between atoms: C_1  and  O_2
REMARK    2  A    between atoms: O_2  and  C_3
REMARK    3  A    between atoms: C_6  and  N_7
REMARK    4  A    between atoms: C_11  and  S_12
REMARK    5  A    between atoms: N_13  and  C_14
REMARK    6  A    between atoms: C_17  and  C_18
REMARK                            x       y       z     vdW  Elec       q    Type
REMARK                         _______ _______ _______ _____ _____    ______ ____
ROOT
ATOM      1  N   UNL     1      -0.650  10.697  21.523  0.00  0.00    +0.000 N 
ATOM      2  C   UNL     1      -0.227  10.697  20.117  0.00  0.00    +0.000 C 
ATOM      3  C   UNL     1       1.233  10.236  20.011  0.00  0.00    +0.000 C 
ATOM      4  N   UNL     1       1.383   8.892  20.593  0.00  0.00    +0.000 N 
ATOM      5  C   UNL     1       1.722   7.722  19.920  0.00  0.00    +0.000 C 
ATOM      6  N   UNL     1       1.902   6.598  20.547  0.00  0.00    +0.000 NA
ATOM      7  C   UNL     1       0.989   8.865  22.023  0.00  0.00    +0.000 C 
ATOM      8  C   UNL     1      -0.452   9.409  22.226  0.00  0.00    +0.000 C 
ENDROOT
BRANCH   6   9
ATOM      9  C   UNL     1       2.340   5.393  19.950  0.00  0.00    +0.000 A 
ATOM     10  C   UNL     1       3.696   5.112  19.724  0.00  0.00    +0.000 A 
ATOM     11  C   UNL     1       4.108   3.922  19.127  0.00  0.00    +0.000 A 
ATOM     12  C   UNL     1       3.178   2.927  18.822  0.00  0.00    +0.000 A 
ATOM     13  C   UNL     1       3.628   1.629  18.225  0.00  0.00    +0.000 C 
ATOM     14  C   UNL     1       1.829   3.151  19.131  0.00  0.00    +0.000 A 
ATOM     15  C   UNL     1       1.419   4.378  19.680  0.00  0.00    +0.000 A 
ENDBRANCH   6   9
BRANCH   1  19
ATOM     16  C   UNL     1      -1.712  14.256  23.536  0.00  0.00    +0.000 A 
ATOM     17  C   UNL     1      -2.466  13.096  23.690  0.00  0.00    +0.000 A 
ATOM     18  C   UNL     1      -2.095  11.915  23.036  0.00  0.00    +0.000 A 
ATOM     19  C   UNL     1      -0.977  11.859  22.193  0.00  0.00    +0.000 A 
ATOM     20  C   UNL     1      -0.249  13.049  22.036  0.00  0.00    +0.000 A 
ATOM     21  C   UNL     1      -0.605  14.234  22.696  0.00  0.00    +0.000 A 
BRANCH  16  23
ATOM     22  C   UNL     1      -1.902  15.358  25.613  0.00  0.00    +0.000 C 
ATOM     23  O   UNL     1      -2.167  15.350  24.216  0.00  0.00    +0.000 OA
ENDBRANCH  16  23
ENDBRANCH   1  19
BRANCH   5  24
ATOM     24  S   UNL     1       1.894   7.883  18.158  0.00  0.00    +0.000 S 
ATOM     25  H   UNL     1       3.065   8.532  18.228  0.00  0.00    +0.000 HD
ENDBRANCH   5  24
TORSDOF 4
ENDMDL
MODEL 7
REMARK VINA RESULT:      -6.3      3.420      9.780
REMARK  Name = 
REMARK  6 active torsions:
REMARK  status: ('A' for Active; 'I' for Inactive)
REMARK    1  A    between atoms: C_1  and  O_2
REMARK    2  A    between atoms: O_2  and  C_3
REMARK    3  A    between atoms: C_6  and  N_7
REMARK    4  A    between atoms: C_11  and  S_12
REMARK    5  A    between atoms: N_13  and  C_14
REMARK    6  A    between atoms: C_17  and  C_18
REMARK                            x       y       z     vdW  Elec       q    Type
REMARK                         _______ _______ _______ _____ _____    ______ ____
ROOT
ATOM      1  N   UNL     1      -1.336  11.350  22.045  0.00  0.00    +0.000 N 
ATOM      2  C   UNL     1      -1.227  11.531  20.592  0.00  0.00    +0.000 C 
ATOM      3  C   UNL     1       0.244  11.438  20.163  0.00  0.00    +0.000 C 
ATOM      4  N   UNL     1       0.808  10.138  20.564  0.00  0.00    +0.000 N 
ATOM      5  C   UNL     1       1.249   9.122  19.721  0.00  0.00    +0.000 C 
ATOM      6  N   UNL     1       1.802   8.040  20.183  0.00  0.00    +0.000 NA
ATOM      7  C   UNL     1       0.737   9.937  22.032  0.00  0.00    +0.000 C 
ATOM      8  C   UNL     1      -0.714  10.109  22.561  0.00  0.00    +0.000 C 
ENDROOT
BRANCH   6   9
ATOM      9  C   UNL     1       2.363   7.011  19.392  0.00  0.00    +0.000 A 
ATOM     10  C   UNL     1       3.307   7.261  18.385  0.00  0.00    +0.000 A 
ATOM     11  C   UNL     1       3.842   6.234  17.610  0.00  0.00    +0.000 A 
ATOM     12  C   UNL     1       3.520   4.904  17.883  0.00  0.00    +0.000 A 
ATOM     13  C   UNL     1       4.134   3.797  17.081  0.00  0.00    +0.000 C 
ATOM     14  C   UNL     1       2.653   4.628  18.950  0.00  0.00    +0.000 A 
ATOM     15  C   UNL     1       2.075   5.675  19.687  0.00  0.00    +0.000 A 
ENDBRANCH   6   9
BRANCH   1  19
ATOM     16  C   UNL     1      -2.702  14.460  24.557  0.00  0.00    +0.000 A 
ATOM     17  C   UNL     1      -3.518  13.372  24.259  0.00  0.00    +0.000 A 
ATOM     18  C   UNL     1      -3.049  12.336  23.443  0.00  0.00    +0.000 A 
ATOM     19  C   UNL     1      -1.766  12.360  22.881  0.00  0.00    +0.000 A 
ATOM     20  C   UNL     1      -0.973  13.481  23.179  0.00  0.00    +0.000 A 
ATOM     21  C   UNL     1      -1.428  14.519  24.005  0.00  0.00    +0.000 A 
BRANCH  16  23
ATOM     22  C   UNL     1      -2.835  16.749  25.112  0.00  0.00    +0.000 C 
ATOM     23  O   UNL     1      -3.261  15.415  25.359  0.00  0.00    +0.000 OA
ENDBRANCH  16  23
ENDBRANCH   1  19
BRANCH   5  24
ATOM     24  S   UNL     1       1.009   9.419  17.985  0.00  0.00    +0.000 S 
ATOM     25  H   UNL     1       2.317   9.373  17.691  0.00  0.00    +0.000 HD
ENDBRANCH   5  24
TORSDOF 4
ENDMDL
MODEL 8
REMARK VINA RESULT:      -6.3      3.403      9.744
REMARK  Name = 
REMARK  6 active torsions:
REMARK  status: ('A' for Active; 'I' for Inactive)
REMARK    1  A    between atoms: C_1  and  O_2
REMARK    2  A    between atoms: O_2  and  C_3
REMARK    3  A    between atoms: C_6  and  N_7
REMARK    4  A    between atoms: C_11  and  S_12
REMARK    5  A    between atoms: N_13  and  C_14
REMARK    6  A    between atoms: C_17  and  C_18
REMARK                            x       y       z     vdW  Elec       q    Type
REMARK                         _______ _______ _______ _____ _____    ______ ____
ROOT
ATOM      1  N   UNL     1      -1.327  11.359  21.985  0.00  0.00    +0.000 N 
ATOM      2  C   UNL     1      -1.153  11.540  20.538  0.00  0.00    +0.000 C 
ATOM      3  C   UNL     1       0.331  11.404  20.169  0.00  0.00    +0.000 C 
ATOM      4  N   UNL     1       0.838  10.086  20.588  0.00  0.00    +0.000 N 
ATOM      5  C   UNL     1       1.283   9.060  19.760  0.00  0.00    +0.000 C 
ATOM      6  N   UNL     1       1.784   7.961  20.240  0.00  0.00    +0.000 NA
ATOM      7  C   UNL     1       0.701   9.884  22.051  0.00  0.00    +0.000 C 
ATOM      8  C   UNL     1      -0.764  10.099  22.520  0.00  0.00    +0.000 C 
ENDROOT
BRANCH   6   9
ATOM      9  C   UNL     1       2.345   6.916  19.468  0.00  0.00    +0.000 A 
ATOM     10  C   UNL     1       3.242   7.153  18.416  0.00  0.00    +0.000 A 
ATOM     11  C   UNL     1       3.778   6.111  17.662  0.00  0.00    +0.000 A 
ATOM     12  C   UNL     1       3.508   4.784  17.999  0.00  0.00    +0.000 A 
ATOM     13  C   UNL     1       4.124   3.664  17.218  0.00  0.00    +0.000 C 
ATOM     14  C   UNL     1       2.690   4.527  19.109  0.00  0.00    +0.000 A 
ATOM     15  C   UNL     1       2.109   5.586  19.826  0.00  0.00    +0.000 A 
ENDBRANCH   6   9
BRANCH   1  19
ATOM     16  C   UNL     1      -2.600  14.468  24.546  0.00  0.00    +0.000 A 
ATOM     17  C   UNL     1      -1.340  14.500  23.955  0.00  0.00    +0.000 A 
ATOM     18  C   UNL     1      -0.934  13.476  23.091  0.00  0.00    +0.000 A 
ATOM     19  C   UNL     1      -1.759  12.380  22.806  0.00  0.00    +0.000 A 
ATOM     20  C   UNL     1      -3.015  12.361  23.435  0.00  0.00    +0.000 A 
ATOM     21  C   UNL     1      -3.436  13.387  24.293  0.00  0.00    +0.000 A 
BRANCH  16  23
ATOM     22  C   UNL     1      -3.970  16.343  24.962  0.00  0.00    +0.000 C 
ATOM     23  O   UNL     1      -2.889  15.516  25.375  0.00  0.00    +0.000 OA
ENDBRANCH  16  23
ENDBRANCH   1  19
BRANCH   5  24
ATOM     24  S   UNL     1       1.123   9.368  18.016  0.00  0.00    +0.000 S 
ATOM     25  H   UNL     1      -0.068   9.973  18.127  0.00  0.00    +0.000 HD
ENDBRANCH   5  24
TORSDOF 4
ENDMDL
MODEL 9
REMARK VINA RESULT:      -6.2      3.411      9.725
REMARK  Name = 
REMARK  6 active torsions:
REMARK  status: ('A' for Active; 'I' for Inactive)
REMARK    1  A    between atoms: C_1  and  O_2
REMARK    2  A    between atoms: O_2  and  C_3
REMARK    3  A    between atoms: C_6  and  N_7
REMARK    4  A    between atoms: C_11  and  S_12
REMARK    5  A    between atoms: N_13  and  C_14
REMARK    6  A    between atoms: C_17  and  C_18
REMARK                            x       y       z     vdW  Elec       q    Type
REMARK                         _______ _______ _______ _____ _____    ______ ____
ROOT
ATOM      1  N   UNL     1      -1.021  11.100  21.747  0.00  0.00    +0.000 N 
ATOM      2  C   UNL     1      -0.750  11.322  20.321  0.00  0.00    +0.000 C 
ATOM      3  C   UNL     1       0.744  11.116  20.034  0.00  0.00    +0.000 C 
ATOM      4  N   UNL     1       1.153   9.758  20.432  0.00  0.00    +0.000 N 
ATOM      5  C   UNL     1       1.592   8.738  19.594  0.00  0.00    +0.000 C 
ATOM      6  N   UNL     1       2.002   7.596  20.060  0.00  0.00    +0.000 NA
ATOM      7  C   UNL     1       0.917   9.513  21.876  0.00  0.00    +0.000 C 
ATOM      8  C   UNL     1      -0.561   9.793  22.267  0.00  0.00    +0.000 C 
ENDROOT
BRANCH   6   9
ATOM      9  C   UNL     1       2.552   6.550  19.284  0.00  0.00    +0.000 A 
ATOM     10  C   UNL     1       1.806   5.428  18.892  0.00  0.00    +0.000 A 
ATOM     11  C   UNL     1       2.368   4.403  18.134  0.00  0.00    +0.000 A 
ATOM     12  C   UNL     1       3.676   4.512  17.658  0.00  0.00    +0.000 A 
ATOM     13  C   UNL     1       4.262   3.432  16.801  0.00  0.00    +0.000 C 
ATOM     14  C   UNL     1       4.404   5.672  17.958  0.00  0.00    +0.000 A 
ATOM     15  C   UNL     1       3.847   6.673  18.772  0.00  0.00    +0.000 A 
ENDBRANCH   6   9
BRANCH   1  19
ATOM     16  C   UNL     1      -2.380  14.219  24.252  0.00  0.00    +0.000 A 
ATOM     17  C   UNL     1      -3.161  13.088  24.032  0.00  0.00    +0.000 A 
ATOM     18  C   UNL     1      -2.694  12.050  23.218  0.00  0.00    +0.000 A 
ATOM     19  C   UNL     1      -1.448  12.115  22.580  0.00  0.00    +0.000 A 
ATOM     20  C   UNL     1      -0.692  13.278  22.799  0.00  0.00    +0.000 A 
ATOM     21  C   UNL     1      -1.145  14.319  23.622  0.00  0.00    +0.000 A 
BRANCH  16  23
ATOM     22  C   UNL     1      -4.043  15.873  24.508  0.00  0.00    +0.000 C 
ATOM     23  O   UNL     1      -2.936  15.172  25.059  0.00  0.00    +0.000 OA
ENDBRANCH  16  23
ENDBRANCH   1  19
BRANCH   5  24
ATOM     24  S   UNL     1       1.555   9.114  17.856  0.00  0.00    +0.000 S 
ATOM     25  H   UNL     1       0.691   8.133  17.557  0.00  0.00    +0.000 HD
ENDBRANCH   5  24
TORSDOF 4
ENDMDL
