MODEL 1
REMARK VINA RESULT:     -10.4      0.000      0.000
REMARK  Name = 
REMARK  8 active torsions:
REMARK  status: ('A' for Active; 'I' for Inactive)
REMARK    1  A    between atoms: C_1  and  O_2
REMARK    2  A    between atoms: O_2  and  C_3
REMARK    3  A    between atoms: C_8  and  N_9
REMARK    4  A    between atoms: C_10  and  C_12
REMARK    5  A    between atoms: C_12  and  N_13
REMARK    6  A    between atoms: C_16  and  C_17
REMARK    7  A    between atoms: C_22  and  N_23
REMARK    8  A    between atoms: C_24  and  C_26
REMARK                            x       y       z     vdW  Elec       q    Type
REMARK                         _______ _______ _______ _____ _____    ______ ____
ROOT
ATOM      1  C   UNL     1       2.391   5.198  19.770  0.00  0.00    +0.000 A 
ATOM      2  C   UNL     1       1.536   4.795  20.814  0.00  0.00    +0.000 A 
ATOM      3  C   UNL     1       1.699   3.551  21.436  0.00  0.00    +0.000 A 
ATOM      4  C   UNL     1       2.732   2.709  21.048  0.00  0.00    +0.000 A 
ATOM      5  C   UNL     1       3.548   3.074  19.985  0.00  0.00    +0.000 A 
ATOM      6  C   UNL     1       3.350   4.278  19.298  0.00  0.00    +0.000 A 
ENDROOT
BRANCH   1  10
ATOM      7  N   UNL     1       1.769   8.536  18.986  0.00  0.00    +0.000 N 
ATOM      8  N   UNL     1       2.140   8.128  17.753  0.00  0.00    +0.000 NA
ATOM      9  N   UNL     1       2.434   6.842  17.890  0.00  0.00    +0.000 NA
ATOM     10  C   UNL     1       2.276   6.541  19.221  0.00  0.00    +0.000 A 
ATOM     11  N   UNL     1       1.923   7.618  19.952  0.00  0.00    +0.000 NA
BRANCH   7  12
ATOM     12  C   UNL     1       1.571   9.938  19.249  0.00  0.00    +0.000 C 
BRANCH  12  14
ATOM     13  N   UNL     1       0.133  11.592  20.576  0.00  0.00    +0.000 N 
ATOM     14  C   UNL     1       0.241  10.454  19.764  0.00  0.00    +0.000 C 
ATOM     15  O   UNL     1      -0.741   9.807  19.379  0.00  0.00    +0.000 OA
ATOM     16  H   UNL     1       0.844  12.315  20.497  0.00  0.00    +0.000 HD
BRANCH  13  22
ATOM     17  C   UNL     1      -1.339  11.635  22.611  0.00  0.00    +0.000 A 
ATOM     18  C   UNL     1      -2.553  12.043  23.214  0.00  0.00    +0.000 A 
ATOM     19  C   UNL     1      -3.516  12.760  22.511  0.00  0.00    +0.000 A 
ATOM     20  C   UNL     1      -3.281  13.086  21.190  0.00  0.00    +0.000 A 
ATOM     21  C   UNL     1      -2.085  12.699  20.577  0.00  0.00    +0.000 A 
ATOM     22  C   UNL     1      -1.080  11.986  21.259  0.00  0.00    +0.000 A 
BRANCH  17  24
ATOM     23  C   UNL     1      -0.507   9.480  23.210  0.00  0.00    +0.000 C 
ATOM     24  O   UNL     1      -0.397  10.909  23.314  0.00  0.00    +0.000 OA
ENDBRANCH  17  24
ENDBRANCH  13  22
ENDBRANCH  12  14
ENDBRANCH   7  12
ENDBRANCH   1  10
BRANCH   6  25
ATOM     25  N   UNL     1       4.083   4.528  18.112  0.00  0.00    +0.000 N 
ATOM     26  C   UNL     1       5.377   4.998  18.124  0.00  0.00    +0.000 C 
ATOM     27  O   UNL     1       5.990   5.298  19.151  0.00  0.00    +0.000 OA
ATOM     28  H   UNL     1       3.769   4.045  17.269  0.00  0.00    +0.000 HD
BRANCH  26  29
ATOM     29  C   UNL     1       6.098   5.011  16.829  0.00  0.00    +0.000 A 
ATOM     30  C   UNL     1       5.875   3.942  16.051  0.00  0.00    +0.000 A 
ATOM     31  C   UNL     1       6.269   4.028  14.666  0.00  0.00    +0.000 A 
ATOM     32  C   UNL     1       5.570   3.341  13.678  0.00  0.00    +0.000 A 
ATOM     33  C   UNL     1       5.900   3.551  12.344  0.00  0.00    +0.000 A 
ATOM     34  C   UNL     1       6.973   4.384  12.007  0.00  0.00    +0.000 A 
ATOM     35  C   UNL     1       7.678   5.068  12.999  0.00  0.00    +0.000 A 
ATOM     36  C   UNL     1       7.271   4.927  14.317  0.00  0.00    +0.000 A 
ATOM     37  O   UNL     1       7.778   5.821  15.271  0.00  0.00    +0.000 OA
ATOM     38  C   UNL     1       6.893   6.135  16.300  0.00  0.00    +0.000 A 
ATOM     39  O   UNL     1       6.813   7.264  16.769  0.00  0.00    +0.000 OA
ENDBRANCH  26  29
ENDBRANCH   6  25
TORSDOF 7
ENDMDL
MODEL 2
REMARK VINA RESULT:     -10.4      1.834      2.493
REMARK  Name = 
REMARK  8 active torsions:
REMARK  status: ('A' for Active; 'I' for Inactive)
REMARK    1  A    between atoms: C_1  and  O_2
REMARK    2  A    between atoms: O_2  and  C_3
REMARK    3  A    between atoms: C_8  and  N_9
REMARK    4  A    between atoms: C_10  and  C_12
REMARK    5  A    between atoms: C_12  and  N_13
REMARK    6  A    between atoms: C_16  and  C_17
REMARK    7  A    between atoms: C_22  and  N_23
REMARK    8  A    between atoms: C_24  and  C_26
REMARK                            x       y       z     vdW  Elec       q    Type
REMARK                         _______ _______ _______ _____ _____    ______ ____
ROOT
ATOM      1  C   UNL     1       2.380   5.199  19.786  0.00  0.00    +0.000 A 
ATOM      2  C   UNL     1       1.497   4.766  20.792  0.00  0.00    +0.000 A 
ATOM      3  C   UNL     1       1.609   3.485  21.344  0.00  0.00    +0.000 A 
ATOM      4  C   UNL     1       2.620   2.632  20.924  0.00  0.00    +0.000 A 
ATOM      5  C   UNL     1       3.465   3.030  19.895  0.00  0.00    +0.000 A 
ATOM      6  C   UNL     1       3.316   4.276  19.275  0.00  0.00    +0.000 A 
ENDROOT
BRANCH   1  10
ATOM      7  N   UNL     1       1.769   8.561  19.100  0.00  0.00    +0.000 N 
ATOM      8  N   UNL     1       2.423   8.261  17.957  0.00  0.00    +0.000 NA
ATOM      9  N   UNL     1       2.747   6.981  18.072  0.00  0.00    +0.000 NA
ATOM     10  C   UNL     1       2.318   6.575  19.313  0.00  0.00    +0.000 A 
ATOM     11  N   UNL     1       1.756   7.580  20.015  0.00  0.00    +0.000 NA
BRANCH   7  12
ATOM     12  C   UNL     1       1.444   9.931  19.403  0.00  0.00    +0.000 C 
BRANCH  12  14
ATOM     13  N   UNL     1      -1.020   9.925  18.701  0.00  0.00    +0.000 N 
ATOM     14  C   UNL     1       0.209  10.588  18.816  0.00  0.00    +0.000 C 
ATOM     15  O   UNL     1       0.371  11.768  18.480  0.00  0.00    +0.000 OA
ATOM     16  H   UNL     1      -1.233   9.178  19.359  0.00  0.00    +0.000 HD
BRANCH  13  22
ATOM     17  C   UNL     1      -3.060  11.378  18.510  0.00  0.00    +0.000 A 
ATOM     18  C   UNL     1      -4.152  11.829  17.730  0.00  0.00    +0.000 A 
ATOM     19  C   UNL     1      -4.374  11.359  16.439  0.00  0.00    +0.000 A 
ATOM     20  C   UNL     1      -3.505  10.430  15.903  0.00  0.00    +0.000 A 
ATOM     21  C   UNL     1      -2.416   9.976  16.654  0.00  0.00    +0.000 A 
ATOM     22  C   UNL     1      -2.150  10.438  17.957  0.00  0.00    +0.000 A 
BRANCH  17  24
ATOM     23  C   UNL     1      -3.760  12.866  20.239  0.00  0.00    +0.000 C 
ATOM     24  O   UNL     1      -2.859  11.839  19.797  0.00  0.00    +0.000 OA
ENDBRANCH  17  24
ENDBRANCH  13  22
ENDBRANCH  12  14
ENDBRANCH   7  12
ENDBRANCH   1  10
BRANCH   6  25
ATOM     25  N   UNL     1       4.076   4.569  18.116  0.00  0.00    +0.000 N 
ATOM     26  C   UNL     1       5.438   4.767  18.151  0.00  0.00    +0.000 C 
ATOM     27  O   UNL     1       6.107   4.767  19.187  0.00  0.00    +0.000 OA
ATOM     28  H   UNL     1       3.666   4.304  17.220  0.00  0.00    +0.000 HD
BRANCH  26  29
ATOM     29  C   UNL     1       6.138   4.852  16.847  0.00  0.00    +0.000 A 
ATOM     30  C   UNL     1       5.938   3.804  16.033  0.00  0.00    +0.000 A 
ATOM     31  C   UNL     1       6.306   3.954  14.647  0.00  0.00    +0.000 A 
ATOM     32  C   UNL     1       5.615   3.281  13.645  0.00  0.00    +0.000 A 
ATOM     33  C   UNL     1       5.917   3.550  12.314  0.00  0.00    +0.000 A 
ATOM     34  C   UNL     1       6.956   4.430  11.993  0.00  0.00    +0.000 A 
ATOM     35  C   UNL     1       7.654   5.100  12.999  0.00  0.00    +0.000 A 
ATOM     36  C   UNL     1       7.273   4.897  14.317  0.00  0.00    +0.000 A 
ATOM     37  O   UNL     1       7.765   5.773  15.295  0.00  0.00    +0.000 OA
ATOM     38  C   UNL     1       6.887   6.019  16.348  0.00  0.00    +0.000 A 
ATOM     39  O   UNL     1       6.778   7.127  16.860  0.00  0.00    +0.000 OA
ENDBRANCH  26  29
ENDBRANCH   6  25
TORSDOF 7
ENDMDL
MODEL 3
REMARK VINA RESULT:     -10.2      2.032      2.850
REMARK  Name = 
REMARK  8 active torsions:
REMARK  status: ('A' for Active; 'I' for Inactive)
REMARK    1  A    between atoms: C_1  and  O_2
REMARK    2  A    between atoms: O_2  and  C_3
REMARK    3  A    between atoms: C_8  and  N_9
REMARK    4  A    between atoms: C_10  and  C_12
REMARK    5  A    between atoms: C_12  and  N_13
REMARK    6  A    between atoms: C_16  and  C_17
REMARK    7  A    between atoms: C_22  and  N_23
REMARK    8  A    between atoms: C_24  and  C_26
REMARK                            x       y       z     vdW  Elec       q    Type
REMARK                         _______ _______ _______ _____ _____    ______ ____
ROOT
ATOM      1  C   UNL     1       2.512   5.264  19.727  0.00  0.00    +0.000 A 
ATOM      2  C   UNL     1       1.651   4.855  20.763  0.00  0.00    +0.000 A 
ATOM      3  C   UNL     1       1.787   3.594  21.355  0.00  0.00    +0.000 A 
ATOM      4  C   UNL     1       2.799   2.739  20.945  0.00  0.00    +0.000 A 
ATOM      5  C   UNL     1       3.622   3.110  19.889  0.00  0.00    +0.000 A 
ATOM      6  C   UNL     1       3.449   4.334  19.230  0.00  0.00    +0.000 A 
ENDROOT
BRANCH   1  10
ATOM      7  N   UNL     1       1.774   8.556  18.852  0.00  0.00    +0.000 N 
ATOM      8  N   UNL     1       2.628   8.289  17.840  0.00  0.00    +0.000 NA
ATOM      9  N   UNL     1       3.023   7.039  18.045  0.00  0.00    +0.000 NA
ATOM     10  C   UNL     1       2.427   6.623  19.210  0.00  0.00    +0.000 A 
ATOM     11  N   UNL     1       1.683   7.592  19.781  0.00  0.00    +0.000 NA
BRANCH   7  12
ATOM     12  C   UNL     1       1.303   9.901  19.057  0.00  0.00    +0.000 C 
BRANCH  12  14
ATOM     13  N   UNL     1      -0.931  10.310  17.873  0.00  0.00    +0.000 N 
ATOM     14  C   UNL     1      -0.180  10.217  19.053  0.00  0.00    +0.000 C 
ATOM     15  O   UNL     1      -0.676  10.351  20.179  0.00  0.00    +0.000 OA
ATOM     16  H   UNL     1      -0.629   9.778  17.061  0.00  0.00    +0.000 HD
BRANCH  13  22
ATOM     17  C   UNL     1      -3.162  10.524  16.736  0.00  0.00    +0.000 A 
ATOM     18  C   UNL     1      -4.470  11.065  16.736  0.00  0.00    +0.000 A 
ATOM     19  C   UNL     1      -4.917  11.900  17.755  0.00  0.00    +0.000 A 
ATOM     20  C   UNL     1      -4.064  12.208  18.796  0.00  0.00    +0.000 A 
ATOM     21  C   UNL     1      -2.770  11.678  18.819  0.00  0.00    +0.000 A 
ATOM     22  C   UNL     1      -2.285  10.818  17.815  0.00  0.00    +0.000 A 
BRANCH  17  24
ATOM     23  C   UNL     1      -3.072  10.134  14.383  0.00  0.00    +0.000 C 
ATOM     24  O   UNL     1      -2.722   9.709  15.710  0.00  0.00    +0.000 OA
ENDBRANCH  17  24
ENDBRANCH  13  22
ENDBRANCH  12  14
ENDBRANCH   7  12
ENDBRANCH   1  10
BRANCH   6  25
ATOM     25  N   UNL     1       4.186   4.596  18.050  0.00  0.00    +0.000 N 
ATOM     26  C   UNL     1       5.550   4.783  18.051  0.00  0.00    +0.000 C 
ATOM     27  O   UNL     1       6.241   4.798  19.071  0.00  0.00    +0.000 OA
ATOM     28  H   UNL     1       3.753   4.316  17.168  0.00  0.00    +0.000 HD
BRANCH  26  29
ATOM     29  C   UNL     1       6.221   4.834  16.729  0.00  0.00    +0.000 A 
ATOM     30  C   UNL     1       5.949   3.799  15.921  0.00  0.00    +0.000 A 
ATOM     31  C   UNL     1       6.290   3.932  14.526  0.00  0.00    +0.000 A 
ATOM     32  C   UNL     1       5.542   3.296  13.541  0.00  0.00    +0.000 A 
ATOM     33  C   UNL     1       5.824   3.552  12.203  0.00  0.00    +0.000 A 
ATOM     34  C   UNL     1       6.899   4.378  11.857  0.00  0.00    +0.000 A 
ATOM     35  C   UNL     1       7.654   5.011  12.846  0.00  0.00    +0.000 A 
ATOM     36  C   UNL     1       7.295   4.826  14.173  0.00  0.00    +0.000 A 
ATOM     37  O   UNL     1       7.855   5.674  15.139  0.00  0.00    +0.000 OA
ATOM     38  C   UNL     1       7.016   5.963  16.213  0.00  0.00    +0.000 A 
ATOM     39  O   UNL     1       6.976   7.074  16.728  0.00  0.00    +0.000 OA
ENDBRANCH  26  29
ENDBRANCH   6  25
TORSDOF 7
ENDMDL
MODEL 4
REMARK VINA RESULT:      -9.8      0.993      1.347
REMARK  Name = 
REMARK  8 active torsions:
REMARK  status: ('A' for Active; 'I' for Inactive)
REMARK    1  A    between atoms: C_1  and  O_2
REMARK    2  A    between atoms: O_2  and  C_3
REMARK    3  A    between atoms: C_8  and  N_9
REMARK    4  A    between atoms: C_10  and  C_12
REMARK    5  A    between atoms: C_12  and  N_13
REMARK    6  A    between atoms: C_16  and  C_17
REMARK    7  A    between atoms: C_22  and  N_23
REMARK    8  A    between atoms: C_24  and  C_26
REMARK                            x       y       z     vdW  Elec       q    Type
REMARK                         _______ _______ _______ _____ _____    ______ ____
ROOT
ATOM      1  C   UNL     1       2.474   5.298  19.759  0.00  0.00    +0.000 A 
ATOM      2  C   UNL     1       1.598   4.863  20.771  0.00  0.00    +0.000 A 
ATOM      3  C   UNL     1       1.731   3.590  21.337  0.00  0.00    +0.000 A 
ATOM      4  C   UNL     1       2.754   2.748  20.926  0.00  0.00    +0.000 A 
ATOM      5  C   UNL     1       3.592   3.146  19.892  0.00  0.00    +0.000 A 
ATOM      6  C   UNL     1       3.424   4.384  19.258  0.00  0.00    +0.000 A 
ENDROOT
BRANCH   1  10
ATOM      7  N   UNL     1       1.789   8.632  19.011  0.00  0.00    +0.000 N 
ATOM      8  N   UNL     1       2.507   8.345  17.904  0.00  0.00    +0.000 NA
ATOM      9  N   UNL     1       2.867   7.076  18.048  0.00  0.00    +0.000 NA
ATOM     10  C   UNL     1       2.391   6.667  19.270  0.00  0.00    +0.000 A 
ATOM     11  N   UNL     1       1.762   7.659  19.934  0.00  0.00    +0.000 NA
BRANCH   7  12
ATOM     12  C   UNL     1       1.405   9.993  19.284  0.00  0.00    +0.000 C 
BRANCH  12  14
ATOM     13  N   UNL     1      -0.694  11.415  18.914  0.00  0.00    +0.000 N 
ATOM     14  C   UNL     1      -0.042  10.355  19.559  0.00  0.00    +0.000 C 
ATOM     15  O   UNL     1      -0.607   9.614  20.373  0.00  0.00    +0.000 OA
ATOM     16  H   UNL     1      -0.378  11.688  17.987  0.00  0.00    +0.000 HD
BRANCH  13  22
ATOM     17  C   UNL     1      -2.175  12.739  20.452  0.00  0.00    +0.000 A 
ATOM     18  C   UNL     1      -3.475  13.191  20.783  0.00  0.00    +0.000 A 
ATOM     19  C   UNL     1      -4.588  12.839  20.025  0.00  0.00    +0.000 A 
ATOM     20  C   UNL     1      -4.420  12.029  18.921  0.00  0.00    +0.000 A 
ATOM     21  C   UNL     1      -3.144  11.577  18.572  0.00  0.00    +0.000 A 
ATOM     22  C   UNL     1      -1.992  11.923  19.304  0.00  0.00    +0.000 A 
BRANCH  17  24
ATOM     23  C   UNL     1      -1.110  12.633  22.585  0.00  0.00    +0.000 C 
ATOM     24  O   UNL     1      -1.079  13.082  21.221  0.00  0.00    +0.000 OA
ENDBRANCH  17  24
ENDBRANCH  13  22
ENDBRANCH  12  14
ENDBRANCH   7  12
ENDBRANCH   1  10
BRANCH   6  25
ATOM     25  N   UNL     1       4.179   4.674  18.095  0.00  0.00    +0.000 N 
ATOM     26  C   UNL     1       5.554   4.738  18.098  0.00  0.00    +0.000 C 
ATOM     27  O   UNL     1       6.246   4.608  19.110  0.00  0.00    +0.000 OA
ATOM     28  H   UNL     1       3.721   4.507  17.198  0.00  0.00    +0.000 HD
BRANCH  26  29
ATOM     29  C   UNL     1       6.224   4.837  16.779  0.00  0.00    +0.000 A 
ATOM     30  C   UNL     1       6.058   3.770  15.984  0.00  0.00    +0.000 A 
ATOM     31  C   UNL     1       6.393   3.917  14.589  0.00  0.00    +0.000 A 
ATOM     32  C   UNL     1       5.715   3.199  13.609  0.00  0.00    +0.000 A 
ATOM     33  C   UNL     1       5.979   3.464  12.269  0.00  0.00    +0.000 A 
ATOM     34  C   UNL     1       6.970   4.386  11.916  0.00  0.00    +0.000 A 
ATOM     35  C   UNL     1       7.654   5.102  12.900  0.00  0.00    +0.000 A 
ATOM     36  C   UNL     1       7.308   4.900  14.228  0.00  0.00    +0.000 A 
ATOM     37  O   UNL     1       7.777   5.811  15.185  0.00  0.00    +0.000 OA
ATOM     38  C   UNL     1       6.908   6.031  16.251  0.00  0.00    +0.000 A 
ATOM     39  O   UNL     1       6.757   7.139  16.751  0.00  0.00    +0.000 OA
ENDBRANCH  26  29
ENDBRANCH   6  25
TORSDOF 7
ENDMDL
MODEL 5
REMARK VINA RESULT:      -9.8      1.018      1.798
REMARK  Name = 
REMARK  8 active torsions:
REMARK  status: ('A' for Active; 'I' for Inactive)
REMARK    1  A    between atoms: C_1  and  O_2
REMARK    2  A    between atoms: O_2  and  C_3
REMARK    3  A    between atoms: C_8  and  N_9
REMARK    4  A    between atoms: C_10  and  C_12
REMARK    5  A    between atoms: C_12  and  N_13
REMARK    6  A    between atoms: C_16  and  C_17
REMARK    7  A    between atoms: C_22  and  N_23
REMARK    8  A    between atoms: C_24  and  C_26
REMARK                            x       y       z     vdW  Elec       q    Type
REMARK                         _______ _______ _______ _____ _____    ______ ____
ROOT
ATOM      1  C   UNL     1       2.267   5.130  19.651  0.00  0.00    +0.000 A 
ATOM      2  C   UNL     1       1.354   4.674  20.622  0.00  0.00    +0.000 A 
ATOM      3  C   UNL     1       1.438   3.374  21.132  0.00  0.00    +0.000 A 
ATOM      4  C   UNL     1       2.449   2.523  20.708  0.00  0.00    +0.000 A 
ATOM      5  C   UNL     1       3.323   2.944  19.714  0.00  0.00    +0.000 A 
ATOM      6  C   UNL     1       3.204   4.213  19.132  0.00  0.00    +0.000 A 
ENDROOT
BRANCH   1  10
ATOM      7  N   UNL     1       1.758   8.534  19.108  0.00  0.00    +0.000 N 
ATOM      8  N   UNL     1       2.315   8.243  17.912  0.00  0.00    +0.000 NA
ATOM      9  N   UNL     1       2.589   6.947  17.967  0.00  0.00    +0.000 NA
ATOM     10  C   UNL     1       2.232   6.521  19.224  0.00  0.00    +0.000 A 
ATOM     11  N   UNL     1       1.767   7.526  19.993  0.00  0.00    +0.000 NA
BRANCH   7  12
ATOM     12  C   UNL     1       1.517   9.907  19.472  0.00  0.00    +0.000 C 
BRANCH  12  14
ATOM     13  N   UNL     1      -0.396  11.610  19.488  0.00  0.00    +0.000 N 
ATOM     14  C   UNL     1       0.133  10.374  19.880  0.00  0.00    +0.000 C 
ATOM     15  O   UNL     1      -0.501   9.556  20.559  0.00  0.00    +0.000 OA
ATOM     16  H   UNL     1      -0.069  12.025  18.618  0.00  0.00    +0.000 HD
BRANCH  13  22
ATOM     17  C   UNL     1      -2.862  12.074  19.362  0.00  0.00    +0.000 A 
ATOM     18  C   UNL     1      -4.010  12.665  19.942  0.00  0.00    +0.000 A 
ATOM     19  C   UNL     1      -3.945  13.369  21.141  0.00  0.00    +0.000 A 
ATOM     20  C   UNL     1      -2.730  13.493  21.784  0.00  0.00    +0.000 A 
ATOM     21  C   UNL     1      -1.585  12.911  21.232  0.00  0.00    +0.000 A 
ATOM     22  C   UNL     1      -1.611  12.179  20.029  0.00  0.00    +0.000 A 
BRANCH  17  24
ATOM     23  C   UNL     1      -4.228  11.363  17.539  0.00  0.00    +0.000 C 
ATOM     24  O   UNL     1      -2.934  11.392  18.163  0.00  0.00    +0.000 OA
ENDBRANCH  17  24
ENDBRANCH  13  22
ENDBRANCH  12  14
ENDBRANCH   7  12
ENDBRANCH   1  10
BRANCH   6  25
ATOM     25  N   UNL     1       3.996   4.534  18.003  0.00  0.00    +0.000 N 
ATOM     26  C   UNL     1       5.362   4.690  18.072  0.00  0.00    +0.000 C 
ATOM     27  O   UNL     1       6.009   4.624  19.120  0.00  0.00    +0.000 OA
ATOM     28  H   UNL     1       3.596   4.322  17.088  0.00  0.00    +0.000 HD
BRANCH  26  29
ATOM     29  C   UNL     1       6.090   4.812  16.787  0.00  0.00    +0.000 A 
ATOM     30  C   UNL     1       5.944   3.768  15.957  0.00  0.00    +0.000 A 
ATOM     31  C   UNL     1       6.341   3.945  14.582  0.00  0.00    +0.000 A 
ATOM     32  C   UNL     1       5.696   3.262  13.556  0.00  0.00    +0.000 A 
ATOM     33  C   UNL     1       6.021   3.556  12.236  0.00  0.00    +0.000 A 
ATOM     34  C   UNL     1       7.039   4.472  11.950  0.00  0.00    +0.000 A 
ATOM     35  C   UNL     1       7.690   5.153  12.980  0.00  0.00    +0.000 A 
ATOM     36  C   UNL     1       7.284   4.923  14.286  0.00  0.00    +0.000 A 
ATOM     37  O   UNL     1       7.724   5.803  15.286  0.00  0.00    +0.000 OA
ATOM     38  C   UNL     1       6.812   6.009  16.319  0.00  0.00    +0.000 A 
ATOM     39  O   UNL     1       6.656   7.107  16.840  0.00  0.00    +0.000 OA
ENDBRANCH  26  29
ENDBRANCH   6  25
TORSDOF 7
ENDMDL
MODEL 6
REMARK VINA RESULT:      -9.7      1.293      1.798
REMARK  Name = 
REMARK  8 active torsions:
REMARK  status: ('A' for Active; 'I' for Inactive)
REMARK    1  A    between atoms: C_1  and  O_2
REMARK    2  A    between atoms: O_2  and  C_3
REMARK    3  A    between atoms: C_8  and  N_9
REMARK    4  A    between atoms: C_10  and  C_12
REMARK    5  A    between atoms: C_12  and  N_13
REMARK    6  A    between atoms: C_16  and  C_17
REMARK    7  A    between atoms: C_22  and  N_23
REMARK    8  A    between atoms: C_24  and  C_26
REMARK                            x       y       z     vdW  Elec       q    Type
REMARK                         _______ _______ _______ _____ _____    ______ ____
ROOT
ATOM      1  C   UNL     1       2.400   5.030  19.797  0.00  0.00    +0.000 A 
ATOM      2  C   UNL     1       1.305   4.649  20.596  0.00  0.00    +0.000 A 
ATOM      3  C   UNL     1       1.326   3.452  21.320  0.00  0.00    +0.000 A 
ATOM      4  C   UNL     1       2.448   2.636  21.283  0.00  0.00    +0.000 A 
ATOM      5  C   UNL     1       3.513   2.976  20.458  0.00  0.00    +0.000 A 
ATOM      6  C   UNL     1       3.476   4.129  19.663  0.00  0.00    +0.000 A 
ENDROOT
BRANCH   1  10
ATOM      7  N   UNL     1       2.053   8.337  18.753  0.00  0.00    +0.000 N 
ATOM      8  N   UNL     1       2.426   7.813  17.565  0.00  0.00    +0.000 NA
ATOM      9  N   UNL     1       2.618   6.523  17.804  0.00  0.00    +0.000 NA
ATOM     10  C   UNL     1       2.402   6.334  19.148  0.00  0.00    +0.000 A 
ATOM     11  N   UNL     1       2.111   7.485  19.787  0.00  0.00    +0.000 NA
BRANCH   7  12
ATOM     12  C   UNL     1       1.955   9.766  18.907  0.00  0.00    +0.000 C 
BRANCH  12  14
ATOM     13  N   UNL     1       0.904  11.359  20.616  0.00  0.00    +0.000 N 
ATOM     14  C   UNL     1       0.766  10.394  19.609  0.00  0.00    +0.000 C 
ATOM     15  O   UNL     1      -0.333  10.008  19.193  0.00  0.00    +0.000 OA
ATOM     16  H   UNL     1       1.730  11.952  20.611  0.00  0.00    +0.000 HD
BRANCH  13  22
ATOM     17  C   UNL     1      -0.727  13.127  21.342  0.00  0.00    +0.000 A 
ATOM     18  C   UNL     1      -1.784  13.515  22.200  0.00  0.00    +0.000 A 
ATOM     19  C   UNL     1      -2.295  12.655  23.167  0.00  0.00    +0.000 A 
ATOM     20  C   UNL     1      -1.759  11.389  23.293  0.00  0.00    +0.000 A 
ATOM     21  C   UNL     1      -0.720  10.983  22.451  0.00  0.00    +0.000 A 
ATOM     22  C   UNL     1      -0.185  11.818  21.451  0.00  0.00    +0.000 A 
BRANCH  17  24
ATOM     23  C   UNL     1      -0.820  15.297  20.354  0.00  0.00    +0.000 C 
ATOM     24  O   UNL     1      -0.216  13.994  20.396  0.00  0.00    +0.000 OA
ENDBRANCH  17  24
ENDBRANCH  13  22
ENDBRANCH  12  14
ENDBRANCH   7  12
ENDBRANCH   1  10
BRANCH   6  25
ATOM     25  N   UNL     1       4.498   4.343  18.706  0.00  0.00    +0.000 N 
ATOM     26  C   UNL     1       4.477   3.769  17.455  0.00  0.00    +0.000 C 
ATOM     27  O   UNL     1       3.611   2.977  17.076  0.00  0.00    +0.000 OA
ATOM     28  H   UNL     1       5.069   5.181  18.826  0.00  0.00    +0.000 HD
BRANCH  26  29
ATOM     29  C   UNL     1       5.489   4.244  16.481  0.00  0.00    +0.000 A 
ATOM     30  C   UNL     1       5.692   3.426  15.438  0.00  0.00    +0.000 A 
ATOM     31  C   UNL     1       6.403   3.956  14.301  0.00  0.00    +0.000 A 
ATOM     32  C   UNL     1       6.134   3.504  13.013  0.00  0.00    +0.000 A 
ATOM     33  C   UNL     1       6.746   4.129  11.933  0.00  0.00    +0.000 A 
ATOM     34  C   UNL     1       7.680   5.149  12.147  0.00  0.00    +0.000 A 
ATOM     35  C   UNL     1       7.954   5.598  13.439  0.00  0.00    +0.000 A 
ATOM     36  C   UNL     1       7.259   5.033  14.499  0.00  0.00    +0.000 A 
ATOM     37  O   UNL     1       7.314   5.669  15.747  0.00  0.00    +0.000 OA
ATOM     38  C   UNL     1       6.151   5.561  16.505  0.00  0.00    +0.000 A 
ATOM     39  O   UNL     1       5.729   6.488  17.186  0.00  0.00    +0.000 OA
ENDBRANCH  26  29
ENDBRANCH   6  25
TORSDOF 7
ENDMDL
MODEL 7
REMARK VINA RESULT:      -9.6      1.445      1.857
REMARK  Name = 
REMARK  8 active torsions:
REMARK  status: ('A' for Active; 'I' for Inactive)
REMARK    1  A    between atoms: C_1  and  O_2
REMARK    2  A    between atoms: O_2  and  C_3
REMARK    3  A    between atoms: C_8  and  N_9
REMARK    4  A    between atoms: C_10  and  C_12
REMARK    5  A    between atoms: C_12  and  N_13
REMARK    6  A    between atoms: C_16  and  C_17
REMARK    7  A    between atoms: C_22  and  N_23
REMARK    8  A    between atoms: C_24  and  C_26
REMARK                            x       y       z     vdW  Elec       q    Type
REMARK                         _______ _______ _______ _____ _____    ______ ____
ROOT
ATOM      1  C   UNL     1       1.982   4.131  18.995  0.00  0.00    +0.000 A 
ATOM      2  C   UNL     1       0.957   3.508  19.730  0.00  0.00    +0.000 A 
ATOM      3  C   UNL     1       0.850   2.113  19.773  0.00  0.00    +0.000 A 
ATOM      4  C   UNL     1       1.781   1.323  19.113  0.00  0.00    +0.000 A 
ATOM      5  C   UNL     1       2.766   1.927  18.342  0.00  0.00    +0.000 A 
ATOM      6  C   UNL     1       2.839   3.321  18.221  0.00  0.00    +0.000 A 
ENDROOT
BRANCH   1  10
ATOM      7  N   UNL     1       2.484   7.547  18.520  0.00  0.00    +0.000 N 
ATOM      8  N   UNL     1       2.629   7.530  19.863  0.00  0.00    +0.000 NA
ATOM      9  N   UNL     1       2.445   6.264  20.212  0.00  0.00    +0.000 NA
ATOM     10  C   UNL     1       2.142   5.577  19.061  0.00  0.00    +0.000 A 
ATOM     11  N   UNL     1       2.091   6.383  17.981  0.00  0.00    +0.000 NA
BRANCH   7  12
ATOM     12  C   UNL     1       2.422   8.805  17.821  0.00  0.00    +0.000 C 
BRANCH  12  14
ATOM     13  N   UNL     1       0.297   9.639  18.983  0.00  0.00    +0.000 N 
ATOM     14  C   UNL     1       1.474   9.901  18.270  0.00  0.00    +0.000 C 
ATOM     15  O   UNL     1       1.847  11.045  17.983  0.00  0.00    +0.000 OA
ATOM     16  H   UNL     1       0.256   8.806  19.565  0.00  0.00    +0.000 HD
BRANCH  13  22
ATOM     17  C   UNL     1      -0.805  11.349  20.457  0.00  0.00    +0.000 A 
ATOM     18  C   UNL     1      -1.846  12.291  20.644  0.00  0.00    +0.000 A 
ATOM     19  C   UNL     1      -2.817  12.512  19.672  0.00  0.00    +0.000 A 
ATOM     20  C   UNL     1      -2.763  11.797  18.493  0.00  0.00    +0.000 A 
ATOM     21  C   UNL     1      -1.740  10.867  18.285  0.00  0.00    +0.000 A 
ATOM     22  C   UNL     1      -0.731  10.625  19.237  0.00  0.00    +0.000 A 
BRANCH  17  24
ATOM     23  C   UNL     1      -0.290  10.339  22.556  0.00  0.00    +0.000 C 
ATOM     24  O   UNL     1       0.144  11.125  21.435  0.00  0.00    +0.000 OA
ENDBRANCH  17  24
ENDBRANCH  13  22
ENDBRANCH  12  14
ENDBRANCH   7  12
ENDBRANCH   1  10
BRANCH   6  25
ATOM     25  N   UNL     1       3.739   3.889  17.287  0.00  0.00    +0.000 N 
ATOM     26  C   UNL     1       5.067   4.112  17.576  0.00  0.00    +0.000 C 
ATOM     27  O   UNL     1       5.577   3.896  18.678  0.00  0.00    +0.000 OA
ATOM     28  H   UNL     1       3.481   3.822  16.302  0.00  0.00    +0.000 HD
BRANCH  26  29
ATOM     29  C   UNL     1       5.942   4.508  16.447  0.00  0.00    +0.000 A 
ATOM     30  C   UNL     1       6.040   3.599  15.466  0.00  0.00    +0.000 A 
ATOM     31  C   UNL     1       6.595   4.030  14.207  0.00  0.00    +0.000 A 
ATOM     32  C   UNL     1       6.185   3.455  13.008  0.00  0.00    +0.000 A 
ATOM     33  C   UNL     1       6.647   3.986  11.808  0.00  0.00    +0.000 A 
ATOM     34  C   UNL     1       7.574   5.034  11.813  0.00  0.00    +0.000 A 
ATOM     35  C   UNL     1       7.990   5.606  13.017  0.00  0.00    +0.000 A 
ATOM     36  C   UNL     1       7.442   5.133  14.200  0.00  0.00    +0.000 A 
ATOM     37  O   UNL     1       7.630   5.884  15.369  0.00  0.00    +0.000 OA
ATOM     38  C   UNL     1       6.568   5.831  16.269  0.00  0.00    +0.000 A 
ATOM     39  O   UNL     1       6.208   6.811  16.910  0.00  0.00    +0.000 OA
ENDBRANCH  26  29
ENDBRANCH   6  25
TORSDOF 7
ENDMDL
MODEL 8
REMARK VINA RESULT:      -9.6      1.124      1.156
REMARK  Name = 
REMARK  8 active torsions:
REMARK  status: ('A' for Active; 'I' for Inactive)
REMARK    1  A    between atoms: C_1  and  O_2
REMARK    2  A    between atoms: O_2  and  C_3
REMARK    3  A    between atoms: C_8  and  N_9
REMARK    4  A    between atoms: C_10  and  C_12
REMARK    5  A    between atoms: C_12  and  N_13
REMARK    6  A    between atoms: C_16  and  C_17
REMARK    7  A    between atoms: C_22  and  N_23
REMARK    8  A    between atoms: C_24  and  C_26
REMARK                            x       y       z     vdW  Elec       q    Type
REMARK                         _______ _______ _______ _____ _____    ______ ____
ROOT
ATOM      1  C   UNL     1       2.386   5.834  19.515  0.00  0.00    +0.000 A 
ATOM      2  C   UNL     1       1.279   5.538  20.333  0.00  0.00    +0.000 A 
ATOM      3  C   UNL     1       1.260   4.386  21.128  0.00  0.00    +0.000 A 
ATOM      4  C   UNL     1       2.355   3.533  21.142  0.00  0.00    +0.000 A 
ATOM      5  C   UNL     1       3.430   3.787  20.301  0.00  0.00    +0.000 A 
ATOM      6  C   UNL     1       3.432   4.891  19.438  0.00  0.00    +0.000 A 
ENDROOT
BRANCH   1  10
ATOM      7  N   UNL     1       2.154   9.084  18.278  0.00  0.00    +0.000 N 
ATOM      8  N   UNL     1       2.498   8.476  17.122  0.00  0.00    +0.000 NA
ATOM      9  N   UNL     1       2.644   7.196  17.437  0.00  0.00    +0.000 NA
ATOM     10  C   UNL     1       2.432   7.096  18.790  0.00  0.00    +0.000 A 
ATOM     11  N   UNL     1       2.188   8.293  19.361  0.00  0.00    +0.000 NA
BRANCH   7  12
ATOM     12  C   UNL     1       2.109  10.522  18.347  0.00  0.00    +0.000 C 
BRANCH  12  14
ATOM     13  N   UNL     1       0.120  10.579  19.961  0.00  0.00    +0.000 N 
ATOM     14  C   UNL     1       1.187  11.227  19.323  0.00  0.00    +0.000 C 
ATOM     15  O   UNL     1       1.477  12.411  19.533  0.00  0.00    +0.000 OA
ATOM     16  H   UNL     1       0.184   9.577  20.118  0.00  0.00    +0.000 HD
BRANCH  13  22
ATOM     17  C   UNL     1      -0.873  11.338  22.141  0.00  0.00    +0.000 A 
ATOM     18  C   UNL     1      -1.913  12.013  22.823  0.00  0.00    +0.000 A 
ATOM     19  C   UNL     1      -2.982  12.588  22.143  0.00  0.00    +0.000 A 
ATOM     20  C   UNL     1      -3.029  12.502  20.767  0.00  0.00    +0.000 A 
ATOM     21  C   UNL     1      -2.008  11.846  20.072  0.00  0.00    +0.000 A 
ATOM     22  C   UNL     1      -0.903  11.264  20.722  0.00  0.00    +0.000 A 
BRANCH  17  24
ATOM     23  C   UNL     1      -0.053   9.416  23.293  0.00  0.00    +0.000 C 
ATOM     24  O   UNL     1       0.176  10.755  22.826  0.00  0.00    +0.000 OA
ENDBRANCH  17  24
ENDBRANCH  13  22
ENDBRANCH  12  14
ENDBRANCH   7  12
ENDBRANCH   1  10
BRANCH   6  25
ATOM     25  N   UNL     1       4.460   5.014  18.472  0.00  0.00    +0.000 N 
ATOM     26  C   UNL     1       4.617   4.122  17.436  0.00  0.00    +0.000 C 
ATOM     27  O   UNL     1       3.924   3.113  17.286  0.00  0.00    +0.000 OA
ATOM     28  H   UNL     1       4.871   5.942  18.357  0.00  0.00    +0.000 HD
BRANCH  26  29
ATOM     29  C   UNL     1       5.592   4.485  16.380  0.00  0.00    +0.000 A 
ATOM     30  C   UNL     1       5.738   3.569  15.411  0.00  0.00    +0.000 A 
ATOM     31  C   UNL     1       6.405   3.976  14.199  0.00  0.00    +0.000 A 
ATOM     32  C   UNL     1       6.073   3.410  12.973  0.00  0.00    +0.000 A 
ATOM     33  C   UNL     1       6.647   3.920  11.813  0.00  0.00    +0.000 A 
ATOM     34  C   UNL     1       7.605   4.937  11.890  0.00  0.00    +0.000 A 
ATOM     35  C   UNL     1       7.942   5.501  13.122  0.00  0.00    +0.000 A 
ATOM     36  C   UNL     1       7.286   5.051  14.258  0.00  0.00    +0.000 A 
ATOM     37  O   UNL     1       7.405   5.800  15.438  0.00  0.00    +0.000 OA
ATOM     38  C   UNL     1       6.273   5.785  16.251  0.00  0.00    +0.000 A 
ATOM     39  O   UNL     1       5.896   6.780  16.859  0.00  0.00    +0.000 OA
ENDBRANCH  26  29
ENDBRANCH   6  25
TORSDOF 7
ENDMDL
MODEL 9
REMARK VINA RESULT:      -9.5      2.100      2.461
REMARK  Name = 
REMARK  8 active torsions:
REMARK  status: ('A' for Active; 'I' for Inactive)
REMARK    1  A    between atoms: C_1  and  O_2
REMARK    2  A    between atoms: O_2  and  C_3
REMARK    3  A    between atoms: C_8  and  N_9
REMARK    4  A    between atoms: C_10  and  C_12
REMARK    5  A    between atoms: C_12  and  N_13
REMARK    6  A    between atoms: C_16  and  C_17
REMARK    7  A    between atoms: C_22  and  N_23
REMARK    8  A    between atoms: C_24  and  C_26
REMARK                            x       y       z     vdW  Elec       q    Type
REMARK                         _______ _______ _______ _____ _____    ______ ____
ROOT
ATOM      1  C   UNL     1       2.025   4.502  19.569  0.00  0.00    +0.000 A 
ATOM      2  C   UNL     1       1.063   3.912  20.410  0.00  0.00    +0.000 A 
ATOM      3  C   UNL     1       1.102   2.542  20.694  0.00  0.00    +0.000 A 
ATOM      4  C   UNL     1       2.115   1.751  20.172  0.00  0.00    +0.000 A 
ATOM      5  C   UNL     1       3.039   2.312  19.300  0.00  0.00    +0.000 A 
ATOM      6  C   UNL     1       2.968   3.663  18.939  0.00  0.00    +0.000 A 
ENDROOT
BRANCH   1  10
ATOM      7  N   UNL     1       2.294   7.822  18.543  0.00  0.00    +0.000 N 
ATOM      8  N   UNL     1       2.166   8.054  19.868  0.00  0.00    +0.000 NA
ATOM      9  N   UNL     1       2.034   6.853  20.415  0.00  0.00    +0.000 NA
ATOM     10  C   UNL     1       2.034   5.946  19.383  0.00  0.00    +0.000 A 
ATOM     11  N   UNL     1       2.127   6.542  18.177  0.00  0.00    +0.000 NA
BRANCH   7  12
ATOM     12  C   UNL     1       2.258   8.923  17.616  0.00  0.00    +0.000 C 
BRANCH  12  14
ATOM     13  N   UNL     1       1.151  10.666  19.132  0.00  0.00    +0.000 N 
ATOM     14  C   UNL     1       2.043  10.344  18.100  0.00  0.00    +0.000 C 
ATOM     15  O   UNL     1       2.746  11.188  17.531  0.00  0.00    +0.000 OA
ATOM     16  H   UNL     1       0.953   9.963  19.840  0.00  0.00    +0.000 HD
BRANCH  13  22
ATOM     17  C   UNL     1      -0.353  12.661  18.867  0.00  0.00    +0.000 A 
ATOM     18  C   UNL     1      -0.671  13.990  19.236  0.00  0.00    +0.000 A 
ATOM     19  C   UNL     1       0.092  14.697  20.161  0.00  0.00    +0.000 A 
ATOM     20  C   UNL     1       1.188  14.085  20.736  0.00  0.00    +0.000 A 
ATOM     21  C   UNL     1       1.516  12.771  20.391  0.00  0.00    +0.000 A 
ATOM     22  C   UNL     1       0.761  12.018  19.471  0.00  0.00    +0.000 A 
BRANCH  17  24
ATOM     23  C   UNL     1      -2.372  11.479  18.401  0.00  0.00    +0.000 C 
ATOM     24  O   UNL     1      -1.107  11.975  17.935  0.00  0.00    +0.000 OA
ENDBRANCH  17  24
ENDBRANCH  13  22
ENDBRANCH  12  14
ENDBRANCH   7  12
ENDBRANCH   1  10
BRANCH   6  25
ATOM     25  N   UNL     1       3.814   4.152  17.913  0.00  0.00    +0.000 N 
ATOM     26  C   UNL     1       5.165   4.344  18.093  0.00  0.00    +0.000 C 
ATOM     27  O   UNL     1       5.748   4.169  19.165  0.00  0.00    +0.000 OA
ATOM     28  H   UNL     1       3.481   4.043  16.954  0.00  0.00    +0.000 HD
BRANCH  26  29
ATOM     29  C   UNL     1       5.966   4.653  16.884  0.00  0.00    +0.000 A 
ATOM     30  C   UNL     1       5.997   3.674  15.967  0.00  0.00    +0.000 A 
ATOM     31  C   UNL     1       6.470   4.010  14.646  0.00  0.00    +0.000 A 
ATOM     32  C   UNL     1       5.981   3.353  13.521  0.00  0.00    +0.000 A 
ATOM     33  C   UNL     1       6.366   3.793  12.259  0.00  0.00    +0.000 A 
ATOM     34  C   UNL     1       7.293   4.832  12.128  0.00  0.00    +0.000 A 
ATOM     35  C   UNL     1       7.788   5.487  13.257  0.00  0.00    +0.000 A 
ATOM     36  C   UNL     1       7.317   5.104  14.505  0.00  0.00    +0.000 A 
ATOM     37  O   UNL     1       7.582   5.936  15.602  0.00  0.00    +0.000 OA
ATOM     38  C   UNL     1       6.582   5.955  16.571  0.00  0.00    +0.000 A 
ATOM     39  O   UNL     1       6.266   6.981  17.161  0.00  0.00    +0.000 OA
ENDBRANCH  26  29
ENDBRANCH   6  25
TORSDOF 7
ENDMDL
