MODEL 1
REMARK VINA RESULT:      -7.2      0.000      0.000
REMARK  Name = 
REMARK  5 active torsions:
REMARK  status: ('A' for Active; 'I' for Inactive)
REMARK    1  A    between atoms: C_1  and  O_2
REMARK    2  A    between atoms: O_2  and  C_3
REMARK    3  A    between atoms: C_6  and  C_7
REMARK    4  A    between atoms: C_9  and  N_10
REMARK    5  A    between atoms: C_11  and  C_13
REMARK                            x       y       z     vdW  Elec       q    Type
REMARK                         _______ _______ _______ _____ _____    ______ ____
ROOT
ATOM      1  N   UNL     1       3.556   4.317  17.258  0.00  0.00    +0.000 N 
ATOM      2  C   UNL     1       4.948   4.345  17.229  0.00  0.00    +0.000 C 
ATOM      3  O   UNL     1       5.641   4.263  18.240  0.00  0.00    +0.000 OA
ATOM      4  H   UNL     1       3.061   4.168  16.385  0.00  0.00    +0.000 HD
ENDROOT
BRANCH   2   5
ATOM      5  C   UNL     1       5.602   4.452  15.926  0.00  0.00    +0.000 A 
ATOM      6  C   UNL     1       5.235   3.719  14.795  0.00  0.00    +0.000 A 
ATOM      7  C   UNL     1       6.083   3.979  13.707  0.00  0.00    +0.000 A 
ATOM      8  C   UNL     1       7.047   4.892  14.021  0.00  0.00    +0.000 A 
ATOM      9  S   UNL     1       6.960   5.467  15.596  0.00  0.00    +0.000 S 
ATOM     10  C   UNL     1       7.992   5.175  12.918  0.00  0.00    +0.000 C 
ATOM     11  C   UNL     1       7.424   4.288  11.761  0.00  0.00    +0.000 C 
ATOM     12  C   UNL     1       6.204   3.488  12.315  0.00  0.00    +0.000 C 
ENDBRANCH   2   5
BRANCH   1  19
ATOM     13  C   UNL     1       2.211   3.114  18.921  0.00  0.00    +0.000 A 
ATOM     14  C   UNL     1       1.482   3.117  20.123  0.00  0.00    +0.000 A 
ATOM     15  C   UNL     1       1.229   4.305  20.808  0.00  0.00    +0.000 A 
ATOM     16  C   UNL     1       1.700   5.512  20.303  0.00  0.00    +0.000 A 
ATOM     17  C   UNL     1       1.418   6.811  20.996  0.00  0.00    +0.000 C 
ATOM     18  C   UNL     1       2.457   5.508  19.123  0.00  0.00    +0.000 A 
ATOM     19  C   UNL     1       2.753   4.321  18.435  0.00  0.00    +0.000 A 
BRANCH  13  21
ATOM     20  C   UNL     1       3.617   1.237  18.565  0.00  0.00    +0.000 C 
ATOM     21  O   UNL     1       2.451   1.972  18.189  0.00  0.00    +0.000 OA
ENDBRANCH  13  21
ENDBRANCH   1  19
TORSDOF 3
ENDMDL
MODEL 2
REMARK VINA RESULT:      -7.2      3.524      7.974
REMARK  Name = 
REMARK  5 active torsions:
REMARK  status: ('A' for Active; 'I' for Inactive)
REMARK    1  A    between atoms: C_1  and  O_2
REMARK    2  A    between atoms: O_2  and  C_3
REMARK    3  A    between atoms: C_6  and  C_7
REMARK    4  A    between atoms: C_9  and  N_10
REMARK    5  A    between atoms: C_11  and  C_13
REMARK                            x       y       z     vdW  Elec       q    Type
REMARK                         _______ _______ _______ _____ _____    ______ ____
ROOT
ATOM      1  N   UNL     1       2.677   6.556  19.249  0.00  0.00    +0.000 N 
ATOM      2  C   UNL     1       2.260   7.818  18.836  0.00  0.00    +0.000 C 
ATOM      3  O   UNL     1       2.485   8.263  17.713  0.00  0.00    +0.000 OA
ATOM      4  H   UNL     1       2.272   6.172  20.097  0.00  0.00    +0.000 HD
ENDROOT
BRANCH   2   5
ATOM      5  C   UNL     1       1.500   8.632  19.782  0.00  0.00    +0.000 A 
ATOM      6  C   UNL     1       1.309   8.308  21.128  0.00  0.00    +0.000 A 
ATOM      7  C   UNL     1       0.481   9.238  21.777  0.00  0.00    +0.000 A 
ATOM      8  C   UNL     1       0.078  10.232  20.935  0.00  0.00    +0.000 A 
ATOM      9  S   UNL     1       0.679  10.096  19.373  0.00  0.00    +0.000 S 
ATOM     10  C   UNL     1      -0.829  11.221  21.561  0.00  0.00    +0.000 C 
ATOM     11  C   UNL     1      -0.912  10.705  23.035  0.00  0.00    +0.000 C 
ATOM     12  C   UNL     1      -0.082   9.388  23.138  0.00  0.00    +0.000 C 
ENDBRANCH   2   5
BRANCH   1  19
ATOM     13  C   UNL     1       2.939   4.600  17.790  0.00  0.00    +0.000 A 
ATOM     14  C   UNL     1       3.761   3.780  16.997  0.00  0.00    +0.000 A 
ATOM     15  C   UNL     1       5.142   3.969  16.957  0.00  0.00    +0.000 A 
ATOM     16  C   UNL     1       5.726   4.983  17.710  0.00  0.00    +0.000 A 
ATOM     17  C   UNL     1       7.210   5.193  17.717  0.00  0.00    +0.000 C 
ATOM     18  C   UNL     1       4.905   5.824  18.474  0.00  0.00    +0.000 A 
ATOM     19  C   UNL     1       3.511   5.674  18.503  0.00  0.00    +0.000 A 
BRANCH  13  21
ATOM     20  C   UNL     1       1.159   3.225  18.546  0.00  0.00    +0.000 C 
ATOM     21  O   UNL     1       1.576   4.427  17.893  0.00  0.00    +0.000 OA
ENDBRANCH  13  21
ENDBRANCH   1  19
TORSDOF 3
ENDMDL
MODEL 3
REMARK VINA RESULT:      -7.1      1.232      2.502
REMARK  Name = 
REMARK  5 active torsions:
REMARK  status: ('A' for Active; 'I' for Inactive)
REMARK    1  A    between atoms: C_1  and  O_2
REMARK    2  A    between atoms: O_2  and  C_3
REMARK    3  A    between atoms: C_6  and  C_7
REMARK    4  A    between atoms: C_9  and  N_10
REMARK    5  A    between atoms: C_11  and  C_13
REMARK                            x       y       z     vdW  Elec       q    Type
REMARK                         _______ _______ _______ _____ _____    ______ ____
ROOT
ATOM      1  N   UNL     1       3.730   4.723  17.427  0.00  0.00    +0.000 N 
ATOM      2  C   UNL     1       5.106   4.549  17.314  0.00  0.00    +0.000 C 
ATOM      3  O   UNL     1       5.839   4.361  18.282  0.00  0.00    +0.000 OA
ATOM      4  H   UNL     1       3.167   4.653  16.585  0.00  0.00    +0.000 HD
ENDROOT
BRANCH   2   5
ATOM      5  C   UNL     1       5.690   4.568  15.974  0.00  0.00    +0.000 A 
ATOM      6  C   UNL     1       5.235   3.795  14.902  0.00  0.00    +0.000 A 
ATOM      7  C   UNL     1       6.029   3.970  13.758  0.00  0.00    +0.000 A 
ATOM      8  C   UNL     1       7.040   4.860  13.973  0.00  0.00    +0.000 A 
ATOM      9  S   UNL     1       7.062   5.514  15.519  0.00  0.00    +0.000 S 
ATOM     10  C   UNL     1       7.931   5.053  12.807  0.00  0.00    +0.000 C 
ATOM     11  C   UNL     1       7.268   4.132  11.730  0.00  0.00    +0.000 C 
ATOM     12  C   UNL     1       6.055   3.407  12.389  0.00  0.00    +0.000 C 
ENDBRANCH   2   5
BRANCH   1  19
ATOM     13  C   UNL     1       2.609   6.107  19.116  0.00  0.00    +0.000 A 
ATOM     14  C   UNL     1       1.834   6.202  20.285  0.00  0.00    +0.000 A 
ATOM     15  C   UNL     1       1.510   5.068  21.029  0.00  0.00    +0.000 A 
ATOM     16  C   UNL     1       1.955   3.817  20.616  0.00  0.00    +0.000 A 
ATOM     17  C   UNL     1       1.653   2.581  21.409  0.00  0.00    +0.000 C 
ATOM     18  C   UNL     1       2.698   3.714  19.433  0.00  0.00    +0.000 A 
ATOM     19  C   UNL     1       3.008   4.837  18.650  0.00  0.00    +0.000 A 
BRANCH  13  21
ATOM     20  C   UNL     1       2.120   8.333  18.458  0.00  0.00    +0.000 C 
ATOM     21  O   UNL     1       2.989   7.202  18.372  0.00  0.00    +0.000 OA
ENDBRANCH  13  21
ENDBRANCH   1  19
TORSDOF 3
ENDMDL
MODEL 4
REMARK VINA RESULT:      -6.9      2.936      7.609
REMARK  Name = 
REMARK  5 active torsions:
REMARK  status: ('A' for Active; 'I' for Inactive)
REMARK    1  A    between atoms: C_1  and  O_2
REMARK    2  A    between atoms: O_2  and  C_3
REMARK    3  A    between atoms: C_6  and  C_7
REMARK    4  A    between atoms: C_9  and  N_10
REMARK    5  A    between atoms: C_11  and  C_13
REMARK                            x       y       z     vdW  Elec       q    Type
REMARK                         _______ _______ _______ _____ _____    ______ ____
ROOT
ATOM      1  N   UNL     1       4.428   6.843  17.704  0.00  0.00    +0.000 N 
ATOM      2  C   UNL     1       3.210   6.514  18.292  0.00  0.00    +0.000 C 
ATOM      3  O   UNL     1       2.805   5.358  18.390  0.00  0.00    +0.000 OA
ATOM      4  H   UNL     1       4.795   7.778  17.853  0.00  0.00    +0.000 HD
ENDROOT
BRANCH   2   5
ATOM      5  C   UNL     1       2.397   7.600  18.835  0.00  0.00    +0.000 A 
ATOM      6  C   UNL     1       1.899   7.638  20.140  0.00  0.00    +0.000 A 
ATOM      7  C   UNL     1       1.096   8.768  20.360  0.00  0.00    +0.000 A 
ATOM      8  C   UNL     1       1.012   9.555  19.249  0.00  0.00    +0.000 A 
ATOM      9  S   UNL     1       1.888   8.985  17.936  0.00  0.00    +0.000 S 
ATOM     10  C   UNL     1       0.146  10.744  19.416  0.00  0.00    +0.000 C 
ATOM     11  C   UNL     1      -0.301  10.618  20.909  0.00  0.00    +0.000 C 
ATOM     12  C   UNL     1       0.299   9.300  21.489  0.00  0.00    +0.000 C 
ENDBRANCH   2   5
BRANCH   1  19
ATOM     13  C   UNL     1       6.417   5.405  17.708  0.00  0.00    +0.000 A 
ATOM     14  C   UNL     1       7.226   4.453  17.064  0.00  0.00    +0.000 A 
ATOM     15  C   UNL     1       6.978   4.071  15.747  0.00  0.00    +0.000 A 
ATOM     16  C   UNL     1       5.916   4.636  15.048  0.00  0.00    +0.000 A 
ATOM     17  C   UNL     1       5.641   4.273  13.620  0.00  0.00    +0.000 C 
ATOM     18  C   UNL     1       5.087   5.560  15.698  0.00  0.00    +0.000 A 
ATOM     19  C   UNL     1       5.297   5.934  17.035  0.00  0.00    +0.000 A 
BRANCH  13  21
ATOM     20  C   UNL     1       8.019   5.884  19.392  0.00  0.00    +0.000 C 
ATOM     21  O   UNL     1       6.647   5.844  18.994  0.00  0.00    +0.000 OA
ENDBRANCH  13  21
ENDBRANCH   1  19
TORSDOF 3
ENDMDL
MODEL 5
REMARK VINA RESULT:      -6.9      4.009      8.122
REMARK  Name = 
REMARK  5 active torsions:
REMARK  status: ('A' for Active; 'I' for Inactive)
REMARK    1  A    between atoms: C_1  and  O_2
REMARK    2  A    between atoms: O_2  and  C_3
REMARK    3  A    between atoms: C_6  and  C_7
REMARK    4  A    between atoms: C_9  and  N_10
REMARK    5  A    between atoms: C_11  and  C_13
REMARK                            x       y       z     vdW  Elec       q    Type
REMARK                         _______ _______ _______ _____ _____    ______ ____
ROOT
ATOM      1  N   UNL     1       2.345   6.459  20.444  0.00  0.00    +0.000 N 
ATOM      2  C   UNL     1       2.022   7.585  19.692  0.00  0.00    +0.000 C 
ATOM      3  O   UNL     1       2.325   7.709  18.508  0.00  0.00    +0.000 OA
ATOM      4  H   UNL     1       1.879   6.329  21.336  0.00  0.00    +0.000 HD
ENDROOT
BRANCH   2   5
ATOM      5  C   UNL     1       1.266   8.650  20.347  0.00  0.00    +0.000 A 
ATOM      6  C   UNL     1       0.852   8.621  21.681  0.00  0.00    +0.000 A 
ATOM      7  C   UNL     1       0.086   9.749  22.015  0.00  0.00    +0.000 A 
ATOM      8  C   UNL     1      -0.053  10.600  20.958  0.00  0.00    +0.000 A 
ATOM      9  S   UNL     1       0.727  10.092  19.561  0.00  0.00    +0.000 S 
ATOM     10  C   UNL     1      -0.884  11.790  21.247  0.00  0.00    +0.000 C 
ATOM     11  C   UNL     1      -1.238  11.586  22.757  0.00  0.00    +0.000 C 
ATOM     12  C   UNL     1      -0.628  10.228  23.221  0.00  0.00    +0.000 C 
ENDBRANCH   2   5
BRANCH   1  19
ATOM     13  C   UNL     1       2.747   4.047  20.229  0.00  0.00    +0.000 A 
ATOM     14  C   UNL     1       3.522   2.987  19.727  0.00  0.00    +0.000 A 
ATOM     15  C   UNL     1       4.727   3.226  19.068  0.00  0.00    +0.000 A 
ATOM     16  C   UNL     1       5.180   4.530  18.900  0.00  0.00    +0.000 A 
ATOM     17  C   UNL     1       6.488   4.821  18.227  0.00  0.00    +0.000 C 
ATOM     18  C   UNL     1       4.393   5.591  19.369  0.00  0.00    +0.000 A 
ATOM     19  C   UNL     1       3.160   5.377  20.004  0.00  0.00    +0.000 A 
BRANCH  13  21
ATOM     20  C   UNL     1       1.414   2.573  21.524  0.00  0.00    +0.000 C 
ATOM     21  O   UNL     1       1.571   3.859  20.921  0.00  0.00    +0.000 OA
ENDBRANCH  13  21
ENDBRANCH   1  19
TORSDOF 3
ENDMDL
MODEL 6
REMARK VINA RESULT:      -6.8      3.171      7.493
REMARK  Name = 
REMARK  5 active torsions:
REMARK  status: ('A' for Active; 'I' for Inactive)
REMARK    1  A    between atoms: C_1  and  O_2
REMARK    2  A    between atoms: O_2  and  C_3
REMARK    3  A    between atoms: C_6  and  C_7
REMARK    4  A    between atoms: C_9  and  N_10
REMARK    5  A    between atoms: C_11  and  C_13
REMARK                            x       y       z     vdW  Elec       q    Type
REMARK                         _______ _______ _______ _____ _____    ______ ____
ROOT
ATOM      1  N   UNL     1       4.405   6.823  17.555  0.00  0.00    +0.000 N 
ATOM      2  C   UNL     1       3.204   6.469  18.164  0.00  0.00    +0.000 C 
ATOM      3  O   UNL     1       2.846   5.303  18.312  0.00  0.00    +0.000 OA
ATOM      4  H   UNL     1       4.735   7.776  17.664  0.00  0.00    +0.000 HD
ENDROOT
BRANCH   2   5
ATOM      5  C   UNL     1       2.352   7.544  18.669  0.00  0.00    +0.000 A 
ATOM      6  C   UNL     1       1.904   8.623  17.904  0.00  0.00    +0.000 A 
ATOM      7  C   UNL     1       1.158   9.533  18.671  0.00  0.00    +0.000 A 
ATOM      8  C   UNL     1       1.046   9.130  19.969  0.00  0.00    +0.000 A 
ATOM      9  S   UNL     1       1.804   7.670  20.303  0.00  0.00    +0.000 S 
ATOM     10  C   UNL     1       0.299  10.074  20.830  0.00  0.00    +0.000 C 
ATOM     11  C   UNL     1      -0.119  11.187  19.814  0.00  0.00    +0.000 C 
ATOM     12  C   UNL     1       0.489  10.830  18.423  0.00  0.00    +0.000 C 
ENDBRANCH   2   5
BRANCH   1  19
ATOM     13  C   UNL     1       6.425   5.429  17.619  0.00  0.00    +0.000 A 
ATOM     14  C   UNL     1       7.266   4.485  17.005  0.00  0.00    +0.000 A 
ATOM     15  C   UNL     1       7.050   4.076  15.690  0.00  0.00    +0.000 A 
ATOM     16  C   UNL     1       5.989   4.605  14.963  0.00  0.00    +0.000 A 
ATOM     17  C   UNL     1       5.748   4.213  13.536  0.00  0.00    +0.000 C 
ATOM     18  C   UNL     1       5.129   5.521  15.583  0.00  0.00    +0.000 A 
ATOM     19  C   UNL     1       5.305   5.921  16.916  0.00  0.00    +0.000 A 
BRANCH  13  21
ATOM     20  C   UNL     1       7.974   5.869  19.360  0.00  0.00    +0.000 C 
ATOM     21  O   UNL     1       6.622   5.894  18.900  0.00  0.00    +0.000 OA
ENDBRANCH  13  21
ENDBRANCH   1  19
TORSDOF 3
ENDMDL
MODEL 7
REMARK VINA RESULT:      -6.8      3.646      8.022
REMARK  Name = 
REMARK  5 active torsions:
REMARK  status: ('A' for Active; 'I' for Inactive)
REMARK    1  A    between atoms: C_1  and  O_2
REMARK    2  A    between atoms: O_2  and  C_3
REMARK    3  A    between atoms: C_6  and  C_7
REMARK    4  A    between atoms: C_9  and  N_10
REMARK    5  A    between atoms: C_11  and  C_13
REMARK                            x       y       z     vdW  Elec       q    Type
REMARK                         _______ _______ _______ _____ _____    ______ ____
ROOT
ATOM      1  N   UNL     1       2.567   6.780  18.916  0.00  0.00    +0.000 N 
ATOM      2  C   UNL     1       2.137   8.059  18.575  0.00  0.00    +0.000 C 
ATOM      3  O   UNL     1       2.370   8.575  17.484  0.00  0.00    +0.000 OA
ATOM      4  H   UNL     1       2.158   6.339  19.733  0.00  0.00    +0.000 HD
ENDROOT
BRANCH   2   5
ATOM      5  C   UNL     1       1.352   8.801  19.559  0.00  0.00    +0.000 A 
ATOM      6  C   UNL     1       0.712  10.017  19.305  0.00  0.00    +0.000 A 
ATOM      7  C   UNL     1       0.091  10.531  20.455  0.00  0.00    +0.000 A 
ATOM      8  C   UNL     1       0.256   9.709  21.531  0.00  0.00    +0.000 A 
ATOM      9  S   UNL     1       1.131   8.314  21.202  0.00  0.00    +0.000 S 
ATOM     10  C   UNL     1      -0.350  10.222  22.780  0.00  0.00    +0.000 C 
ATOM     11  C   UNL     1      -1.011  11.556  22.301  0.00  0.00    +0.000 C 
ATOM     12  C   UNL     1      -0.673  11.753  20.791  0.00  0.00    +0.000 C 
ENDBRANCH   2   5
BRANCH   1  19
ATOM     13  C   UNL     1       2.959   4.717  17.646  0.00  0.00    +0.000 A 
ATOM     14  C   UNL     1       3.786   3.946  16.809  0.00  0.00    +0.000 A 
ATOM     15  C   UNL     1       5.083   4.357  16.503  0.00  0.00    +0.000 A 
ATOM     16  C   UNL     1       5.577   5.546  17.028  0.00  0.00    +0.000 A 
ATOM     17  C   UNL     1       6.977   6.001  16.747  0.00  0.00    +0.000 C 
ATOM     18  C   UNL     1       4.743   6.333  17.835  0.00  0.00    +0.000 A 
ATOM     19  C   UNL     1       3.424   5.958  18.129  0.00  0.00    +0.000 A 
BRANCH  13  21
ATOM     20  C   UNL     1       1.564   2.989  18.480  0.00  0.00    +0.000 C 
ATOM     21  O   UNL     1       1.687   4.333  18.010  0.00  0.00    +0.000 OA
ENDBRANCH  13  21
ENDBRANCH   1  19
TORSDOF 3
ENDMDL
MODEL 8
REMARK VINA RESULT:      -6.6      3.262      7.823
REMARK  Name = 
REMARK  5 active torsions:
REMARK  status: ('A' for Active; 'I' for Inactive)
REMARK    1  A    between atoms: C_1  and  O_2
REMARK    2  A    between atoms: O_2  and  C_3
REMARK    3  A    between atoms: C_6  and  C_7
REMARK    4  A    between atoms: C_9  and  N_10
REMARK    5  A    between atoms: C_11  and  C_13
REMARK                            x       y       z     vdW  Elec       q    Type
REMARK                         _______ _______ _______ _____ _____    ______ ____
ROOT
ATOM      1  N   UNL     1       1.924   5.973  19.507  0.00  0.00    +0.000 N 
ATOM      2  C   UNL     1       2.188   7.312  19.234  0.00  0.00    +0.000 C 
ATOM      3  O   UNL     1       2.957   7.676  18.348  0.00  0.00    +0.000 OA
ATOM      4  H   UNL     1       1.125   5.752  20.093  0.00  0.00    +0.000 HD
ENDROOT
BRANCH   2   5
ATOM      5  C   UNL     1       1.492   8.322  20.029  0.00  0.00    +0.000 A 
ATOM      6  C   UNL     1       1.166   8.178  21.380  0.00  0.00    +0.000 A 
ATOM      7  C   UNL     1       0.439   9.279  21.862  0.00  0.00    +0.000 A 
ATOM      8  C   UNL     1       0.244  10.221  20.895  0.00  0.00    +0.000 A 
ATOM      9  S   UNL     1       0.923   9.832  19.410  0.00  0.00    +0.000 S 
ATOM     10  C   UNL     1      -0.549  11.387  21.343  0.00  0.00    +0.000 C 
ATOM     11  C   UNL     1      -0.806  11.054  22.849  0.00  0.00    +0.000 C 
ATOM     12  C   UNL     1      -0.186   9.655  23.150  0.00  0.00    +0.000 C 
ENDBRANCH   2   5
BRANCH   1  19
ATOM     13  C   UNL     1       2.280   3.551  19.332  0.00  0.00    +0.000 A 
ATOM     14  C   UNL     1       2.881   2.458  18.685  0.00  0.00    +0.000 A 
ATOM     15  C   UNL     1       3.824   2.648  17.675  0.00  0.00    +0.000 A 
ATOM     16  C   UNL     1       4.183   3.937  17.295  0.00  0.00    +0.000 A 
ATOM     17  C   UNL     1       5.218   4.178  16.238  0.00  0.00    +0.000 C 
ATOM     18  C   UNL     1       3.560   5.029  17.914  0.00  0.00    +0.000 A 
ATOM     19  C   UNL     1       2.584   4.861  18.908  0.00  0.00    +0.000 A 
BRANCH  13  21
ATOM     20  C   UNL     1       1.910   2.901  21.583  0.00  0.00    +0.000 C 
ATOM     21  O   UNL     1       1.375   3.413  20.361  0.00  0.00    +0.000 OA
ENDBRANCH  13  21
ENDBRANCH   1  19
TORSDOF 3
ENDMDL
MODEL 9
REMARK VINA RESULT:      -6.6      4.107      8.494
REMARK  Name = 
REMARK  5 active torsions:
REMARK  status: ('A' for Active; 'I' for Inactive)
REMARK    1  A    between atoms: C_1  and  O_2
REMARK    2  A    between atoms: O_2  and  C_3
REMARK    3  A    between atoms: C_6  and  C_7
REMARK    4  A    between atoms: C_9  and  N_10
REMARK    5  A    between atoms: C_11  and  C_13
REMARK                            x       y       z     vdW  Elec       q    Type
REMARK                         _______ _______ _______ _____ _____    ______ ____
ROOT
ATOM      1  N   UNL     1       2.156   7.484  19.585  0.00  0.00    +0.000 N 
ATOM      2  C   UNL     1       1.556   8.613  19.035  0.00  0.00    +0.000 C 
ATOM      3  O   UNL     1       1.492   8.815  17.824  0.00  0.00    +0.000 OA
ATOM      4  H   UNL     1       1.981   7.276  20.562  0.00  0.00    +0.000 HD
ENDROOT
BRANCH   2   5
ATOM      5  C   UNL     1       0.956   9.582  19.949  0.00  0.00    +0.000 A 
ATOM      6  C   UNL     1       0.332   9.251  21.154  0.00  0.00    +0.000 A 
ATOM      7  C   UNL     1      -0.212  10.379  21.789  0.00  0.00    +0.000 A 
ATOM      8  C   UNL     1       0.017  11.521  21.077  0.00  0.00    +0.000 A 
ATOM      9  S   UNL     1       0.885  11.284  19.660  0.00  0.00    +0.000 S 
ATOM     10  C   UNL     1      -0.568  12.737  21.686  0.00  0.00    +0.000 C 
ATOM     11  C   UNL     1      -1.202  12.176  23.001  0.00  0.00    +0.000 C 
ATOM     12  C   UNL     1      -0.991  10.631  23.023  0.00  0.00    +0.000 C 
ENDBRANCH   2   5
BRANCH   1  19
ATOM     13  C   UNL     1       2.768   5.135  19.222  0.00  0.00    +0.000 A 
ATOM     14  C   UNL     1       3.425   4.158  18.453  0.00  0.00    +0.000 A 
ATOM     15  C   UNL     1       4.236   4.514  17.377  0.00  0.00    +0.000 A 
ATOM     16  C   UNL     1       4.407   5.855  17.049  0.00  0.00    +0.000 A 
ATOM     17  C   UNL     1       5.298   6.275  15.920  0.00  0.00    +0.000 C 
ATOM     18  C   UNL     1       3.726   6.830  17.792  0.00  0.00    +0.000 A 
ATOM     19  C   UNL     1       2.877   6.493  18.858  0.00  0.00    +0.000 A 
BRANCH  13  21
ATOM     20  C   UNL     1       0.965   3.864  20.094  0.00  0.00    +0.000 C 
ATOM     21  O   UNL     1       1.990   4.835  20.318  0.00  0.00    +0.000 OA
ENDBRANCH  13  21
ENDBRANCH   1  19
TORSDOF 3
ENDMDL
