MODEL 1
REMARK VINA RESULT:      -6.3      0.000      0.000
REMARK  Name = 
REMARK  6 active torsions:
REMARK  status: ('A' for Active; 'I' for Inactive)
REMARK    1  A    between atoms: C_1  and  C_2
REMARK    2  A    between atoms: CA_3  and  N_4
REMARK    3  A    between atoms: CA_3  and  C_12
REMARK    4  A    between atoms: C_5  and  C_7
REMARK    5  A    between atoms: C_10  and  C_11
REMARK    6  A    between atoms: C_12  and  OXT_14
REMARK                            x       y       z     vdW  Elec       q    Type
REMARK                         _______ _______ _______ _____ _____    ______ ____
ROOT
ATOM      1  N   UNL     1       4.780   5.072  19.083  0.00  0.00    +0.000 N 
ATOM      2  C   UNL     1       4.152   4.003  19.707  0.00  0.00    +0.000 C 
ATOM      3  O   UNL     1       4.667   2.891  19.834  0.00  0.00    +0.000 OA
ATOM      4  H   UNL     1       4.352   5.984  19.212  0.00  0.00    +0.000 HD
ENDROOT
BRANCH   2   5
ATOM      5  C   UNL     1       2.767   4.386  20.327  0.00  0.00    +0.000 C 
ATOM      6  C   UNL     1       2.175   3.427  21.394  0.00  0.00    +0.000 C 
ATOM      7  C   UNL     1       1.227   2.864  20.324  0.00  0.00    +0.000 C 
ATOM      8  C   UNL     1       1.477   4.138  19.487  0.00  0.00    +0.000 C 
ATOM      9  C   UNL     1       1.621   3.943  17.991  0.00  0.00    +0.000 C 
ENDBRANCH   2   5
BRANCH   1  12
ATOM     10  C   UNL     1       5.224   4.305  16.046  0.00  0.00    +0.000 C 
ATOM     11  C   UNL     1       6.197   4.695  17.109  0.00  0.00    +0.000 C 
ATOM     12  CA  UNL     1       5.973   5.078  18.377  0.00  0.00    +0.000 C 
BRANCH  12  13
ATOM     13  C   UNL     1       7.172   5.651  19.090  0.00  0.00    +0.000 C 
ATOM     14  O   UNL     1       7.545   5.350  20.208  0.00  0.00    +0.000 OA
BRANCH  13  15
ATOM     15  OXT UNL     1       7.824   6.540  18.301  0.00  0.00    +0.000 OA
ATOM     16  HXT UNL     1       8.764   6.300  18.195  0.00  0.00    +0.000 HD
ENDBRANCH  13  15
ENDBRANCH  12  13
ENDBRANCH   1  12
TORSDOF 4
ENDMDL
MODEL 2
REMARK VINA RESULT:      -6.1      1.942      2.615
REMARK  Name = 
REMARK  6 active torsions:
REMARK  status: ('A' for Active; 'I' for Inactive)
REMARK    1  A    between atoms: C_1  and  C_2
REMARK    2  A    between atoms: CA_3  and  N_4
REMARK    3  A    between atoms: CA_3  and  C_12
REMARK    4  A    between atoms: C_5  and  C_7
REMARK    5  A    between atoms: C_10  and  C_11
REMARK    6  A    between atoms: C_12  and  OXT_14
REMARK                            x       y       z     vdW  Elec       q    Type
REMARK                         _______ _______ _______ _____ _____    ______ ____
ROOT
ATOM      1  N   UNL     1       5.120   3.529  16.677  0.00  0.00    +0.000 N 
ATOM      2  C   UNL     1       3.982   4.086  17.244  0.00  0.00    +0.000 C 
ATOM      3  O   UNL     1       3.787   5.300  17.329  0.00  0.00    +0.000 OA
ATOM      4  H   UNL     1       5.084   2.533  16.479  0.00  0.00    +0.000 HD
ENDROOT
BRANCH   2   5
ATOM      5  C   UNL     1       2.923   3.014  17.667  0.00  0.00    +0.000 C 
ATOM      6  C   UNL     1       1.503   3.521  18.033  0.00  0.00    +0.000 C 
ATOM      7  C   UNL     1       1.855   3.356  19.519  0.00  0.00    +0.000 C 
ATOM      8  C   UNL     1       3.003   2.409  19.102  0.00  0.00    +0.000 C 
ATOM      9  C   UNL     1       4.303   2.550  19.869  0.00  0.00    +0.000 C 
ENDBRANCH   2   5
BRANCH   1  12
ATOM     10  C   UNL     1       6.101   3.967  13.701  0.00  0.00    +0.000 C 
ATOM     11  C   UNL     1       6.744   4.310  15.005  0.00  0.00    +0.000 C 
ATOM     12  CA  UNL     1       6.274   4.170  16.256  0.00  0.00    +0.000 C 
BRANCH  12  13
ATOM     13  C   UNL     1       7.086   4.863  17.321  0.00  0.00    +0.000 C 
ATOM     14  O   UNL     1       7.913   4.335  18.040  0.00  0.00    +0.000 OA
BRANCH  13  15
ATOM     15  OXT UNL     1       6.802   6.188  17.358  0.00  0.00    +0.000 OA
ATOM     16  HXT UNL     1       7.284   6.636  18.079  0.00  0.00    +0.000 HD
ENDBRANCH  13  15
ENDBRANCH  12  13
ENDBRANCH   1  12
TORSDOF 4
ENDMDL
MODEL 3
REMARK VINA RESULT:      -6.1      1.201      1.397
REMARK  Name = 
REMARK  6 active torsions:
REMARK  status: ('A' for Active; 'I' for Inactive)
REMARK    1  A    between atoms: C_1  and  C_2
REMARK    2  A    between atoms: CA_3  and  N_4
REMARK    3  A    between atoms: CA_3  and  C_12
REMARK    4  A    between atoms: C_5  and  C_7
REMARK    5  A    between atoms: C_10  and  C_11
REMARK    6  A    between atoms: C_12  and  OXT_14
REMARK                            x       y       z     vdW  Elec       q    Type
REMARK                         _______ _______ _______ _____ _____    ______ ____
ROOT
ATOM      1  N   UNL     1       5.101   5.173  17.793  0.00  0.00    +0.000 N 
ATOM      2  C   UNL     1       4.494   4.521  18.857  0.00  0.00    +0.000 C 
ATOM      3  O   UNL     1       5.027   3.607  19.489  0.00  0.00    +0.000 OA
ATOM      4  H   UNL     1       4.660   6.034  17.480  0.00  0.00    +0.000 HD
ENDROOT
BRANCH   2   5
ATOM      5  C   UNL     1       3.107   5.137  19.240  0.00  0.00    +0.000 C 
ATOM      6  C   UNL     1       2.554   4.820  20.654  0.00  0.00    +0.000 C 
ATOM      7  C   UNL     1       1.608   3.786  20.024  0.00  0.00    +0.000 C 
ATOM      8  C   UNL     1       1.814   4.485  18.661  0.00  0.00    +0.000 C 
ATOM      9  C   UNL     1       1.945   3.580  17.453  0.00  0.00    +0.000 C 
ENDBRANCH   2   5
BRANCH   1  12
ATOM     10  C   UNL     1       5.499   4.367  14.759  0.00  0.00    +0.000 C 
ATOM     11  C   UNL     1       6.475   4.449  15.886  0.00  0.00    +0.000 C 
ATOM     12  CA  UNL     1       6.289   4.858  17.153  0.00  0.00    +0.000 C 
BRANCH  12  13
ATOM     13  C   UNL     1       7.555   5.058  17.948  0.00  0.00    +0.000 C 
ATOM     14  O   UNL     1       7.798   6.007  18.670  0.00  0.00    +0.000 OA
BRANCH  13  15
ATOM     15  OXT UNL     1       8.398   4.010  17.786  0.00  0.00    +0.000 OA
ATOM     16  HXT UNL     1       7.951   3.162  17.969  0.00  0.00    +0.000 HD
ENDBRANCH  13  15
ENDBRANCH  12  13
ENDBRANCH   1  12
TORSDOF 4
ENDMDL
MODEL 4
REMARK VINA RESULT:      -6.1      1.514      4.936
REMARK  Name = 
REMARK  6 active torsions:
REMARK  status: ('A' for Active; 'I' for Inactive)
REMARK    1  A    between atoms: C_1  and  C_2
REMARK    2  A    between atoms: CA_3  and  N_4
REMARK    3  A    between atoms: CA_3  and  C_12
REMARK    4  A    between atoms: C_5  and  C_7
REMARK    5  A    between atoms: C_10  and  C_11
REMARK    6  A    between atoms: C_12  and  OXT_14
REMARK                            x       y       z     vdW  Elec       q    Type
REMARK                         _______ _______ _______ _____ _____    ______ ____
ROOT
ATOM      1  N   UNL     1       4.267   4.661  18.701  0.00  0.00    +0.000 N 
ATOM      2  C   UNL     1       5.505   5.260  18.891  0.00  0.00    +0.000 C 
ATOM      3  O   UNL     1       6.286   4.937  19.787  0.00  0.00    +0.000 OA
ATOM      4  H   UNL     1       3.798   4.863  17.822  0.00  0.00    +0.000 HD
ENDROOT
BRANCH   2   5
ATOM      5  C   UNL     1       5.850   6.313  17.786  0.00  0.00    +0.000 C 
ATOM      6  C   UNL     1       4.698   6.767  16.851  0.00  0.00    +0.000 C 
ATOM      7  C   UNL     1       5.259   5.846  15.756  0.00  0.00    +0.000 C 
ATOM      8  C   UNL     1       6.608   5.837  16.509  0.00  0.00    +0.000 C 
ATOM      9  C   UNL     1       7.341   4.511  16.562  0.00  0.00    +0.000 C 
ENDBRANCH   2   5
BRANCH   1  12
ATOM     10  C   UNL     1       1.849   5.203  20.668  0.00  0.00    +0.000 C 
ATOM     11  C   UNL     1       2.636   3.962  20.403  0.00  0.00    +0.000 C 
ATOM     12  CA  UNL     1       3.619   3.744  19.513  0.00  0.00    +0.000 C 
BRANCH  12  13
ATOM     13  C   UNL     1       4.009   2.298  19.339  0.00  0.00    +0.000 C 
ATOM     14  O   UNL     1       3.433   1.486  18.639  0.00  0.00    +0.000 OA
BRANCH  13  15
ATOM     15  OXT UNL     1       5.129   2.011  20.046  0.00  0.00    +0.000 OA
ATOM     16  HXT UNL     1       5.469   2.800  20.509  0.00  0.00    +0.000 HD
ENDBRANCH  13  15
ENDBRANCH  12  13
ENDBRANCH   1  12
TORSDOF 4
ENDMDL
MODEL 5
REMARK VINA RESULT:      -6.1      2.116      2.827
REMARK  Name = 
REMARK  6 active torsions:
REMARK  status: ('A' for Active; 'I' for Inactive)
REMARK    1  A    between atoms: C_1  and  C_2
REMARK    2  A    between atoms: CA_3  and  N_4
REMARK    3  A    between atoms: CA_3  and  C_12
REMARK    4  A    between atoms: C_5  and  C_7
REMARK    5  A    between atoms: C_10  and  C_11
REMARK    6  A    between atoms: C_12  and  OXT_14
REMARK                            x       y       z     vdW  Elec       q    Type
REMARK                         _______ _______ _______ _____ _____    ______ ____
ROOT
ATOM      1  N   UNL     1       5.477   6.322  17.534  0.00  0.00    +0.000 N 
ATOM      2  C   UNL     1       4.745   5.849  18.615  0.00  0.00    +0.000 C 
ATOM      3  O   UNL     1       5.259   5.382  19.632  0.00  0.00    +0.000 OA
ATOM      4  H   UNL     1       4.963   6.864  16.844  0.00  0.00    +0.000 HD
ENDROOT
BRANCH   2   5
ATOM      5  C   UNL     1       3.204   6.069  18.452  0.00  0.00    +0.000 C 
ATOM      6  C   UNL     1       2.352   6.121  19.748  0.00  0.00    +0.000 C 
ATOM      7  C   UNL     1       1.894   4.680  19.473  0.00  0.00    +0.000 C 
ATOM      8  C   UNL     1       2.320   4.867  17.999  0.00  0.00    +0.000 C 
ATOM      9  C   UNL     1       3.001   3.683  17.341  0.00  0.00    +0.000 C 
ENDBRANCH   2   5
BRANCH   1  12
ATOM     10  C   UNL     1       7.623   8.630  17.804  0.00  0.00    +0.000 C 
ATOM     11  C   UNL     1       7.761   7.213  17.356  0.00  0.00    +0.000 C 
ATOM     12  CA  UNL     1       6.841   6.234  17.312  0.00  0.00    +0.000 C 
BRANCH  12  13
ATOM     13  C   UNL     1       7.393   4.854  17.053  0.00  0.00    +0.000 C 
ATOM     14  O   UNL     1       7.654   4.388  15.961  0.00  0.00    +0.000 OA
BRANCH  13  15
ATOM     15  OXT UNL     1       7.602   4.192  18.217  0.00  0.00    +0.000 OA
ATOM     16  HXT UNL     1       7.549   3.226  18.091  0.00  0.00    +0.000 HD
ENDBRANCH  13  15
ENDBRANCH  12  13
ENDBRANCH   1  12
TORSDOF 4
ENDMDL
MODEL 6
REMARK VINA RESULT:      -6.1      1.490      1.938
REMARK  Name = 
REMARK  6 active torsions:
REMARK  status: ('A' for Active; 'I' for Inactive)
REMARK    1  A    between atoms: C_1  and  C_2
REMARK    2  A    between atoms: CA_3  and  N_4
REMARK    3  A    between atoms: CA_3  and  C_12
REMARK    4  A    between atoms: C_5  and  C_7
REMARK    5  A    between atoms: C_10  and  C_11
REMARK    6  A    between atoms: C_12  and  OXT_14
REMARK                            x       y       z     vdW  Elec       q    Type
REMARK                         _______ _______ _______ _____ _____    ______ ____
ROOT
ATOM      1  N   UNL     1       5.808   3.872  18.328  0.00  0.00    +0.000 N 
ATOM      2  C   UNL     1       4.440   3.994  18.120  0.00  0.00    +0.000 C 
ATOM      3  O   UNL     1       3.935   4.860  17.405  0.00  0.00    +0.000 OA
ATOM      4  H   UNL     1       6.122   3.011  18.767  0.00  0.00    +0.000 HD
ENDROOT
BRANCH   2   5
ATOM      5  C   UNL     1       3.615   2.852  18.803  0.00  0.00    +0.000 C 
ATOM      6  C   UNL     1       2.483   2.196  17.969  0.00  0.00    +0.000 C 
ATOM      7  C   UNL     1       1.457   3.028  18.755  0.00  0.00    +0.000 C 
ATOM      8  C   UNL     1       2.527   3.240  19.850  0.00  0.00    +0.000 C 
ATOM      9  C   UNL     1       2.588   4.620  20.473  0.00  0.00    +0.000 C 
ENDBRANCH   2   5
BRANCH   1  12
ATOM     10  C   UNL     1       6.839   4.403  15.385  0.00  0.00    +0.000 C 
ATOM     11  C   UNL     1       7.318   4.925  16.700  0.00  0.00    +0.000 C 
ATOM     12  CA  UNL     1       6.819   4.732  17.932  0.00  0.00    +0.000 C 
BRANCH  12  13
ATOM     13  C   UNL     1       7.401   5.624  19.000  0.00  0.00    +0.000 C 
ATOM     14  O   UNL     1       7.448   5.370  20.189  0.00  0.00    +0.000 OA
BRANCH  13  15
ATOM     15  OXT UNL     1       7.910   6.757  18.458  0.00  0.00    +0.000 OA
ATOM     16  HXT UNL     1       8.321   7.324  19.138  0.00  0.00    +0.000 HD
ENDBRANCH  13  15
ENDBRANCH  12  13
ENDBRANCH   1  12
TORSDOF 4
ENDMDL
MODEL 7
REMARK VINA RESULT:      -6.1      1.925      4.989
REMARK  Name = 
REMARK  6 active torsions:
REMARK  status: ('A' for Active; 'I' for Inactive)
REMARK    1  A    between atoms: C_1  and  C_2
REMARK    2  A    between atoms: CA_3  and  N_4
REMARK    3  A    between atoms: CA_3  and  C_12
REMARK    4  A    between atoms: C_5  and  C_7
REMARK    5  A    between atoms: C_10  and  C_11
REMARK    6  A    between atoms: C_12  and  OXT_14
REMARK                            x       y       z     vdW  Elec       q    Type
REMARK                         _______ _______ _______ _____ _____    ______ ____
ROOT
ATOM      1  N   UNL     1       5.518   3.659  18.527  0.00  0.00    +0.000 N 
ATOM      2  C   UNL     1       5.937   4.942  18.853  0.00  0.00    +0.000 C 
ATOM      3  O   UNL     1       5.408   5.628  19.729  0.00  0.00    +0.000 OA
ATOM      4  H   UNL     1       6.145   3.116  17.939  0.00  0.00    +0.000 HD
ENDROOT
BRANCH   2   5
ATOM      5  C   UNL     1       7.217   5.385  18.069  0.00  0.00    +0.000 C 
ATOM      6  C   UNL     1       7.995   6.612  18.611  0.00  0.00    +0.000 C 
ATOM      7  C   UNL     1       7.359   7.471  17.507  0.00  0.00    +0.000 C 
ATOM      8  C   UNL     1       7.041   6.171  16.733  0.00  0.00    +0.000 C 
ATOM      9  C   UNL     1       5.695   6.114  16.039  0.00  0.00    +0.000 C 
ENDBRANCH   2   5
BRANCH   1  12
ATOM     10  C   UNL     1       2.507   4.161  17.696  0.00  0.00    +0.000 C 
ATOM     11  C   UNL     1       3.105   3.216  18.686  0.00  0.00    +0.000 C 
ATOM     12  CA  UNL     1       4.396   2.979  18.972  0.00  0.00    +0.000 C 
BRANCH  12  13
ATOM     13  C   UNL     1       4.643   1.770  19.840  0.00  0.00    +0.000 C 
ATOM     14  O   UNL     1       4.866   1.788  21.036  0.00  0.00    +0.000 OA
BRANCH  13  15
ATOM     15  OXT UNL     1       4.549   0.629  19.115  0.00  0.00    +0.000 OA
ATOM     16  HXT UNL     1       4.273  -0.124  19.672  0.00  0.00    +0.000 HD
ENDBRANCH  13  15
ENDBRANCH  12  13
ENDBRANCH   1  12
TORSDOF 4
ENDMDL
MODEL 8
REMARK VINA RESULT:      -6.0      2.418      3.406
REMARK  Name = 
REMARK  6 active torsions:
REMARK  status: ('A' for Active; 'I' for Inactive)
REMARK    1  A    between atoms: C_1  and  C_2
REMARK    2  A    between atoms: CA_3  and  N_4
REMARK    3  A    between atoms: CA_3  and  C_12
REMARK    4  A    between atoms: C_5  and  C_7
REMARK    5  A    between atoms: C_10  and  C_11
REMARK    6  A    between atoms: C_12  and  OXT_14
REMARK                            x       y       z     vdW  Elec       q    Type
REMARK                         _______ _______ _______ _____ _____    ______ ____
ROOT
ATOM      1  N   UNL     1       5.365   3.744  16.848  0.00  0.00    +0.000 N 
ATOM      2  C   UNL     1       4.119   4.121  17.331  0.00  0.00    +0.000 C 
ATOM      3  O   UNL     1       3.754   5.293  17.433  0.00  0.00    +0.000 OA
ATOM      4  H   UNL     1       5.481   2.761  16.620  0.00  0.00    +0.000 HD
ENDROOT
BRANCH   2   5
ATOM      5  C   UNL     1       3.187   2.901  17.634  0.00  0.00    +0.000 C 
ATOM      6  C   UNL     1       1.689   3.200  17.909  0.00  0.00    +0.000 C 
ATOM      7  C   UNL     1       1.955   3.014  19.411  0.00  0.00    +0.000 C 
ATOM      8  C   UNL     1       3.246   2.246  19.048  0.00  0.00    +0.000 C 
ATOM      9  C   UNL     1       4.459   2.521  19.916  0.00  0.00    +0.000 C 
ENDBRANCH   2   5
BRANCH   1  12
ATOM     10  C   UNL     1       7.202   5.342  18.867  0.00  0.00    +0.000 C 
ATOM     11  C   UNL     1       7.203   5.288  17.375  0.00  0.00    +0.000 C 
ATOM     12  CA  UNL     1       6.450   4.549  16.543  0.00  0.00    +0.000 C 
BRANCH  12  13
ATOM     13  C   UNL     1       6.901   4.554  15.103  0.00  0.00    +0.000 C 
ATOM     14  O   UNL     1       7.681   5.344  14.607  0.00  0.00    +0.000 OA
BRANCH  13  15
ATOM     15  OXT UNL     1       6.344   3.525  14.420  0.00  0.00    +0.000 OA
ATOM     16  HXT UNL     1       6.639   2.664  14.771  0.00  0.00    +0.000 HD
ENDBRANCH  13  15
ENDBRANCH  12  13
ENDBRANCH   1  12
TORSDOF 4
ENDMDL
MODEL 9
REMARK VINA RESULT:      -6.0      2.271      3.198
REMARK  Name = 
REMARK  6 active torsions:
REMARK  status: ('A' for Active; 'I' for Inactive)
REMARK    1  A    between atoms: C_1  and  C_2
REMARK    2  A    between atoms: CA_3  and  N_4
REMARK    3  A    between atoms: CA_3  and  C_12
REMARK    4  A    between atoms: C_5  and  C_7
REMARK    5  A    between atoms: C_10  and  C_11
REMARK    6  A    between atoms: C_12  and  OXT_14
REMARK                            x       y       z     vdW  Elec       q    Type
REMARK                         _______ _______ _______ _____ _____    ______ ____
ROOT
ATOM      1  N   UNL     1       5.687   3.852  17.502  0.00  0.00    +0.000 N 
ATOM      2  C   UNL     1       4.336   4.109  17.692  0.00  0.00    +0.000 C 
ATOM      3  O   UNL     1       3.770   5.121  17.274  0.00  0.00    +0.000 OA
ATOM      4  H   UNL     1       6.000   2.908  17.708  0.00  0.00    +0.000 HD
ENDROOT
BRANCH   2   5
ATOM      5  C   UNL     1       3.585   2.932  18.398  0.00  0.00    +0.000 C 
ATOM      6  C   UNL     1       2.355   2.332  17.667  0.00  0.00    +0.000 C 
ATOM      7  C   UNL     1       1.438   3.119  18.617  0.00  0.00    +0.000 C 
ATOM      8  C   UNL     1       2.632   3.261  19.589  0.00  0.00    +0.000 C 
ATOM      9  C   UNL     1       2.782   4.601  20.280  0.00  0.00    +0.000 C 
ENDBRANCH   2   5
BRANCH   1  12
ATOM     10  C   UNL     1       7.637   5.774  19.088  0.00  0.00    +0.000 C 
ATOM     11  C   UNL     1       7.451   5.561  17.621  0.00  0.00    +0.000 C 
ATOM     12  CA  UNL     1       6.658   4.689  16.976  0.00  0.00    +0.000 C 
BRANCH  12  13
ATOM     13  C   UNL     1       6.919   4.570  15.495  0.00  0.00    +0.000 C 
ATOM     14  O   UNL     1       7.600   5.328  14.830  0.00  0.00    +0.000 OA
BRANCH  13  15
ATOM     15  OXT UNL     1       6.316   3.468  14.986  0.00  0.00    +0.000 OA
ATOM     16  HXT UNL     1       6.960   2.881  14.546  0.00  0.00    +0.000 HD
ENDBRANCH  13  15
ENDBRANCH  12  13
ENDBRANCH   1  12
TORSDOF 4
ENDMDL
