MODEL 1
REMARK VINA RESULT:      -8.4      0.000      0.000
REMARK  Name = 
REMARK  7 active torsions:
REMARK  status: ('A' for Active; 'I' for Inactive)
REMARK    1  A    between atoms: C_1  and  C_2
REMARK    2  A    between atoms: C_2  and  C_3
REMARK    3  A    between atoms: C_6  and  C_7
REMARK    4  A    between atoms: C_7  and  S_8
REMARK    5  A    between atoms: S_8  and  C_11
REMARK    6  A    between atoms: C_11  and  C_12
REMARK    7  A    between atoms: C_22  and  C_23
REMARK                            x       y       z     vdW  Elec       q    Type
REMARK                         _______ _______ _______ _____ _____    ______ ____
ROOT
ATOM      1  C   UNL     1       6.038   6.315  18.096  0.00  0.00    +0.000 C 
ENDROOT
BRANCH   1   2
ATOM      2  C   UNL     1       5.368   5.276  18.945  0.00  0.00    +0.000 C 
ATOM      3  O   UNL     1       6.047   4.652  19.761  0.00  0.00    +0.000 OA
ATOM      4  N   UNL     1       3.987   5.146  18.838  0.00  0.00    +0.000 N 
ATOM      5  C   UNL     1       3.220   4.258  19.629  0.00  0.00    +0.000 A 
ATOM      6  C   UNL     1       3.621   3.451  20.689  0.00  0.00    +0.000 A 
ATOM      7  C   UNL     1       2.671   2.649  21.336  0.00  0.00    +0.000 A 
ATOM      8  C   UNL     1       1.335   2.658  20.925  0.00  0.00    +0.000 A 
ATOM      9  C   UNL     1       0.934   3.463  19.858  0.00  0.00    +0.000 A 
ATOM     10  C   UNL     1       1.888   4.249  19.222  0.00  0.00    +0.000 A 
ATOM     11  C   UNL     1       1.670   5.136  18.045  0.00  0.00    +0.000 C 
ATOM     12  C   UNL     1       3.066   5.778  17.843  0.00  0.00    +0.000 C 
ATOM     13  C   UNL     1       2.949   7.298  17.980  0.00  0.00    +0.000 C 
ENDBRANCH   1   2
BRANCH   1  14
ATOM     14  S   UNL     1       6.761   5.643  16.622  0.00  0.00    +0.000 S 
ATOM     15  O   UNL     1       7.045   4.253  16.948  0.00  0.00    +0.000 OA
ATOM     16  O   UNL     1       7.853   6.523  16.245  0.00  0.00    +0.000 OA
BRANCH  14  17
ATOM     17  C   UNL     1       5.502   5.666  15.354  0.00  0.00    +0.000 C 
BRANCH  17  21
ATOM     18  C   UNL     1       6.175   3.517  12.612  0.00  0.00    +0.000 A 
ATOM     19  N   UNL     1       7.243   4.318  12.510  0.00  0.00    +0.000 NA
ATOM     20  O   UNL     1       7.092   5.192  13.585  0.00  0.00    +0.000 OA
ATOM     21  C   UNL     1       5.956   4.810  14.242  0.00  0.00    +0.000 A 
ATOM     22  N   UNL     1       5.342   3.795  13.669  0.00  0.00    +0.000 NA
BRANCH  18  24
ATOM     23  C   UNL     1       7.153   1.742  11.165  0.00  0.00    +0.000 C 
ATOM     24  C   UNL     1       5.887   2.446  11.630  0.00  0.00    +0.000 C 
ENDBRANCH  18  24
ENDBRANCH  17  21
ENDBRANCH  14  17
ENDBRANCH   1  14
TORSDOF 5
ENDMDL
MODEL 2
REMARK VINA RESULT:      -8.4      0.992      1.236
REMARK  Name = 
REMARK  7 active torsions:
REMARK  status: ('A' for Active; 'I' for Inactive)
REMARK    1  A    between atoms: C_1  and  C_2
REMARK    2  A    between atoms: C_2  and  C_3
REMARK    3  A    between atoms: C_6  and  C_7
REMARK    4  A    between atoms: C_7  and  S_8
REMARK    5  A    between atoms: S_8  and  C_11
REMARK    6  A    between atoms: C_11  and  C_12
REMARK    7  A    between atoms: C_22  and  C_23
REMARK                            x       y       z     vdW  Elec       q    Type
REMARK                         _______ _______ _______ _____ _____    ______ ____
ROOT
ATOM      1  C   UNL     1       5.970   6.699  18.286  0.00  0.00    +0.000 C 
ENDROOT
BRANCH   1   2
ATOM      2  C   UNL     1       5.358   5.479  18.908  0.00  0.00    +0.000 C 
ATOM      3  O   UNL     1       6.061   4.764  19.622  0.00  0.00    +0.000 OA
ATOM      4  N   UNL     1       3.993   5.278  18.729  0.00  0.00    +0.000 N 
ATOM      5  C   UNL     1       3.274   4.211  19.318  0.00  0.00    +0.000 A 
ATOM      6  C   UNL     1       3.708   3.253  20.229  0.00  0.00    +0.000 A 
ATOM      7  C   UNL     1       2.804   2.285  20.686  0.00  0.00    +0.000 A 
ATOM      8  C   UNL     1       1.481   2.278  20.235  0.00  0.00    +0.000 A 
ATOM      9  C   UNL     1       1.047   3.236  19.317  0.00  0.00    +0.000 A 
ATOM     10  C   UNL     1       1.957   4.187  18.868  0.00  0.00    +0.000 A 
ATOM     11  C   UNL     1       1.702   5.257  17.863  0.00  0.00    +0.000 C 
ATOM     12  C   UNL     1       3.052   6.018  17.831  0.00  0.00    +0.000 C 
ATOM     13  C   UNL     1       2.821   7.476  18.236  0.00  0.00    +0.000 C 
ENDBRANCH   1   2
BRANCH   1  14
ATOM     14  S   UNL     1       6.524   6.423  16.623  0.00  0.00    +0.000 S 
ATOM     15  O   UNL     1       7.818   7.086  16.548  0.00  0.00    +0.000 OA
ATOM     16  O   UNL     1       5.453   6.851  15.741  0.00  0.00    +0.000 OA
BRANCH  14  17
ATOM     17  C   UNL     1       6.794   4.666  16.437  0.00  0.00    +0.000 C 
BRANCH  17  21
ATOM     18  C   UNL     1       6.441   3.756  13.025  0.00  0.00    +0.000 A 
ATOM     19  N   UNL     1       7.284   4.785  12.876  0.00  0.00    +0.000 NA
ATOM     20  O   UNL     1       7.521   5.198  14.185  0.00  0.00    +0.000 OA
ATOM     21  C   UNL     1       6.812   4.355  14.995  0.00  0.00    +0.000 A 
ATOM     22  N   UNL     1       6.112   3.462  14.327  0.00  0.00    +0.000 NA
BRANCH  18  24
ATOM     23  C   UNL     1       4.396   3.353  11.663  0.00  0.00    +0.000 C 
ATOM     24  C   UNL     1       5.867   3.023  11.874  0.00  0.00    +0.000 C 
ENDBRANCH  18  24
ENDBRANCH  17  21
ENDBRANCH  14  17
ENDBRANCH   1  14
TORSDOF 5
ENDMDL
MODEL 3
REMARK VINA RESULT:      -8.4      1.152      1.394
REMARK  Name = 
REMARK  7 active torsions:
REMARK  status: ('A' for Active; 'I' for Inactive)
REMARK    1  A    between atoms: C_1  and  C_2
REMARK    2  A    between atoms: C_2  and  C_3
REMARK    3  A    between atoms: C_6  and  C_7
REMARK    4  A    between atoms: C_7  and  S_8
REMARK    5  A    between atoms: S_8  and  C_11
REMARK    6  A    between atoms: C_11  and  C_12
REMARK    7  A    between atoms: C_22  and  C_23
REMARK                            x       y       z     vdW  Elec       q    Type
REMARK                         _______ _______ _______ _____ _____    ______ ____
ROOT
ATOM      1  C   UNL     1       5.628   6.374  18.013  0.00  0.00    +0.000 C 
ENDROOT
BRANCH   1   2
ATOM      2  C   UNL     1       5.048   5.346  18.937  0.00  0.00    +0.000 C 
ATOM      3  O   UNL     1       5.781   4.831  19.782  0.00  0.00    +0.000 OA
ATOM      4  N   UNL     1       3.680   5.105  18.860  0.00  0.00    +0.000 N 
ATOM      5  C   UNL     1       2.991   4.215  19.718  0.00  0.00    +0.000 A 
ATOM      6  C   UNL     1       3.463   3.514  20.823  0.00  0.00    +0.000 A 
ATOM      7  C   UNL     1       2.584   2.687  21.536  0.00  0.00    +0.000 A 
ATOM      8  C   UNL     1       1.248   2.567  21.145  0.00  0.00    +0.000 A 
ATOM      9  C   UNL     1       0.775   3.266  20.034  0.00  0.00    +0.000 A 
ATOM     10  C   UNL     1       1.660   4.078  19.333  0.00  0.00    +0.000 A 
ATOM     11  C   UNL     1       1.363   4.866  18.104  0.00  0.00    +0.000 C 
ATOM     12  C   UNL     1       2.704   5.597  17.839  0.00  0.00    +0.000 C 
ATOM     13  C   UNL     1       2.472   7.110  17.877  0.00  0.00    +0.000 C 
ENDBRANCH   1   2
BRANCH   1  14
ATOM     14  S   UNL     1       7.380   6.198  17.794  0.00  0.00    +0.000 S 
ATOM     15  O   UNL     1       7.936   6.319  19.135  0.00  0.00    +0.000 OA
ATOM     16  O   UNL     1       7.779   7.148  16.771  0.00  0.00    +0.000 OA
BRANCH  14  17
ATOM     17  C   UNL     1       7.680   4.532  17.221  0.00  0.00    +0.000 C 
BRANCH  17  21
ATOM     18  C   UNL     1       6.146   4.200  14.039  0.00  0.00    +0.000 A 
ATOM     19  N   UNL     1       7.110   5.069  13.711  0.00  0.00    +0.000 NA
ATOM     20  O   UNL     1       7.807   5.240  14.905  0.00  0.00    +0.000 OA
ATOM     21  C   UNL     1       7.204   4.433  15.829  0.00  0.00    +0.000 A 
ATOM     22  N   UNL     1       6.160   3.787  15.350  0.00  0.00    +0.000 NA
BRANCH  18  24
ATOM     23  C   UNL     1       5.708   2.955  11.928  0.00  0.00    +0.000 C 
ATOM     24  C   UNL     1       5.112   3.756  13.076  0.00  0.00    +0.000 C 
ENDBRANCH  18  24
ENDBRANCH  17  21
ENDBRANCH  14  17
ENDBRANCH   1  14
TORSDOF 5
ENDMDL
MODEL 4
REMARK VINA RESULT:      -8.2      0.954      1.074
REMARK  Name = 
REMARK  7 active torsions:
REMARK  status: ('A' for Active; 'I' for Inactive)
REMARK    1  A    between atoms: C_1  and  C_2
REMARK    2  A    between atoms: C_2  and  C_3
REMARK    3  A    between atoms: C_6  and  C_7
REMARK    4  A    between atoms: C_7  and  S_8
REMARK    5  A    between atoms: S_8  and  C_11
REMARK    6  A    between atoms: C_11  and  C_12
REMARK    7  A    between atoms: C_22  and  C_23
REMARK                            x       y       z     vdW  Elec       q    Type
REMARK                         _______ _______ _______ _____ _____    ______ ____
ROOT
ATOM      1  C   UNL     1       6.055   6.014  18.580  0.00  0.00    +0.000 C 
ENDROOT
BRANCH   1   2
ATOM      2  C   UNL     1       5.244   4.781  18.848  0.00  0.00    +0.000 C 
ATOM      3  O   UNL     1       5.798   3.809  19.362  0.00  0.00    +0.000 OA
ATOM      4  N   UNL     1       3.876   4.839  18.596  0.00  0.00    +0.000 N 
ATOM      5  C   UNL     1       2.983   3.776  18.869  0.00  0.00    +0.000 A 
ATOM      6  C   UNL     1       3.226   2.563  19.505  0.00  0.00    +0.000 A 
ATOM      7  C   UNL     1       2.171   1.656  19.674  0.00  0.00    +0.000 A 
ATOM      8  C   UNL     1       0.889   1.963  19.211  0.00  0.00    +0.000 A 
ATOM      9  C   UNL     1       0.646   3.178  18.568  0.00  0.00    +0.000 A 
ATOM     10  C   UNL     1       1.703   4.065  18.403  0.00  0.00    +0.000 A 
ATOM     11  C   UNL     1       1.659   5.383  17.710  0.00  0.00    +0.000 C 
ATOM     12  C   UNL     1       3.101   5.917  17.905  0.00  0.00    +0.000 C 
ATOM     13  C   UNL     1       3.053   7.239  18.674  0.00  0.00    +0.000 C 
ENDBRANCH   1   2
BRANCH   1  14
ATOM     14  S   UNL     1       6.856   5.984  16.997  0.00  0.00    +0.000 S 
ATOM     15  O   UNL     1       7.541   4.700  16.952  0.00  0.00    +0.000 OA
ATOM     16  O   UNL     1       7.630   7.207  16.889  0.00  0.00    +0.000 OA
BRANCH  14  17
ATOM     17  C   UNL     1       5.575   5.968  15.752  0.00  0.00    +0.000 C 
BRANCH  17  21
ATOM     18  C   UNL     1       6.238   3.837  12.993  0.00  0.00    +0.000 A 
ATOM     19  N   UNL     1       7.356   4.571  12.957  0.00  0.00    +0.000 NA
ATOM     20  O   UNL     1       7.211   5.430  14.045  0.00  0.00    +0.000 OA
ATOM     21  C   UNL     1       6.024   5.107  14.642  0.00  0.00    +0.000 A 
ATOM     22  N   UNL     1       5.375   4.145  14.019  0.00  0.00    +0.000 NA
BRANCH  18  24
ATOM     23  C   UNL     1       4.532   2.977  11.396  0.00  0.00    +0.000 C 
ATOM     24  C   UNL     1       5.929   2.806  11.976  0.00  0.00    +0.000 C 
ENDBRANCH  18  24
ENDBRANCH  17  21
ENDBRANCH  14  17
ENDBRANCH   1  14
TORSDOF 5
ENDMDL
MODEL 5
REMARK VINA RESULT:      -8.0      2.124      3.835
REMARK  Name = 
REMARK  7 active torsions:
REMARK  status: ('A' for Active; 'I' for Inactive)
REMARK    1  A    between atoms: C_1  and  C_2
REMARK    2  A    between atoms: C_2  and  C_3
REMARK    3  A    between atoms: C_6  and  C_7
REMARK    4  A    between atoms: C_7  and  S_8
REMARK    5  A    between atoms: S_8  and  C_11
REMARK    6  A    between atoms: C_11  and  C_12
REMARK    7  A    between atoms: C_22  and  C_23
REMARK                            x       y       z     vdW  Elec       q    Type
REMARK                         _______ _______ _______ _____ _____    ______ ____
ROOT
ATOM      1  C   UNL     1       4.525   4.884  17.575  0.00  0.00    +0.000 C 
ENDROOT
BRANCH   1   2
ATOM      2  C   UNL     1       3.981   6.282  17.603  0.00  0.00    +0.000 C 
ATOM      3  O   UNL     1       4.307   7.061  16.707  0.00  0.00    +0.000 OA
ATOM      4  N   UNL     1       3.048   6.592  18.588  0.00  0.00    +0.000 N 
ATOM      5  C   UNL     1       2.402   7.847  18.688  0.00  0.00    +0.000 A 
ATOM      6  C   UNL     1       2.461   8.939  17.828  0.00  0.00    +0.000 A 
ATOM      7  C   UNL     1       1.719  10.089  18.131  0.00  0.00    +0.000 A 
ATOM      8  C   UNL     1       0.927  10.141  19.281  0.00  0.00    +0.000 A 
ATOM      9  C   UNL     1       0.871   9.048  20.146  0.00  0.00    +0.000 A 
ATOM     10  C   UNL     1       1.617   7.916  19.836  0.00  0.00    +0.000 A 
ATOM     11  C   UNL     1       1.726   6.672  20.648  0.00  0.00    +0.000 C 
ATOM     12  C   UNL     1       2.632   5.773  19.769  0.00  0.00    +0.000 C 
ATOM     13  C   UNL     1       1.875   4.493  19.403  0.00  0.00    +0.000 C 
ENDBRANCH   1   2
BRANCH   1  14
ATOM     14  S   UNL     1       5.861   4.639  18.717  0.00  0.00    +0.000 S 
ATOM     15  O   UNL     1       5.565   3.370  19.366  0.00  0.00    +0.000 OA
ATOM     16  O   UNL     1       5.959   5.844  19.522  0.00  0.00    +0.000 OA
BRANCH  14  17
ATOM     17  C   UNL     1       7.352   4.432  17.755  0.00  0.00    +0.000 C 
BRANCH  17  21
ATOM     18  C   UNL     1       6.164   4.369  14.413  0.00  0.00    +0.000 A 
ATOM     19  N   UNL     1       6.719   5.586  14.408  0.00  0.00    +0.000 NA
ATOM     20  O   UNL     1       7.260   5.697  15.688  0.00  0.00    +0.000 OA
ATOM     21  C   UNL     1       6.993   4.518  16.327  0.00  0.00    +0.000 A 
ATOM     22  N   UNL     1       6.300   3.674  15.591  0.00  0.00    +0.000 NA
BRANCH  18  24
ATOM     23  C   UNL     1       6.341   3.312  12.165  0.00  0.00    +0.000 C 
ATOM     24  C   UNL     1       5.414   3.831  13.254  0.00  0.00    +0.000 C 
ENDBRANCH  18  24
ENDBRANCH  17  21
ENDBRANCH  14  17
ENDBRANCH   1  14
TORSDOF 5
ENDMDL
MODEL 6
REMARK VINA RESULT:      -8.0      1.075      1.405
REMARK  Name = 
REMARK  7 active torsions:
REMARK  status: ('A' for Active; 'I' for Inactive)
REMARK    1  A    between atoms: C_1  and  C_2
REMARK    2  A    between atoms: C_2  and  C_3
REMARK    3  A    between atoms: C_6  and  C_7
REMARK    4  A    between atoms: C_7  and  S_8
REMARK    5  A    between atoms: S_8  and  C_11
REMARK    6  A    between atoms: C_11  and  C_12
REMARK    7  A    between atoms: C_22  and  C_23
REMARK                            x       y       z     vdW  Elec       q    Type
REMARK                         _______ _______ _______ _____ _____    ______ ____
ROOT
ATOM      1  C   UNL     1       5.719   6.124  17.859  0.00  0.00    +0.000 C 
ENDROOT
BRANCH   1   2
ATOM      2  C   UNL     1       5.109   5.136  18.808  0.00  0.00    +0.000 C 
ATOM      3  O   UNL     1       5.855   4.461  19.517  0.00  0.00    +0.000 OA
ATOM      4  N   UNL     1       3.721   5.112  18.913  0.00  0.00    +0.000 N 
ATOM      5  C   UNL     1       3.019   4.282  19.818  0.00  0.00    +0.000 A 
ATOM      6  C   UNL     1       3.514   3.445  20.812  0.00  0.00    +0.000 A 
ATOM      7  C   UNL     1       2.616   2.715  21.603  0.00  0.00    +0.000 A 
ATOM      8  C   UNL     1       1.237   2.826  21.399  0.00  0.00    +0.000 A 
ATOM      9  C   UNL     1       0.740   3.662  20.398  0.00  0.00    +0.000 A 
ATOM     10  C   UNL     1       1.644   4.375  19.618  0.00  0.00    +0.000 A 
ATOM     11  C   UNL     1       1.317   5.279  18.479  0.00  0.00    +0.000 C 
ATOM     12  C   UNL     1       2.711   5.814  18.062  0.00  0.00    +0.000 C 
ATOM     13  C   UNL     1       2.730   7.338  18.202  0.00  0.00    +0.000 C 
ENDBRANCH   1   2
BRANCH   1  14
ATOM     14  S   UNL     1       5.550   5.644  16.159  0.00  0.00    +0.000 S 
ATOM     15  O   UNL     1       5.110   6.851  15.474  0.00  0.00    +0.000 OA
ATOM     16  O   UNL     1       4.707   4.463  16.132  0.00  0.00    +0.000 OA
BRANCH  14  17
ATOM     17  C   UNL     1       7.182   5.235  15.557  0.00  0.00    +0.000 C 
BRANCH  17  21
ATOM     18  C   UNL     1       6.441   3.673  12.459  0.00  0.00    +0.000 A 
ATOM     19  N   UNL     1       7.336   4.569  12.026  0.00  0.00    +0.000 NA
ATOM     20  O   UNL     1       7.727   5.221  13.194  0.00  0.00    +0.000 OA
ATOM     21  C   UNL     1       7.040   4.632  14.219  0.00  0.00    +0.000 A 
ATOM     22  N   UNL     1       6.218   3.686  13.815  0.00  0.00    +0.000 NA
BRANCH  18  24
ATOM     23  C   UNL     1       4.255   3.190  11.368  0.00  0.00    +0.000 C 
ATOM     24  C   UNL     1       5.708   2.772  11.540  0.00  0.00    +0.000 C 
ENDBRANCH  18  24
ENDBRANCH  17  21
ENDBRANCH  14  17
ENDBRANCH   1  14
TORSDOF 5
ENDMDL
MODEL 7
REMARK VINA RESULT:      -7.8      1.244      1.681
REMARK  Name = 
REMARK  7 active torsions:
REMARK  status: ('A' for Active; 'I' for Inactive)
REMARK    1  A    between atoms: C_1  and  C_2
REMARK    2  A    between atoms: C_2  and  C_3
REMARK    3  A    between atoms: C_6  and  C_7
REMARK    4  A    between atoms: C_7  and  S_8
REMARK    5  A    between atoms: S_8  and  C_11
REMARK    6  A    between atoms: C_11  and  C_12
REMARK    7  A    between atoms: C_22  and  C_23
REMARK                            x       y       z     vdW  Elec       q    Type
REMARK                         _______ _______ _______ _____ _____    ______ ____
ROOT
ATOM      1  C   UNL     1       5.760   6.613  18.120  0.00  0.00    +0.000 C 
ENDROOT
BRANCH   1   2
ATOM      2  C   UNL     1       5.157   5.540  18.976  0.00  0.00    +0.000 C 
ATOM      3  O   UNL     1       5.868   4.982  19.812  0.00  0.00    +0.000 OA
ATOM      4  N   UNL     1       3.791   5.304  18.852  0.00  0.00    +0.000 N 
ATOM      5  C   UNL     1       3.081   4.373  19.646  0.00  0.00    +0.000 A 
ATOM      6  C   UNL     1       3.525   3.616  20.726  0.00  0.00    +0.000 A 
ATOM      7  C   UNL     1       2.628   2.755  21.372  0.00  0.00    +0.000 A 
ATOM      8  C   UNL     1       1.302   2.656  20.942  0.00  0.00    +0.000 A 
ATOM      9  C   UNL     1       0.858   3.412  19.856  0.00  0.00    +0.000 A 
ATOM     10  C   UNL     1       1.760   4.257  19.221  0.00  0.00    +0.000 A 
ATOM     11  C   UNL     1       1.494   5.106  18.026  0.00  0.00    +0.000 C 
ATOM     12  C   UNL     1       2.841   5.849  17.833  0.00  0.00    +0.000 C 
ATOM     13  C   UNL     1       2.608   7.358  17.943  0.00  0.00    +0.000 C 
ENDBRANCH   1   2
BRANCH   1  14
ATOM     14  S   UNL     1       7.460   6.303  17.717  0.00  0.00    +0.000 S 
ATOM     15  O   UNL     1       8.181   6.505  18.965  0.00  0.00    +0.000 OA
ATOM     16  O   UNL     1       7.782   7.129  16.567  0.00  0.00    +0.000 OA
BRANCH  14  17
ATOM     17  C   UNL     1       7.595   4.576  17.277  0.00  0.00    +0.000 C 
BRANCH  17  21
ATOM     18  C   UNL     1       6.415   4.018  13.977  0.00  0.00    +0.000 A 
ATOM     19  N   UNL     1       5.303   3.697  14.648  0.00  0.00    +0.000 NA
ATOM     20  O   UNL     1       5.654   3.923  15.978  0.00  0.00    +0.000 OA
ATOM     21  C   UNL     1       6.941   4.384  15.969  0.00  0.00    +0.000 A 
ATOM     22  N   UNL     1       7.463   4.439  14.761  0.00  0.00    +0.000 NA
BRANCH  18  24
ATOM     23  C   UNL     1       7.412   4.958  11.898  0.00  0.00    +0.000 C 
ATOM     24  C   UNL     1       6.525   3.881  12.507  0.00  0.00    +0.000 C 
ENDBRANCH  18  24
ENDBRANCH  17  21
ENDBRANCH  14  17
ENDBRANCH   1  14
TORSDOF 5
ENDMDL
MODEL 8
REMARK VINA RESULT:      -7.7      1.047      1.216
REMARK  Name = 
REMARK  7 active torsions:
REMARK  status: ('A' for Active; 'I' for Inactive)
REMARK    1  A    between atoms: C_1  and  C_2
REMARK    2  A    between atoms: C_2  and  C_3
REMARK    3  A    between atoms: C_6  and  C_7
REMARK    4  A    between atoms: C_7  and  S_8
REMARK    5  A    between atoms: S_8  and  C_11
REMARK    6  A    between atoms: C_11  and  C_12
REMARK    7  A    between atoms: C_22  and  C_23
REMARK                            x       y       z     vdW  Elec       q    Type
REMARK                         _______ _______ _______ _____ _____    ______ ____
ROOT
ATOM      1  C   UNL     1       5.998   6.416  17.743  0.00  0.00    +0.000 C 
ENDROOT
BRANCH   1   2
ATOM      2  C   UNL     1       5.395   5.293  18.532  0.00  0.00    +0.000 C 
ATOM      3  O   UNL     1       6.142   4.554  19.174  0.00  0.00    +0.000 OA
ATOM      4  N   UNL     1       4.007   5.210  18.581  0.00  0.00    +0.000 N 
ATOM      5  C   UNL     1       3.306   4.245  19.344  0.00  0.00    +0.000 A 
ATOM      6  C   UNL     1       3.799   3.301  20.239  0.00  0.00    +0.000 A 
ATOM      7  C   UNL     1       2.904   2.445  20.894  0.00  0.00    +0.000 A 
ATOM      8  C   UNL     1       1.529   2.537  20.655  0.00  0.00    +0.000 A 
ATOM      9  C   UNL     1       1.035   3.481  19.754  0.00  0.00    +0.000 A 
ATOM     10  C   UNL     1       1.936   4.320  19.107  0.00  0.00    +0.000 A 
ATOM     11  C   UNL     1       1.613   5.354  18.085  0.00  0.00    +0.000 C 
ATOM     12  C   UNL     1       2.998   5.985  17.793  0.00  0.00    +0.000 C 
ATOM     13  C   UNL     1       2.957   7.477  18.131  0.00  0.00    +0.000 C 
ENDBRANCH   1   2
BRANCH   1  14
ATOM     14  S   UNL     1       6.199   6.024  16.024  0.00  0.00    +0.000 S 
ATOM     15  O   UNL     1       7.636   6.078  15.797  0.00  0.00    +0.000 OA
ATOM     16  O   UNL     1       5.327   6.914  15.279  0.00  0.00    +0.000 OA
BRANCH  14  17
ATOM     17  C   UNL     1       5.669   4.332  15.799  0.00  0.00    +0.000 C 
BRANCH  17  21
ATOM     18  C   UNL     1       6.290   3.290  12.465  0.00  0.00    +0.000 A 
ATOM     19  N   UNL     1       4.974   3.512  12.367  0.00  0.00    +0.000 NA
ATOM     20  O   UNL     1       4.631   3.971  13.637  0.00  0.00    +0.000 OA
ATOM     21  C   UNL     1       5.787   4.001  14.367  0.00  0.00    +0.000 A 
ATOM     22  N   UNL     1       6.835   3.569  13.695  0.00  0.00    +0.000 NA
BRANCH  18  24
ATOM     23  C   UNL     1       6.651   1.326  10.977  0.00  0.00    +0.000 C 
ATOM     24  C   UNL     1       7.089   2.735  11.348  0.00  0.00    +0.000 C 
ENDBRANCH  18  24
ENDBRANCH  17  21
ENDBRANCH  14  17
ENDBRANCH   1  14
TORSDOF 5
ENDMDL
MODEL 9
REMARK VINA RESULT:      -7.6      2.202      3.416
REMARK  Name = 
REMARK  7 active torsions:
REMARK  status: ('A' for Active; 'I' for Inactive)
REMARK    1  A    between atoms: C_1  and  C_2
REMARK    2  A    between atoms: C_2  and  C_3
REMARK    3  A    between atoms: C_6  and  C_7
REMARK    4  A    between atoms: C_7  and  S_8
REMARK    5  A    between atoms: S_8  and  C_11
REMARK    6  A    between atoms: C_11  and  C_12
REMARK    7  A    between atoms: C_22  and  C_23
REMARK                            x       y       z     vdW  Elec       q    Type
REMARK                         _______ _______ _______ _____ _____    ______ ____
ROOT
ATOM      1  C   UNL     1       4.624   5.800  17.093  0.00  0.00    +0.000 C 
ENDROOT
BRANCH   1   2
ATOM      2  C   UNL     1       3.786   6.950  17.566  0.00  0.00    +0.000 C 
ATOM      3  O   UNL     1       3.763   7.980  16.891  0.00  0.00    +0.000 OA
ATOM      4  N   UNL     1       2.993   6.753  18.692  0.00  0.00    +0.000 N 
ATOM      5  C   UNL     1       2.103   7.727  19.204  0.00  0.00    +0.000 A 
ATOM      6  C   UNL     1       1.759   8.969  18.680  0.00  0.00    +0.000 A 
ATOM      7  C   UNL     1       0.836   9.769  19.366  0.00  0.00    +0.000 A 
ATOM      8  C   UNL     1       0.266   9.329  20.564  0.00  0.00    +0.000 A 
ATOM      9  C   UNL     1       0.615   8.086  21.093  0.00  0.00    +0.000 A 
ATOM     10  C   UNL     1       1.536   7.305  20.403  0.00  0.00    +0.000 A 
ATOM     11  C   UNL     1       2.068   5.977  20.823  0.00  0.00    +0.000 C 
ATOM     12  C   UNL     1       2.989   5.593  19.637  0.00  0.00    +0.000 C 
ATOM     13  C   UNL     1       2.494   4.285  19.015  0.00  0.00    +0.000 C 
ENDBRANCH   1   2
BRANCH   1  14
ATOM     14  S   UNL     1       6.335   5.963  17.534  0.00  0.00    +0.000 S 
ATOM     15  O   UNL     1       6.347   5.937  18.990  0.00  0.00    +0.000 OA
ATOM     16  O   UNL     1       6.844   7.132  16.839  0.00  0.00    +0.000 OA
BRANCH  14  17
ATOM     17  C   UNL     1       7.177   4.499  16.950  0.00  0.00    +0.000 C 
BRANCH  17  21
ATOM     18  C   UNL     1       6.308   4.152  13.527  0.00  0.00    +0.000 A 
ATOM     19  N   UNL     1       7.232   5.111  13.406  0.00  0.00    +0.000 NA
ATOM     20  O   UNL     1       7.674   5.299  14.715  0.00  0.00    +0.000 OA
ATOM     21  C   UNL     1       6.983   4.410  15.491  0.00  0.00    +0.000 A 
ATOM     22  N   UNL     1       6.112   3.694  14.809  0.00  0.00    +0.000 NA
BRANCH  18  24
ATOM     23  C   UNL     1       6.056   2.336  11.842  0.00  0.00    +0.000 C 
ATOM     24  C   UNL     1       5.519   3.656  12.376  0.00  0.00    +0.000 C 
ENDBRANCH  18  24
ENDBRANCH  17  21
ENDBRANCH  14  17
ENDBRANCH   1  14
TORSDOF 5
ENDMDL
