MODEL 1
REMARK VINA RESULT:      -7.1      0.000      0.000
REMARK  Name = 
REMARK  4 active torsions:
REMARK  status: ('A' for Active; 'I' for Inactive)
REMARK    1  A    between atoms: C_2  and  O_3
REMARK    2  A    between atoms: C_2  and  C_4
REMARK    3  A    between atoms: C_4  and  C_6
REMARK    4  A    between atoms: C_9  and  C_10
REMARK                            x       y       z     vdW  Elec       q    Type
REMARK                         _______ _______ _______ _____ _____    ______ ____
ROOT
ATOM      1  C   UNL     1       5.805   5.117  16.963  0.00  0.00    +0.000 A 
ATOM      2  C   UNL     1       4.934   4.415  16.154  0.00  0.00    +0.000 A 
ATOM      3  C   UNL     1       3.867   3.819  16.889  0.00  0.00    +0.000 A 
ATOM      4  C   UNL     1       3.941   4.063  18.249  0.00  0.00    +0.000 A 
ATOM      5  S   UNL     1       5.328   5.015  18.605  0.00  0.00    +0.000 S 
ENDROOT
BRANCH   4   6
ATOM      6  C   UNL     1       3.011   3.633  19.314  0.00  0.00    +0.000 A 
ATOM      7  C   UNL     1       1.639   3.934  19.275  0.00  0.00    +0.000 A 
ATOM      8  C   UNL     1       0.782   3.528  20.303  0.00  0.00    +0.000 A 
ATOM      9  C   UNL     1       1.281   2.820  21.392  0.00  0.00    +0.000 A 
ATOM     10  C   UNL     1       2.637   2.512  21.452  0.00  0.00    +0.000 A 
ATOM     11  C   UNL     1       3.492   2.914  20.421  0.00  0.00    +0.000 A 
ENDBRANCH   4   6
BRANCH   1  12
ATOM     12  C   UNL     1       6.994   5.873  16.631  0.00  0.00    +0.000 C 
ATOM     13  O   UNL     1       7.677   5.767  15.609  0.00  0.00    +0.000 OA
BRANCH  12  15
ATOM     14  O   UNL     1       8.110   6.674  18.660  0.00  0.00    +0.000 OA
ATOM     15  C   UNL     1       7.494   6.919  17.644  0.00  0.00    +0.000 C 
BRANCH  15  16
ATOM     16  O   UNL     1       7.163   8.163  17.229  0.00  0.00    +0.000 OA
ATOM     17  H   UNL     1       6.358   8.114  16.660  0.00  0.00    +0.000 HD
ENDBRANCH  15  16
ENDBRANCH  12  15
ENDBRANCH   1  12
TORSDOF 4
ENDMDL
MODEL 2
REMARK VINA RESULT:      -7.0      1.796      2.544
REMARK  Name = 
REMARK  4 active torsions:
REMARK  status: ('A' for Active; 'I' for Inactive)
REMARK    1  A    between atoms: C_2  and  O_3
REMARK    2  A    between atoms: C_2  and  C_4
REMARK    3  A    between atoms: C_4  and  C_6
REMARK    4  A    between atoms: C_9  and  C_10
REMARK                            x       y       z     vdW  Elec       q    Type
REMARK                         _______ _______ _______ _____ _____    ______ ____
ROOT
ATOM      1  C   UNL     1       5.001   4.902  16.161  0.00  0.00    +0.000 A 
ATOM      2  C   UNL     1       4.705   6.080  16.814  0.00  0.00    +0.000 A 
ATOM      3  C   UNL     1       3.911   5.874  17.980  0.00  0.00    +0.000 A 
ATOM      4  C   UNL     1       3.602   4.543  18.199  0.00  0.00    +0.000 A 
ATOM      5  S   UNL     1       4.284   3.566  16.959  0.00  0.00    +0.000 S 
ENDROOT
BRANCH   4   6
ATOM      6  C   UNL     1       2.827   3.948  19.307  0.00  0.00    +0.000 A 
ATOM      7  C   UNL     1       3.443   3.261  20.366  0.00  0.00    +0.000 A 
ATOM      8  C   UNL     1       2.685   2.694  21.396  0.00  0.00    +0.000 A 
ATOM      9  C   UNL     1       1.298   2.796  21.382  0.00  0.00    +0.000 A 
ATOM     10  C   UNL     1       0.666   3.470  20.341  0.00  0.00    +0.000 A 
ATOM     11  C   UNL     1       1.425   4.041  19.315  0.00  0.00    +0.000 A 
ENDBRANCH   4   6
BRANCH   1  12
ATOM     12  C   UNL     1       5.780   4.658  14.964  0.00  0.00    +0.000 C 
ATOM     13  O   UNL     1       5.368   4.209  13.892  0.00  0.00    +0.000 OA
BRANCH  12  15
ATOM     14  O   UNL     1       7.903   5.577  14.155  0.00  0.00    +0.000 OA
ATOM     15  C   UNL     1       7.287   4.969  15.005  0.00  0.00    +0.000 C 
BRANCH  15  16
ATOM     16  O   UNL     1       7.832   4.481  16.143  0.00  0.00    +0.000 OA
ATOM     17  H   UNL     1       7.429   4.938  16.920  0.00  0.00    +0.000 HD
ENDBRANCH  15  16
ENDBRANCH  12  15
ENDBRANCH   1  12
TORSDOF 4
ENDMDL
MODEL 3
REMARK VINA RESULT:      -7.0      1.428      1.954
REMARK  Name = 
REMARK  4 active torsions:
REMARK  status: ('A' for Active; 'I' for Inactive)
REMARK    1  A    between atoms: C_2  and  O_3
REMARK    2  A    between atoms: C_2  and  C_4
REMARK    3  A    between atoms: C_4  and  C_6
REMARK    4  A    between atoms: C_9  and  C_10
REMARK                            x       y       z     vdW  Elec       q    Type
REMARK                         _______ _______ _______ _____ _____    ______ ____
ROOT
ATOM      1  C   UNL     1       5.608   6.470  17.376  0.00  0.00    +0.000 A 
ATOM      2  C   UNL     1       4.515   7.299  17.230  0.00  0.00    +0.000 A 
ATOM      3  C   UNL     1       3.312   6.706  17.715  0.00  0.00    +0.000 A 
ATOM      4  C   UNL     1       3.499   5.429  18.216  0.00  0.00    +0.000 A 
ATOM      5  S   UNL     1       5.151   4.974  18.073  0.00  0.00    +0.000 S 
ENDROOT
BRANCH   4   6
ATOM      6  C   UNL     1       2.501   4.522  18.820  0.00  0.00    +0.000 A 
ATOM      7  C   UNL     1       2.055   4.675  20.143  0.00  0.00    +0.000 A 
ATOM      8  C   UNL     1       1.120   3.794  20.696  0.00  0.00    +0.000 A 
ATOM      9  C   UNL     1       0.620   2.739  19.939  0.00  0.00    +0.000 A 
ATOM     10  C   UNL     1       1.049   2.567  18.627  0.00  0.00    +0.000 A 
ATOM     11  C   UNL     1       1.980   3.452  18.073  0.00  0.00    +0.000 A 
ENDBRANCH   4   6
BRANCH   1  12
ATOM     12  C   UNL     1       7.000   6.680  17.035  0.00  0.00    +0.000 C 
ATOM     13  O   UNL     1       7.631   6.128  16.130  0.00  0.00    +0.000 OA
BRANCH  12  15
ATOM     14  O   UNL     1       7.880   8.875  17.677  0.00  0.00    +0.000 OA
ATOM     15  C   UNL     1       7.810   7.681  17.878  0.00  0.00    +0.000 C 
BRANCH  15  16
ATOM     16  O   UNL     1       8.426   7.039  18.898  0.00  0.00    +0.000 OA
ATOM     17  H   UNL     1       8.599   7.678  19.629  0.00  0.00    +0.000 HD
ENDBRANCH  15  16
ENDBRANCH  12  15
ENDBRANCH   1  12
TORSDOF 4
ENDMDL
MODEL 4
REMARK VINA RESULT:      -7.0      3.109      4.058
REMARK  Name = 
REMARK  4 active torsions:
REMARK  status: ('A' for Active; 'I' for Inactive)
REMARK    1  A    between atoms: C_2  and  O_3
REMARK    2  A    between atoms: C_2  and  C_4
REMARK    3  A    between atoms: C_4  and  C_6
REMARK    4  A    between atoms: C_9  and  C_10
REMARK                            x       y       z     vdW  Elec       q    Type
REMARK                         _______ _______ _______ _____ _____    ______ ____
ROOT
ATOM      1  C   UNL     1       5.692   4.888  17.086  0.00  0.00    +0.000 A 
ATOM      2  C   UNL     1       4.692   4.076  17.578  0.00  0.00    +0.000 A 
ATOM      3  C   UNL     1       3.598   4.820  18.113  0.00  0.00    +0.000 A 
ATOM      4  C   UNL     1       3.780   6.189  18.030  0.00  0.00    +0.000 A 
ATOM      5  S   UNL     1       5.300   6.541  17.306  0.00  0.00    +0.000 S 
ENDROOT
BRANCH   4   6
ATOM      6  C   UNL     1       2.863   7.267  18.454  0.00  0.00    +0.000 A 
ATOM      7  C   UNL     1       2.542   8.348  17.617  0.00  0.00    +0.000 A 
ATOM      8  C   UNL     1       1.682   9.364  18.047  0.00  0.00    +0.000 A 
ATOM      9  C   UNL     1       1.132   9.321  19.324  0.00  0.00    +0.000 A 
ATOM     10  C   UNL     1       1.437   8.260  20.171  0.00  0.00    +0.000 A 
ATOM     11  C   UNL     1       2.293   7.242  19.738  0.00  0.00    +0.000 A 
ENDBRANCH   4   6
BRANCH   1  12
ATOM     12  C   UNL     1       6.951   4.553  16.453  0.00  0.00    +0.000 C 
ATOM     13  O   UNL     1       7.997   4.221  17.018  0.00  0.00    +0.000 OA
BRANCH  12  15
ATOM     14  O   UNL     1       7.642   5.453  14.281  0.00  0.00    +0.000 OA
ATOM     15  C   UNL     1       7.031   4.620  14.918  0.00  0.00    +0.000 C 
BRANCH  15  16
ATOM     16  O   UNL     1       6.334   3.598  14.370  0.00  0.00    +0.000 OA
ATOM     17  H   UNL     1       5.424   3.908  14.145  0.00  0.00    +0.000 HD
ENDBRANCH  15  16
ENDBRANCH  12  15
ENDBRANCH   1  12
TORSDOF 4
ENDMDL
MODEL 5
REMARK VINA RESULT:      -7.0      1.978      2.712
REMARK  Name = 
REMARK  4 active torsions:
REMARK  status: ('A' for Active; 'I' for Inactive)
REMARK    1  A    between atoms: C_2  and  O_3
REMARK    2  A    between atoms: C_2  and  C_4
REMARK    3  A    between atoms: C_4  and  C_6
REMARK    4  A    between atoms: C_9  and  C_10
REMARK                            x       y       z     vdW  Elec       q    Type
REMARK                         _______ _______ _______ _____ _____    ______ ____
ROOT
ATOM      1  C   UNL     1       5.706   4.985  16.453  0.00  0.00    +0.000 A 
ATOM      2  C   UNL     1       5.034   6.177  16.633  0.00  0.00    +0.000 A 
ATOM      3  C   UNL     1       3.842   6.021  17.399  0.00  0.00    +0.000 A 
ATOM      4  C   UNL     1       3.611   4.713  17.787  0.00  0.00    +0.000 A 
ATOM      5  S   UNL     1       4.860   3.691  17.192  0.00  0.00    +0.000 S 
ENDROOT
BRANCH   4   6
ATOM      6  C   UNL     1       2.502   4.176  18.601  0.00  0.00    +0.000 A 
ATOM      7  C   UNL     1       1.758   3.052  18.204  0.00  0.00    +0.000 A 
ATOM      8  C   UNL     1       0.702   2.572  18.987  0.00  0.00    +0.000 A 
ATOM      9  C   UNL     1       0.367   3.210  20.176  0.00  0.00    +0.000 A 
ATOM     10  C   UNL     1       1.089   4.326  20.589  0.00  0.00    +0.000 A 
ATOM     11  C   UNL     1       2.148   4.802  19.808  0.00  0.00    +0.000 A 
ENDBRANCH   4   6
BRANCH   1  12
ATOM     12  C   UNL     1       6.945   4.698  15.761  0.00  0.00    +0.000 C 
ATOM     13  O   UNL     1       8.047   4.488  16.274  0.00  0.00    +0.000 OA
BRANCH  12  15
ATOM     14  O   UNL     1       7.442   5.476  13.491  0.00  0.00    +0.000 OA
ATOM     15  C   UNL     1       6.924   4.658  14.222  0.00  0.00    +0.000 C 
BRANCH  15  16
ATOM     16  O   UNL     1       6.256   3.562  13.795  0.00  0.00    +0.000 OA
ATOM     17  H   UNL     1       6.262   2.878  14.507  0.00  0.00    +0.000 HD
ENDBRANCH  15  16
ENDBRANCH  12  15
ENDBRANCH   1  12
TORSDOF 4
ENDMDL
MODEL 6
REMARK VINA RESULT:      -6.9      1.822      2.575
REMARK  Name = 
REMARK  4 active torsions:
REMARK  status: ('A' for Active; 'I' for Inactive)
REMARK    1  A    between atoms: C_2  and  O_3
REMARK    2  A    between atoms: C_2  and  C_4
REMARK    3  A    between atoms: C_4  and  C_6
REMARK    4  A    between atoms: C_9  and  C_10
REMARK                            x       y       z     vdW  Elec       q    Type
REMARK                         _______ _______ _______ _____ _____    ______ ____
ROOT
ATOM      1  C   UNL     1       5.736   4.979  16.632  0.00  0.00    +0.000 A 
ATOM      2  C   UNL     1       4.931   6.099  16.635  0.00  0.00    +0.000 A 
ATOM      3  C   UNL     1       3.763   5.930  17.436  0.00  0.00    +0.000 A 
ATOM      4  C   UNL     1       3.685   4.681  18.026  0.00  0.00    +0.000 A 
ATOM      5  S   UNL     1       5.045   3.729  17.578  0.00  0.00    +0.000 S 
ENDROOT
BRANCH   4   6
ATOM      6  C   UNL     1       2.644   4.154  18.932  0.00  0.00    +0.000 A 
ATOM      7  C   UNL     1       2.645   4.426  20.311  0.00  0.00    +0.000 A 
ATOM      8  C   UNL     1       1.655   3.903  21.150  0.00  0.00    +0.000 A 
ATOM      9  C   UNL     1       0.651   3.094  20.629  0.00  0.00    +0.000 A 
ATOM     10  C   UNL     1       0.631   2.810  19.267  0.00  0.00    +0.000 A 
ATOM     11  C   UNL     1       1.618   3.338  18.427  0.00  0.00    +0.000 A 
ENDBRANCH   4   6
BRANCH   1  12
ATOM     12  C   UNL     1       7.002   4.731  15.973  0.00  0.00    +0.000 C 
ATOM     13  O   UNL     1       8.066   4.416  16.511  0.00  0.00    +0.000 OA
BRANCH  12  15
ATOM     14  O   UNL     1       7.819   5.616  13.839  0.00  0.00    +0.000 OA
ATOM     15  C   UNL     1       7.064   4.882  14.443  0.00  0.00    +0.000 C 
BRANCH  15  16
ATOM     16  O   UNL     1       6.163   4.061  13.857  0.00  0.00    +0.000 OA
ATOM     17  H   UNL     1       6.637   3.304  13.436  0.00  0.00    +0.000 HD
ENDBRANCH  15  16
ENDBRANCH  12  15
ENDBRANCH   1  12
TORSDOF 4
ENDMDL
MODEL 7
REMARK VINA RESULT:      -6.9      1.276      2.461
REMARK  Name = 
REMARK  4 active torsions:
REMARK  status: ('A' for Active; 'I' for Inactive)
REMARK    1  A    between atoms: C_2  and  O_3
REMARK    2  A    between atoms: C_2  and  C_4
REMARK    3  A    between atoms: C_4  and  C_6
REMARK    4  A    between atoms: C_9  and  C_10
REMARK                            x       y       z     vdW  Elec       q    Type
REMARK                         _______ _______ _______ _____ _____    ______ ____
ROOT
ATOM      1  C   UNL     1       5.428   5.688  16.964  0.00  0.00    +0.000 A 
ATOM      2  C   UNL     1       4.352   6.551  17.015  0.00  0.00    +0.000 A 
ATOM      3  C   UNL     1       3.332   6.099  17.904  0.00  0.00    +0.000 A 
ATOM      4  C   UNL     1       3.636   4.895  18.513  0.00  0.00    +0.000 A 
ATOM      5  S   UNL     1       5.169   4.330  17.975  0.00  0.00    +0.000 S 
ENDROOT
BRANCH   4   6
ATOM      6  C   UNL     1       2.842   4.137  19.502  0.00  0.00    +0.000 A 
ATOM      7  C   UNL     1       3.441   3.420  20.551  0.00  0.00    +0.000 A 
ATOM      8  C   UNL     1       2.667   2.698  21.466  0.00  0.00    +0.000 A 
ATOM      9  C   UNL     1       1.281   2.674  21.345  0.00  0.00    +0.000 A 
ATOM     10  C   UNL     1       0.667   3.377  20.313  0.00  0.00    +0.000 A 
ATOM     11  C   UNL     1       1.441   4.102  19.402  0.00  0.00    +0.000 A 
ENDBRANCH   4   6
BRANCH   1  12
ATOM     12  C   UNL     1       6.664   5.769  16.215  0.00  0.00    +0.000 C 
ATOM     13  O   UNL     1       7.665   6.430  16.507  0.00  0.00    +0.000 OA
BRANCH  12  15
ATOM     14  O   UNL     1       5.993   4.114  14.536  0.00  0.00    +0.000 OA
ATOM     15  C   UNL     1       6.771   4.970  14.903  0.00  0.00    +0.000 C 
BRANCH  15  16
ATOM     16  O   UNL     1       7.855   5.371  14.201  0.00  0.00    +0.000 OA
ATOM     17  H   UNL     1       8.515   4.638  14.172  0.00  0.00    +0.000 HD
ENDBRANCH  15  16
ENDBRANCH  12  15
ENDBRANCH   1  12
TORSDOF 4
ENDMDL
MODEL 8
REMARK VINA RESULT:      -6.9      1.249      1.394
REMARK  Name = 
REMARK  4 active torsions:
REMARK  status: ('A' for Active; 'I' for Inactive)
REMARK    1  A    between atoms: C_2  and  O_3
REMARK    2  A    between atoms: C_2  and  C_4
REMARK    3  A    between atoms: C_4  and  C_6
REMARK    4  A    between atoms: C_9  and  C_10
REMARK                            x       y       z     vdW  Elec       q    Type
REMARK                         _______ _______ _______ _____ _____    ______ ____
ROOT
ATOM      1  C   UNL     1       5.557   6.305  17.386  0.00  0.00    +0.000 A 
ATOM      2  C   UNL     1       4.415   7.055  17.197  0.00  0.00    +0.000 A 
ATOM      3  C   UNL     1       3.267   6.465  17.805  0.00  0.00    +0.000 A 
ATOM      4  C   UNL     1       3.545   5.268  18.442  0.00  0.00    +0.000 A 
ATOM      5  S   UNL     1       5.212   4.881  18.273  0.00  0.00    +0.000 S 
ENDROOT
BRANCH   4   6
ATOM      6  C   UNL     1       2.624   4.390  19.194  0.00  0.00    +0.000 A 
ATOM      7  C   UNL     1       1.717   3.532  18.551  0.00  0.00    +0.000 A 
ATOM      8  C   UNL     1       0.845   2.722  19.286  0.00  0.00    +0.000 A 
ATOM      9  C   UNL     1       0.860   2.759  20.677  0.00  0.00    +0.000 A 
ATOM     10  C   UNL     1       1.750   3.604  21.335  0.00  0.00    +0.000 A 
ATOM     11  C   UNL     1       2.624   4.409  20.599  0.00  0.00    +0.000 A 
ENDBRANCH   4   6
BRANCH   1  12
ATOM     12  C   UNL     1       6.920   6.541  16.957  0.00  0.00    +0.000 C 
ATOM     13  O   UNL     1       7.474   6.070  15.960  0.00  0.00    +0.000 OA
BRANCH  12  15
ATOM     14  O   UNL     1       8.395   7.127  18.824  0.00  0.00    +0.000 OA
ATOM     15  C   UNL     1       7.802   7.461  17.819  0.00  0.00    +0.000 C 
BRANCH  15  16
ATOM     16  O   UNL     1       7.840   8.704  17.285  0.00  0.00    +0.000 OA
ATOM     17  H   UNL     1       6.920   9.008  17.101  0.00  0.00    +0.000 HD
ENDBRANCH  15  16
ENDBRANCH  12  15
ENDBRANCH   1  12
TORSDOF 4
ENDMDL
MODEL 9
REMARK VINA RESULT:      -6.8      1.685      2.378
REMARK  Name = 
REMARK  4 active torsions:
REMARK  status: ('A' for Active; 'I' for Inactive)
REMARK    1  A    between atoms: C_2  and  O_3
REMARK    2  A    between atoms: C_2  and  C_4
REMARK    3  A    between atoms: C_4  and  C_6
REMARK    4  A    between atoms: C_9  and  C_10
REMARK                            x       y       z     vdW  Elec       q    Type
REMARK                         _______ _______ _______ _____ _____    ______ ____
ROOT
ATOM      1  C   UNL     1       5.577   4.862  16.599  0.00  0.00    +0.000 A 
ATOM      2  C   UNL     1       4.713   5.935  16.676  0.00  0.00    +0.000 A 
ATOM      3  C   UNL     1       3.666   5.726  17.621  0.00  0.00    +0.000 A 
ATOM      4  C   UNL     1       3.737   4.494  18.248  0.00  0.00    +0.000 A 
ATOM      5  S   UNL     1       5.086   3.607  17.657  0.00  0.00    +0.000 S 
ENDROOT
BRANCH   4   6
ATOM      6  C   UNL     1       2.850   3.940  19.292  0.00  0.00    +0.000 A 
ATOM      7  C   UNL     1       1.460   4.137  19.274  0.00  0.00    +0.000 A 
ATOM      8  C   UNL     1       0.643   3.613  20.282  0.00  0.00    +0.000 A 
ATOM      9  C   UNL     1       1.202   2.890  21.330  0.00  0.00    +0.000 A 
ATOM     10  C   UNL     1       2.578   2.683  21.369  0.00  0.00    +0.000 A 
ATOM     11  C   UNL     1       3.393   3.202  20.357  0.00  0.00    +0.000 A 
ENDBRANCH   4   6
BRANCH   1  12
ATOM     12  C   UNL     1       6.764   4.665  15.793  0.00  0.00    +0.000 C 
ATOM     13  O   UNL     1       7.922   4.542  16.199  0.00  0.00    +0.000 OA
BRANCH  12  15
ATOM     14  O   UNL     1       5.758   3.975  13.668  0.00  0.00    +0.000 OA
ATOM     15  C   UNL     1       6.600   4.613  14.263  0.00  0.00    +0.000 C 
BRANCH  15  16
ATOM     16  O   UNL     1       7.526   5.402  13.670  0.00  0.00    +0.000 OA
ATOM     17  H   UNL     1       8.097   4.850  13.083  0.00  0.00    +0.000 HD
ENDBRANCH  15  16
ENDBRANCH  12  15
ENDBRANCH   1  12
TORSDOF 4
ENDMDL
