MODEL 1
REMARK VINA RESULT:      -5.8      0.000      0.000
REMARK  Name = 
REMARK  1 active torsions:
REMARK  status: ('A' for Active; 'I' for Inactive)
REMARK    1  A    between atoms: C_1  and  N_2
REMARK                            x       y       z     vdW  Elec       q    Type
REMARK                         _______ _______ _______ _____ _____    ______ ____
ROOT
ATOM      1  C   UNL     1       2.785   6.940  18.299  0.00  0.00    +0.000 C 
ATOM      2  N   UNL     1       3.572   5.749  18.569  0.00  0.00    +0.000 N 
ATOM      3  C   UNL     1       4.876   5.691  18.087  0.00  0.00    +0.000 C 
ATOM      4  O   UNL     1       5.450   6.657  17.575  0.00  0.00    +0.000 OA
ATOM      5  C   UNL     1       5.549   4.324  18.093  0.00  0.00    +0.000 C 
ATOM      6  N   UNL     1       5.112   3.388  19.121  0.00  0.00    +0.000 N 
ATOM      7  C   UNL     1       3.853   3.589  19.689  0.00  0.00    +0.000 A 
ATOM      8  C   UNL     1       3.361   2.602  20.554  0.00  0.00    +0.000 A 
ATOM      9  C   UNL     1       2.090   2.703  21.116  0.00  0.00    +0.000 A 
ATOM     10  C   UNL     1       1.288   3.794  20.808  0.00  0.00    +0.000 A 
ATOM     11  C   UNL     1       1.760   4.786  19.945  0.00  0.00    +0.000 A 
ATOM     12  C   UNL     1       3.042   4.701  19.379  0.00  0.00    +0.000 A 
ATOM     13  H   UNL     1       5.821   3.138  19.804  0.00  0.00    +0.000 HD
ENDROOT
TORSDOF 0
ENDMDL
MODEL 2
REMARK VINA RESULT:      -5.8      2.332      2.996
REMARK  Name = 
REMARK  1 active torsions:
REMARK  status: ('A' for Active; 'I' for Inactive)
REMARK    1  A    between atoms: C_1  and  N_2
REMARK                            x       y       z     vdW  Elec       q    Type
REMARK                         _______ _______ _______ _____ _____    ______ ____
ROOT
ATOM      1  C   UNL     1       5.704   5.330  15.036  0.00  0.00    +0.000 C 
ATOM      2  N   UNL     1       5.985   5.173  16.454  0.00  0.00    +0.000 N 
ATOM      3  C   UNL     1       7.046   5.885  17.004  0.00  0.00    +0.000 C 
ATOM      4  O   UNL     1       7.664   6.759  16.388  0.00  0.00    +0.000 OA
ATOM      5  C   UNL     1       7.518   5.453  18.386  0.00  0.00    +0.000 C 
ATOM      6  N   UNL     1       6.516   4.852  19.258  0.00  0.00    +0.000 N 
ATOM      7  C   UNL     1       5.388   4.291  18.658  0.00  0.00    +0.000 A 
ATOM      8  C   UNL     1       4.506   3.568  19.474  0.00  0.00    +0.000 A 
ATOM      9  C   UNL     1       3.387   2.931  18.941  0.00  0.00    +0.000 A 
ATOM     10  C   UNL     1       3.143   3.001  17.576  0.00  0.00    +0.000 A 
ATOM     11  C   UNL     1       4.014   3.712  16.747  0.00  0.00    +0.000 A 
ATOM     12  C   UNL     1       5.139   4.367  17.273  0.00  0.00    +0.000 A 
ATOM     13  H   UNL     1       6.299   5.386  20.094  0.00  0.00    +0.000 HD
ENDROOT
TORSDOF 0
ENDMDL
MODEL 3
REMARK VINA RESULT:      -5.8      2.377      3.946
REMARK  Name = 
REMARK  1 active torsions:
REMARK  status: ('A' for Active; 'I' for Inactive)
REMARK    1  A    between atoms: C_1  and  N_2
REMARK                            x       y       z     vdW  Elec       q    Type
REMARK                         _______ _______ _______ _____ _____    ______ ____
ROOT
ATOM      1  C   UNL     1       1.530   4.354  17.816  0.00  0.00    +0.000 C 
ATOM      2  N   UNL     1       2.806   3.928  18.367  0.00  0.00    +0.000 N 
ATOM      3  C   UNL     1       2.877   2.689  18.998  0.00  0.00    +0.000 C 
ATOM      4  O   UNL     1       1.954   1.869  18.981  0.00  0.00    +0.000 OA
ATOM      5  C   UNL     1       4.115   2.422  19.845  0.00  0.00    +0.000 C 
ATOM      6  N   UNL     1       5.338   3.103  19.442  0.00  0.00    +0.000 N 
ATOM      7  C   UNL     1       5.213   4.259  18.670  0.00  0.00    +0.000 A 
ATOM      8  C   UNL     1       6.372   5.008  18.421  0.00  0.00    +0.000 A 
ATOM      9  C   UNL     1       6.320   6.203  17.705  0.00  0.00    +0.000 A 
ATOM     10  C   UNL     1       5.099   6.670  17.238  0.00  0.00    +0.000 A 
ATOM     11  C   UNL     1       3.933   5.940  17.480  0.00  0.00    +0.000 A 
ATOM     12  C   UNL     1       3.973   4.729  18.191  0.00  0.00    +0.000 A 
ATOM     13  H   UNL     1       6.086   2.493  19.127  0.00  0.00    +0.000 HD
ENDROOT
TORSDOF 0
ENDMDL
MODEL 4
REMARK VINA RESULT:      -5.7      2.041      2.097
REMARK  Name = 
REMARK  1 active torsions:
REMARK  status: ('A' for Active; 'I' for Inactive)
REMARK    1  A    between atoms: C_1  and  N_2
REMARK                            x       y       z     vdW  Elec       q    Type
REMARK                         _______ _______ _______ _____ _____    ______ ____
ROOT
ATOM      1  C   UNL     1       3.631   7.347  17.529  0.00  0.00    +0.000 C 
ATOM      2  N   UNL     1       4.204   6.039  17.256  0.00  0.00    +0.000 N 
ATOM      3  C   UNL     1       5.520   5.970  16.811  0.00  0.00    +0.000 C 
ATOM      4  O   UNL     1       6.275   6.947  16.782  0.00  0.00    +0.000 OA
ATOM      5  C   UNL     1       5.976   4.641  16.222  0.00  0.00    +0.000 C 
ATOM      6  N   UNL     1       5.316   3.445  16.730  0.00  0.00    +0.000 N 
ATOM      7  C   UNL     1       4.058   3.596  17.315  0.00  0.00    +0.000 A 
ATOM      8  C   UNL     1       3.350   2.434  17.653  0.00  0.00    +0.000 A 
ATOM      9  C   UNL     1       2.066   2.501  18.190  0.00  0.00    +0.000 A 
ATOM     10  C   UNL     1       1.467   3.739  18.385  0.00  0.00    +0.000 A 
ATOM     11  C   UNL     1       2.156   4.907  18.050  0.00  0.00    +0.000 A 
ATOM     12  C   UNL     1       3.454   4.854  17.517  0.00  0.00    +0.000 A 
ATOM     13  H   UNL     1       5.919   2.806  17.240  0.00  0.00    +0.000 HD
ENDROOT
TORSDOF 0
ENDMDL
MODEL 5
REMARK VINA RESULT:      -5.7      2.190      2.942
REMARK  Name = 
REMARK  1 active torsions:
REMARK  status: ('A' for Active; 'I' for Inactive)
REMARK    1  A    between atoms: C_1  and  N_2
REMARK                            x       y       z     vdW  Elec       q    Type
REMARK                         _______ _______ _______ _____ _____    ______ ____
ROOT
ATOM      1  C   UNL     1       6.991   5.559  19.353  0.00  0.00    +0.000 C 
ATOM      2  N   UNL     1       6.187   5.015  18.271  0.00  0.00    +0.000 N 
ATOM      3  C   UNL     1       6.837   4.509  17.150  0.00  0.00    +0.000 C 
ATOM      4  O   UNL     1       8.062   4.357  17.090  0.00  0.00    +0.000 OA
ATOM      5  C   UNL     1       5.981   4.262  15.914  0.00  0.00    +0.000 C 
ATOM      6  N   UNL     1       4.579   3.940  16.148  0.00  0.00    +0.000 N 
ATOM      7  C   UNL     1       4.018   4.332  17.364  0.00  0.00    +0.000 A 
ATOM      8  C   UNL     1       2.634   4.175  17.527  0.00  0.00    +0.000 A 
ATOM      9  C   UNL     1       1.991   4.594  18.690  0.00  0.00    +0.000 A 
ATOM     10  C   UNL     1       2.728   5.189  19.705  0.00  0.00    +0.000 A 
ATOM     11  C   UNL     1       4.107   5.359  19.559  0.00  0.00    +0.000 A 
ATOM     12  C   UNL     1       4.769   4.932  18.396  0.00  0.00    +0.000 A 
ATOM     13  H   UNL     1       4.299   3.007  15.863  0.00  0.00    +0.000 HD
ENDROOT
TORSDOF 0
ENDMDL
MODEL 6
REMARK VINA RESULT:      -5.7      1.778      2.381
REMARK  Name = 
REMARK  1 active torsions:
REMARK  status: ('A' for Active; 'I' for Inactive)
REMARK    1  A    between atoms: C_1  and  N_2
REMARK                            x       y       z     vdW  Elec       q    Type
REMARK                         _______ _______ _______ _____ _____    ______ ____
ROOT
ATOM      1  C   UNL     1       4.879   6.914  15.866  0.00  0.00    +0.000 C 
ATOM      2  N   UNL     1       5.462   5.945  16.779  0.00  0.00    +0.000 N 
ATOM      3  C   UNL     1       6.849   5.864  16.866  0.00  0.00    +0.000 C 
ATOM      4  O   UNL     1       7.607   6.674  16.324  0.00  0.00    +0.000 OA
ATOM      5  C   UNL     1       7.422   4.636  17.562  0.00  0.00    +0.000 C 
ATOM      6  N   UNL     1       6.592   4.027  18.594  0.00  0.00    +0.000 N 
ATOM      7  C   UNL     1       5.219   4.274  18.552  0.00  0.00    +0.000 A 
ATOM      8  C   UNL     1       4.400   3.560  19.439  0.00  0.00    +0.000 A 
ATOM      9  C   UNL     1       3.014   3.710  19.420  0.00  0.00    +0.000 A 
ATOM     10  C   UNL     1       2.429   4.571  18.501  0.00  0.00    +0.000 A 
ATOM     11  C   UNL     1       3.229   5.287  17.607  0.00  0.00    +0.000 A 
ATOM     12  C   UNL     1       4.627   5.153  17.622  0.00  0.00    +0.000 A 
ATOM     13  H   UNL     1       6.976   4.069  19.534  0.00  0.00    +0.000 HD
ENDROOT
TORSDOF 0
ENDMDL
MODEL 7
REMARK VINA RESULT:      -5.7      2.181      3.823
REMARK  Name = 
REMARK  1 active torsions:
REMARK  status: ('A' for Active; 'I' for Inactive)
REMARK    1  A    between atoms: C_1  and  N_2
REMARK                            x       y       z     vdW  Elec       q    Type
REMARK                         _______ _______ _______ _____ _____    ______ ____
ROOT
ATOM      1  C   UNL     1       1.725   5.172  20.652  0.00  0.00    +0.000 C 
ATOM      2  N   UNL     1       2.811   4.370  20.114  0.00  0.00    +0.000 N 
ATOM      3  C   UNL     1       2.975   3.070  20.584  0.00  0.00    +0.000 C 
ATOM      4  O   UNL     1       2.155   2.511  21.319  0.00  0.00    +0.000 OA
ATOM      5  C   UNL     1       4.295   2.385  20.259  0.00  0.00    +0.000 C 
ATOM      6  N   UNL     1       4.960   2.802  19.031  0.00  0.00    +0.000 N 
ATOM      7  C   UNL     1       4.637   4.058  18.513  0.00  0.00    +0.000 A 
ATOM      8  C   UNL     1       5.392   4.532  17.430  0.00  0.00    +0.000 A 
ATOM      9  C   UNL     1       5.167   5.798  16.894  0.00  0.00    +0.000 A 
ATOM     10  C   UNL     1       4.187   6.613  17.444  0.00  0.00    +0.000 A 
ATOM     11  C   UNL     1       3.429   6.160  18.526  0.00  0.00    +0.000 A 
ATOM     12  C   UNL     1       3.638   4.882  19.070  0.00  0.00    +0.000 A 
ATOM     13  H   UNL     1       5.034   2.084  18.317  0.00  0.00    +0.000 HD
ENDROOT
TORSDOF 0
ENDMDL
MODEL 8
REMARK VINA RESULT:      -5.6      2.072      3.081
REMARK  Name = 
REMARK  1 active torsions:
REMARK  status: ('A' for Active; 'I' for Inactive)
REMARK    1  A    between atoms: C_1  and  N_2
REMARK                            x       y       z     vdW  Elec       q    Type
REMARK                         _______ _______ _______ _____ _____    ______ ____
ROOT
ATOM      1  C   UNL     1       5.742   3.962  15.923  0.00  0.00    +0.000 C 
ATOM      2  N   UNL     1       4.763   4.774  16.626  0.00  0.00    +0.000 N 
ATOM      3  C   UNL     1       4.848   6.159  16.520  0.00  0.00    +0.000 C 
ATOM      4  O   UNL     1       5.615   6.730  15.739  0.00  0.00    +0.000 OA
ATOM      5  C   UNL     1       4.034   6.974  17.516  0.00  0.00    +0.000 C 
ATOM      6  N   UNL     1       2.813   6.358  18.018  0.00  0.00    +0.000 N 
ATOM      7  C   UNL     1       2.714   4.967  17.953  0.00  0.00    +0.000 A 
ATOM      8  C   UNL     1       1.618   4.359  18.583  0.00  0.00    +0.000 A 
ATOM      9  C   UNL     1       1.479   2.973  18.609  0.00  0.00    +0.000 A 
ATOM     10  C   UNL     1       2.445   2.174  18.012  0.00  0.00    +0.000 A 
ATOM     11  C   UNL     1       3.546   2.762  17.385  0.00  0.00    +0.000 A 
ATOM     12  C   UNL     1       3.694   4.158  17.342  0.00  0.00    +0.000 A 
ATOM     13  H   UNL     1       1.954   6.831  17.755  0.00  0.00    +0.000 HD
ENDROOT
TORSDOF 0
ENDMDL
MODEL 9
REMARK VINA RESULT:      -5.6      2.248      4.120
REMARK  Name = 
REMARK  1 active torsions:
REMARK  status: ('A' for Active; 'I' for Inactive)
REMARK    1  A    between atoms: C_1  and  N_2
REMARK                            x       y       z     vdW  Elec       q    Type
REMARK                         _______ _______ _______ _____ _____    ______ ____
ROOT
ATOM      1  C   UNL     1       2.629   6.041  19.644  0.00  0.00    +0.000 C 
ATOM      2  N   UNL     1       3.203   4.903  18.947  0.00  0.00    +0.000 N 
ATOM      3  C   UNL     1       2.858   3.622  19.368  0.00  0.00    +0.000 C 
ATOM      4  O   UNL     1       1.973   3.401  20.201  0.00  0.00    +0.000 OA
ATOM      5  C   UNL     1       3.717   2.475  18.852  0.00  0.00    +0.000 C 
ATOM      6  N   UNL     1       4.344   2.667  17.551  0.00  0.00    +0.000 N 
ATOM      7  C   UNL     1       4.523   3.977  17.103  0.00  0.00    +0.000 A 
ATOM      8  C   UNL     1       5.272   4.173  15.934  0.00  0.00    +0.000 A 
ATOM      9  C   UNL     1       5.541   5.453  15.455  0.00  0.00    +0.000 A 
ATOM     10  C   UNL     1       5.069   6.560  16.149  0.00  0.00    +0.000 A 
ATOM     11  C   UNL     1       4.325   6.384  17.318  0.00  0.00    +0.000 A 
ATOM     12  C   UNL     1       4.039   5.099  17.807  0.00  0.00    +0.000 A 
ATOM     13  H   UNL     1       4.023   2.038  16.821  0.00  0.00    +0.000 HD
ENDROOT
TORSDOF 0
ENDMDL
