MODEL 1
REMARK VINA RESULT:      -8.7      0.000      0.000
REMARK  Name = 
REMARK  7 active torsions:
REMARK  status: ('A' for Active; 'I' for Inactive)
REMARK    1  A    between atoms: O_1  and  N_2
REMARK    2  A    between atoms: C_3  and  C_4
REMARK    3  A    between atoms: C_3  and  C_11
REMARK    4  A    between atoms: C_4  and  C_5
REMARK    5  A    between atoms: C_13  and  C_14
REMARK    6  A    between atoms: C_17  and  O_18
REMARK    7  A    between atoms: C_24  and  O_25
REMARK                            x       y       z     vdW  Elec       q    Type
REMARK                         _______ _______ _______ _____ _____    ______ ____
ROOT
ATOM      1  C   UNL     1       4.686   4.847  17.540  0.00  0.00    +0.000 A 
ATOM      2  C   UNL     1       4.105   6.094  17.853  0.00  0.00    +0.000 A 
ATOM      3  C   UNL     1       2.736   6.214  18.163  0.00  0.00    +0.000 A 
ATOM      4  C   UNL     1       1.955   5.046  18.077  0.00  0.00    +0.000 A 
ATOM      5  C   UNL     1       2.517   3.806  17.774  0.00  0.00    +0.000 A 
ATOM      6  C   UNL     1       3.878   3.707  17.544  0.00  0.00    +0.000 A 
ENDROOT
BRANCH   3   7
ATOM      7  C   UNL     1       2.136   7.484  18.630  0.00  0.00    +0.000 A 
ATOM      8  C   UNL     1       1.967   8.584  17.770  0.00  0.00    +0.000 A 
ATOM      9  C   UNL     1       1.494   9.816  18.233  0.00  0.00    +0.000 A 
ATOM     10  C   UNL     1       1.186   9.974  19.577  0.00  0.00    +0.000 A 
ATOM     11  C   UNL     1       1.335   8.899  20.444  0.00  0.00    +0.000 A 
ATOM     12  F   UNL     1       1.055   9.037  21.752  0.00  0.00    +0.000 F 
ATOM     13  C   UNL     1       1.793   7.673  19.984  0.00  0.00    +0.000 A 
BRANCH  10  14
ATOM     14  O   UNL     1       0.740  11.168  20.067  0.00  0.00    +0.000 OA
ATOM     15  H   UNL     1       0.201  11.003  20.856  0.00  0.00    +0.000 HD
ENDBRANCH  10  14
ENDBRANCH   3   7
BRANCH   1  17
ATOM     16  N   UNL     1       6.908   4.087  18.011  0.00  0.00    +0.000 NA
ATOM     17  C   UNL     1       6.142   4.792  17.218  0.00  0.00    +0.000 C 
BRANCH  16  18
ATOM     18  O   UNL     1       8.257   4.177  17.669  0.00  0.00    +0.000 OA
ATOM     19  H   UNL     1       8.245   4.007  16.709  0.00  0.00    +0.000 HD
ENDBRANCH  16  18
BRANCH  17  20
ATOM     20  C   UNL     1       6.656   5.636  16.041  0.00  0.00    +0.000 C 
BRANCH  20  21
ATOM     21  C   UNL     1       6.724   4.954  14.687  0.00  0.00    +0.000 A 
ATOM     22  C   UNL     1       7.688   5.269  13.721  0.00  0.00    +0.000 A 
ATOM     23  C   UNL     1       7.597   4.736  12.432  0.00  0.00    +0.000 A 
ATOM     24  C   UNL     1       6.577   3.841  12.113  0.00  0.00    +0.000 A 
ATOM     25  C   UNL     1       5.690   3.424  13.101  0.00  0.00    +0.000 A 
ATOM     26  C   UNL     1       5.772   3.968  14.384  0.00  0.00    +0.000 A 
ENDBRANCH  20  21
ENDBRANCH  17  20
ENDBRANCH   1  17
BRANCH   6  27
ATOM     27  O   UNL     1       4.426   2.470  17.377  0.00  0.00    +0.000 OA
ATOM     28  H   UNL     1       3.761   1.786  17.572  0.00  0.00    +0.000 HD
ENDBRANCH   6  27
TORSDOF 7
ENDMDL
MODEL 2
REMARK VINA RESULT:      -8.5      0.898      1.314
REMARK  Name = 
REMARK  7 active torsions:
REMARK  status: ('A' for Active; 'I' for Inactive)
REMARK    1  A    between atoms: O_1  and  N_2
REMARK    2  A    between atoms: C_3  and  C_4
REMARK    3  A    between atoms: C_3  and  C_11
REMARK    4  A    between atoms: C_4  and  C_5
REMARK    5  A    between atoms: C_13  and  C_14
REMARK    6  A    between atoms: C_17  and  O_18
REMARK    7  A    between atoms: C_24  and  O_25
REMARK                            x       y       z     vdW  Elec       q    Type
REMARK                         _______ _______ _______ _____ _____    ______ ____
ROOT
ATOM      1  C   UNL     1       4.613   4.834  17.637  0.00  0.00    +0.000 A 
ATOM      2  C   UNL     1       4.063   6.064  18.057  0.00  0.00    +0.000 A 
ATOM      3  C   UNL     1       2.727   6.164  18.493  0.00  0.00    +0.000 A 
ATOM      4  C   UNL     1       1.942   4.998  18.425  0.00  0.00    +0.000 A 
ATOM      5  C   UNL     1       2.474   3.774  18.017  0.00  0.00    +0.000 A 
ATOM      6  C   UNL     1       3.810   3.692  17.662  0.00  0.00    +0.000 A 
ENDROOT
BRANCH   3   7
ATOM      7  C   UNL     1       2.170   7.408  19.069  0.00  0.00    +0.000 A 
ATOM      8  C   UNL     1       1.733   7.474  20.405  0.00  0.00    +0.000 A 
ATOM      9  C   UNL     1       1.114   8.618  20.923  0.00  0.00    +0.000 A 
ATOM     10  C   UNL     1       0.913   9.721  20.105  0.00  0.00    +0.000 A 
ATOM     11  C   UNL     1       1.346   9.684  18.786  0.00  0.00    +0.000 A 
ATOM     12  F   UNL     1       1.148  10.737  17.975  0.00  0.00    +0.000 F 
ATOM     13  C   UNL     1       1.970   8.555  18.274  0.00  0.00    +0.000 A 
BRANCH  10  14
ATOM     14  O   UNL     1       0.297  10.847  20.572  0.00  0.00    +0.000 OA
ATOM     15  H   UNL     1       0.169  11.464  19.835  0.00  0.00    +0.000 HD
ENDBRANCH  10  14
ENDBRANCH   3   7
BRANCH   1  17
ATOM     16  N   UNL     1       6.876   4.094  17.895  0.00  0.00    +0.000 NA
ATOM     17  C   UNL     1       6.035   4.800  17.184  0.00  0.00    +0.000 C 
BRANCH  16  18
ATOM     18  O   UNL     1       8.188   4.204  17.432  0.00  0.00    +0.000 OA
ATOM     19  H   UNL     1       8.177   3.653  16.628  0.00  0.00    +0.000 HD
ENDBRANCH  16  18
BRANCH  17  20
ATOM     20  C   UNL     1       6.431   5.666  15.977  0.00  0.00    +0.000 C 
BRANCH  20  21
ATOM     21  C   UNL     1       6.558   4.959  14.640  0.00  0.00    +0.000 A 
ATOM     22  C   UNL     1       7.600   5.213  13.738  0.00  0.00    +0.000 A 
ATOM     23  C   UNL     1       7.571   4.664  12.453  0.00  0.00    +0.000 A 
ATOM     24  C   UNL     1       6.535   3.812  12.077  0.00  0.00    +0.000 A 
ATOM     25  C   UNL     1       5.564   3.452  13.007  0.00  0.00    +0.000 A 
ATOM     26  C   UNL     1       5.584   4.013  14.285  0.00  0.00    +0.000 A 
ENDBRANCH  20  21
ENDBRANCH  17  20
ENDBRANCH   1  17
BRANCH   6  27
ATOM     27  O   UNL     1       4.340   2.467  17.391  0.00  0.00    +0.000 OA
ATOM     28  H   UNL     1       3.642   1.869  17.069  0.00  0.00    +0.000 HD
ENDBRANCH   6  27
TORSDOF 7
ENDMDL
MODEL 3
REMARK VINA RESULT:      -8.5      1.549      1.820
REMARK  Name = 
REMARK  7 active torsions:
REMARK  status: ('A' for Active; 'I' for Inactive)
REMARK    1  A    between atoms: O_1  and  N_2
REMARK    2  A    between atoms: C_3  and  C_4
REMARK    3  A    between atoms: C_3  and  C_11
REMARK    4  A    between atoms: C_4  and  C_5
REMARK    5  A    between atoms: C_13  and  C_14
REMARK    6  A    between atoms: C_17  and  O_18
REMARK    7  A    between atoms: C_24  and  O_25
REMARK                            x       y       z     vdW  Elec       q    Type
REMARK                         _______ _______ _______ _____ _____    ______ ____
ROOT
ATOM      1  C   UNL     1       5.184   5.249  19.133  0.00  0.00    +0.000 A 
ATOM      2  C   UNL     1       4.401   6.421  19.059  0.00  0.00    +0.000 A 
ATOM      3  C   UNL     1       2.994   6.368  19.026  0.00  0.00    +0.000 A 
ATOM      4  C   UNL     1       2.402   5.091  18.997  0.00  0.00    +0.000 A 
ATOM      5  C   UNL     1       3.163   3.924  19.074  0.00  0.00    +0.000 A 
ATOM      6  C   UNL     1       4.541   4.010  19.178  0.00  0.00    +0.000 A 
ENDROOT
BRANCH   3   7
ATOM      7  C   UNL     1       2.151   7.582  19.091  0.00  0.00    +0.000 A 
ATOM      8  C   UNL     1       1.929   8.391  17.961  0.00  0.00    +0.000 A 
ATOM      9  C   UNL     1       1.217   9.593  18.044  0.00  0.00    +0.000 A 
ATOM     10  C   UNL     1       0.717  10.014  19.267  0.00  0.00    +0.000 A 
ATOM     11  C   UNL     1       0.914   9.227  20.395  0.00  0.00    +0.000 A 
ATOM     12  F   UNL     1       0.449   9.625  21.592  0.00  0.00    +0.000 F 
ATOM     13  C   UNL     1       1.610   8.030  20.313  0.00  0.00    +0.000 A 
BRANCH  10  14
ATOM     14  O   UNL     1       0.033  11.190  19.388  0.00  0.00    +0.000 OA
ATOM     15  H   UNL     1      -0.615  11.106  20.104  0.00  0.00    +0.000 HD
ENDBRANCH  10  14
ENDBRANCH   3   7
BRANCH   1  17
ATOM     16  N   UNL     1       7.273   5.152  20.301  0.00  0.00    +0.000 NA
ATOM     17  C   UNL     1       6.671   5.379  19.162  0.00  0.00    +0.000 C 
BRANCH  16  18
ATOM     18  O   UNL     1       8.647   5.386  20.234  0.00  0.00    +0.000 OA
ATOM     19  H   UNL     1       8.747   6.210  20.745  0.00  0.00    +0.000 HD
ENDBRANCH  16  18
BRANCH  17  20
ATOM     20  C   UNL     1       7.381   5.857  17.885  0.00  0.00    +0.000 C 
BRANCH  20  21
ATOM     21  C   UNL     1       6.752   5.461  16.562  0.00  0.00    +0.000 A 
ATOM     22  C   UNL     1       5.831   6.269  15.883  0.00  0.00    +0.000 A 
ATOM     23  C   UNL     1       5.154   5.779  14.761  0.00  0.00    +0.000 A 
ATOM     24  C   UNL     1       5.434   4.504  14.275  0.00  0.00    +0.000 A 
ATOM     25  C   UNL     1       6.439   3.744  14.866  0.00  0.00    +0.000 A 
ATOM     26  C   UNL     1       7.103   4.226  15.995  0.00  0.00    +0.000 A 
ENDBRANCH  20  21
ENDBRANCH  17  20
ENDBRANCH   1  17
BRANCH   6  27
ATOM     27  O   UNL     1       5.255   2.867  19.382  0.00  0.00    +0.000 OA
ATOM     28  H   UNL     1       6.091   2.909  18.885  0.00  0.00    +0.000 HD
ENDBRANCH   6  27
TORSDOF 7
ENDMDL
MODEL 4
REMARK VINA RESULT:      -8.1      1.824      2.297
REMARK  Name = 
REMARK  7 active torsions:
REMARK  status: ('A' for Active; 'I' for Inactive)
REMARK    1  A    between atoms: O_1  and  N_2
REMARK    2  A    between atoms: C_3  and  C_4
REMARK    3  A    between atoms: C_3  and  C_11
REMARK    4  A    between atoms: C_4  and  C_5
REMARK    5  A    between atoms: C_13  and  C_14
REMARK    6  A    between atoms: C_17  and  O_18
REMARK    7  A    between atoms: C_24  and  O_25
REMARK                            x       y       z     vdW  Elec       q    Type
REMARK                         _______ _______ _______ _____ _____    ______ ____
ROOT
ATOM      1  C   UNL     1       5.124   5.292  19.262  0.00  0.00    +0.000 A 
ATOM      2  C   UNL     1       4.317   6.443  19.383  0.00  0.00    +0.000 A 
ATOM      3  C   UNL     1       2.912   6.357  19.434  0.00  0.00    +0.000 A 
ATOM      4  C   UNL     1       2.343   5.078  19.287  0.00  0.00    +0.000 A 
ATOM      5  C   UNL     1       3.129   3.931  19.171  0.00  0.00    +0.000 A 
ATOM      6  C   UNL     1       4.509   4.040  19.197  0.00  0.00    +0.000 A 
ENDROOT
BRANCH   3   7
ATOM      7  C   UNL     1       2.054   7.532  19.702  0.00  0.00    +0.000 A 
ATOM      8  C   UNL     1       1.364   7.683  20.920  0.00  0.00    +0.000 A 
ATOM      9  C   UNL     1       0.474   8.740  21.136  0.00  0.00    +0.000 A 
ATOM     10  C   UNL     1       0.249   9.668  20.129  0.00  0.00    +0.000 A 
ATOM     11  C   UNL     1       0.926   9.546  18.922  0.00  0.00    +0.000 A 
ATOM     12  F   UNL     1       0.711  10.428  17.930  0.00  0.00    +0.000 F 
ATOM     13  C   UNL     1       1.817   8.505  18.710  0.00  0.00    +0.000 A 
BRANCH  10  14
ATOM     14  O   UNL     1      -0.627  10.702  20.300  0.00  0.00    +0.000 OA
ATOM     15  H   UNL     1      -1.061  10.609  21.162  0.00  0.00    +0.000 HD
ENDBRANCH  10  14
ENDBRANCH   3   7
BRANCH   1  17
ATOM     16  N   UNL     1       7.284   5.155  20.289  0.00  0.00    +0.000 NA
ATOM     17  C   UNL     1       6.607   5.456  19.211  0.00  0.00    +0.000 C 
BRANCH  16  18
ATOM     18  O   UNL     1       8.645   5.428  20.158  0.00  0.00    +0.000 OA
ATOM     19  H   UNL     1       9.029   4.542  20.030  0.00  0.00    +0.000 HD
ENDBRANCH  16  18
BRANCH  17  20
ATOM     20  C   UNL     1       7.226   6.051  17.936  0.00  0.00    +0.000 C 
BRANCH  20  21
ATOM     21  C   UNL     1       6.667   5.566  16.612  0.00  0.00    +0.000 A 
ATOM     22  C   UNL     1       5.737   6.297  15.861  0.00  0.00    +0.000 A 
ATOM     23  C   UNL     1       5.126   5.726  14.741  0.00  0.00    +0.000 A 
ATOM     24  C   UNL     1       5.480   4.444  14.327  0.00  0.00    +0.000 A 
ATOM     25  C   UNL     1       6.494   3.759  14.989  0.00  0.00    +0.000 A 
ATOM     26  C   UNL     1       7.093   4.323  16.117  0.00  0.00    +0.000 A 
ENDBRANCH  20  21
ENDBRANCH  17  20
ENDBRANCH   1  17
BRANCH   6  27
ATOM     27  O   UNL     1       5.255   2.900  19.212  0.00  0.00    +0.000 OA
ATOM     28  H   UNL     1       4.669   2.123  19.227  0.00  0.00    +0.000 HD
ENDBRANCH   6  27
TORSDOF 7
ENDMDL
MODEL 5
REMARK VINA RESULT:      -8.1      4.481      6.186
REMARK  Name = 
REMARK  7 active torsions:
REMARK  status: ('A' for Active; 'I' for Inactive)
REMARK    1  A    between atoms: O_1  and  N_2
REMARK    2  A    between atoms: C_3  and  C_4
REMARK    3  A    between atoms: C_3  and  C_11
REMARK    4  A    between atoms: C_4  and  C_5
REMARK    5  A    between atoms: C_13  and  C_14
REMARK    6  A    between atoms: C_17  and  O_18
REMARK    7  A    between atoms: C_24  and  O_25
REMARK                            x       y       z     vdW  Elec       q    Type
REMARK                         _______ _______ _______ _____ _____    ______ ____
ROOT
ATOM      1  C   UNL     1       7.294   6.187  17.043  0.00  0.00    +0.000 A 
ATOM      2  C   UNL     1       7.568   7.568  17.147  0.00  0.00    +0.000 A 
ATOM      3  C   UNL     1       8.171   8.116  18.297  0.00  0.00    +0.000 A 
ATOM      4  C   UNL     1       8.425   7.238  19.367  0.00  0.00    +0.000 A 
ATOM      5  C   UNL     1       8.165   5.870  19.276  0.00  0.00    +0.000 A 
ATOM      6  C   UNL     1       7.637   5.349  18.106  0.00  0.00    +0.000 A 
ENDROOT
BRANCH   3   7
ATOM      7  C   UNL     1       8.595   9.531  18.373  0.00  0.00    +0.000 A 
ATOM      8  C   UNL     1       9.486   9.985  19.363  0.00  0.00    +0.000 A 
ATOM      9  C   UNL     1       9.809  11.339  19.500  0.00  0.00    +0.000 A 
ATOM     10  C   UNL     1       9.237  12.273  18.646  0.00  0.00    +0.000 A 
ATOM     11  C   UNL     1       8.363  11.848  17.654  0.00  0.00    +0.000 A 
ATOM     12  F   UNL     1       7.789  12.738  16.827  0.00  0.00    +0.000 F 
ATOM     13  C   UNL     1       8.050  10.504  17.510  0.00  0.00    +0.000 A 
BRANCH  10  14
ATOM     14  O   UNL     1       9.516  13.604  18.762  0.00  0.00    +0.000 OA
ATOM     15  H   UNL     1       8.694  14.084  18.947  0.00  0.00    +0.000 HD
ENDBRANCH  10  14
ENDBRANCH   3   7
BRANCH   1  17
ATOM     16  N   UNL     1       7.433   5.173  14.878  0.00  0.00    +0.000 NA
ATOM     17  C   UNL     1       6.650   5.675  15.798  0.00  0.00    +0.000 C 
BRANCH  16  18
ATOM     18  O   UNL     1       6.736   4.806  13.726  0.00  0.00    +0.000 OA
ATOM     19  H   UNL     1       7.319   5.127  13.014  0.00  0.00    +0.000 HD
ENDBRANCH  16  18
BRANCH  17  20
ATOM     20  C   UNL     1       5.132   5.854  15.641  0.00  0.00    +0.000 C 
BRANCH  20  21
ATOM     21  C   UNL     1       4.266   5.418  16.809  0.00  0.00    +0.000 A 
ATOM     22  C   UNL     1       3.656   6.324  17.687  0.00  0.00    +0.000 A 
ATOM     23  C   UNL     1       3.017   5.866  18.843  0.00  0.00    +0.000 A 
ATOM     24  C   UNL     1       2.931   4.499  19.103  0.00  0.00    +0.000 A 
ATOM     25  C   UNL     1       3.421   3.587  18.173  0.00  0.00    +0.000 A 
ATOM     26  C   UNL     1       4.074   4.044  17.027  0.00  0.00    +0.000 A 
ENDBRANCH  20  21
ENDBRANCH  17  20
ENDBRANCH   1  17
BRANCH   6  27
ATOM     27  O   UNL     1       7.510   3.998  17.990  0.00  0.00    +0.000 OA
ATOM     28  H   UNL     1       8.076   3.674  17.267  0.00  0.00    +0.000 HD
ENDBRANCH   6  27
TORSDOF 7
ENDMDL
MODEL 6
REMARK VINA RESULT:      -8.0      4.656      6.375
REMARK  Name = 
REMARK  7 active torsions:
REMARK  status: ('A' for Active; 'I' for Inactive)
REMARK    1  A    between atoms: O_1  and  N_2
REMARK    2  A    between atoms: C_3  and  C_4
REMARK    3  A    between atoms: C_3  and  C_11
REMARK    4  A    between atoms: C_4  and  C_5
REMARK    5  A    between atoms: C_13  and  C_14
REMARK    6  A    between atoms: C_17  and  O_18
REMARK    7  A    between atoms: C_24  and  O_25
REMARK                            x       y       z     vdW  Elec       q    Type
REMARK                         _______ _______ _______ _____ _____    ______ ____
ROOT
ATOM      1  C   UNL     1       7.332   6.276  17.084  0.00  0.00    +0.000 A 
ATOM      2  C   UNL     1       7.600   7.654  17.229  0.00  0.00    +0.000 A 
ATOM      3  C   UNL     1       8.207   8.169  18.391  0.00  0.00    +0.000 A 
ATOM      4  C   UNL     1       8.470   7.260  19.433  0.00  0.00    +0.000 A 
ATOM      5  C   UNL     1       8.215   5.895  19.301  0.00  0.00    +0.000 A 
ATOM      6  C   UNL     1       7.683   5.408  18.119  0.00  0.00    +0.000 A 
ENDROOT
BRANCH   3   7
ATOM      7  C   UNL     1       8.627   9.584  18.508  0.00  0.00    +0.000 A 
ATOM      8  C   UNL     1       8.174  10.567  17.608  0.00  0.00    +0.000 A 
ATOM      9  C   UNL     1       8.648  11.882  17.655  0.00  0.00    +0.000 A 
ATOM     10  C   UNL     1       9.594  12.240  18.605  0.00  0.00    +0.000 A 
ATOM     11  C   UNL     1      10.048  11.289  19.511  0.00  0.00    +0.000 A 
ATOM     12  F   UNL     1      10.975  11.613  20.429  0.00  0.00    +0.000 F 
ATOM     13  C   UNL     1       9.571   9.987  19.473  0.00  0.00    +0.000 A 
BRANCH  10  14
ATOM     14  O   UNL     1      10.091  13.510  18.668  0.00  0.00    +0.000 OA
ATOM     15  H   UNL     1      11.005  13.507  18.344  0.00  0.00    +0.000 HD
ENDBRANCH  10  14
ENDBRANCH   3   7
BRANCH   1  17
ATOM     16  N   UNL     1       7.446   5.210  14.942  0.00  0.00    +0.000 NA
ATOM     17  C   UNL     1       6.683   5.799  15.827  0.00  0.00    +0.000 C 
BRANCH  16  18
ATOM     18  O   UNL     1       6.755   4.885  13.775  0.00  0.00    +0.000 OA
ATOM     19  H   UNL     1       6.608   5.757  13.365  0.00  0.00    +0.000 HD
ENDBRANCH  16  18
BRANCH  17  20
ATOM     20  C   UNL     1       5.193   6.112  15.617  0.00  0.00    +0.000 C 
BRANCH  20  21
ATOM     21  C   UNL     1       4.274   5.896  16.804  0.00  0.00    +0.000 A 
ATOM     22  C   UNL     1       3.891   4.625  17.252  0.00  0.00    +0.000 A 
ATOM     23  C   UNL     1       2.908   4.489  18.237  0.00  0.00    +0.000 A 
ATOM     24  C   UNL     1       2.341   5.619  18.823  0.00  0.00    +0.000 A 
ATOM     25  C   UNL     1       2.805   6.884  18.476  0.00  0.00    +0.000 A 
ATOM     26  C   UNL     1       3.776   7.020  17.482  0.00  0.00    +0.000 A 
ENDBRANCH  20  21
ENDBRANCH  17  20
ENDBRANCH   1  17
BRANCH   6  27
ATOM     27  O   UNL     1       7.561   4.060  17.963  0.00  0.00    +0.000 OA
ATOM     28  H   UNL     1       7.711   3.821  17.031  0.00  0.00    +0.000 HD
ENDBRANCH   6  27
TORSDOF 7
ENDMDL
MODEL 7
REMARK VINA RESULT:      -8.0      2.196      3.340
REMARK  Name = 
REMARK  7 active torsions:
REMARK  status: ('A' for Active; 'I' for Inactive)
REMARK    1  A    between atoms: O_1  and  N_2
REMARK    2  A    between atoms: C_3  and  C_4
REMARK    3  A    between atoms: C_3  and  C_11
REMARK    4  A    between atoms: C_4  and  C_5
REMARK    5  A    between atoms: C_13  and  C_14
REMARK    6  A    between atoms: C_17  and  O_18
REMARK    7  A    between atoms: C_24  and  O_25
REMARK                            x       y       z     vdW  Elec       q    Type
REMARK                         _______ _______ _______ _____ _____    ______ ____
ROOT
ATOM      1  C   UNL     1       4.311   4.242  16.997  0.00  0.00    +0.000 A 
ATOM      2  C   UNL     1       3.797   5.498  17.380  0.00  0.00    +0.000 A 
ATOM      3  C   UNL     1       2.780   5.615  18.348  0.00  0.00    +0.000 A 
ATOM      4  C   UNL     1       2.247   4.419  18.866  0.00  0.00    +0.000 A 
ATOM      5  C   UNL     1       2.750   3.170  18.499  0.00  0.00    +0.000 A 
ATOM      6  C   UNL     1       3.799   3.090  17.599  0.00  0.00    +0.000 A 
ENDROOT
BRANCH   3   7
ATOM      7  C   UNL     1       2.324   6.924  18.868  0.00  0.00    +0.000 A 
ATOM      8  C   UNL     1       1.901   7.084  20.201  0.00  0.00    +0.000 A 
ATOM      9  C   UNL     1       1.376   8.294  20.666  0.00  0.00    +0.000 A 
ATOM     10  C   UNL     1       1.256   9.372  19.800  0.00  0.00    +0.000 A 
ATOM     11  C   UNL     1       1.677   9.241  18.482  0.00  0.00    +0.000 A 
ATOM     12  F   UNL     1       1.555  10.269  17.624  0.00  0.00    +0.000 F 
ATOM     13  C   UNL     1       2.208   8.045  18.022  0.00  0.00    +0.000 A 
BRANCH  10  14
ATOM     14  O   UNL     1       0.731  10.562  20.215  0.00  0.00    +0.000 OA
ATOM     15  H   UNL     1       0.236  10.961  19.483  0.00  0.00    +0.000 HD
ENDBRANCH  10  14
ENDBRANCH   3   7
BRANCH   1  17
ATOM     16  N   UNL     1       5.018   4.005  14.720  0.00  0.00    +0.000 NA
ATOM     17  C   UNL     1       5.386   4.190  15.962  0.00  0.00    +0.000 C 
BRANCH  16  18
ATOM     18  O   UNL     1       6.105   3.886  13.854  0.00  0.00    +0.000 OA
ATOM     19  H   UNL     1       6.035   2.963  13.550  0.00  0.00    +0.000 HD
ENDBRANCH  16  18
BRANCH  17  20
ATOM     20  C   UNL     1       6.848   4.264  16.432  0.00  0.00    +0.000 C 
BRANCH  20  21
ATOM     21  C   UNL     1       7.245   5.482  17.245  0.00  0.00    +0.000 A 
ATOM     22  C   UNL     1       7.197   6.787  16.738  0.00  0.00    +0.000 A 
ATOM     23  C   UNL     1       7.738   7.850  17.468  0.00  0.00    +0.000 A 
ATOM     24  C   UNL     1       8.278   7.628  18.733  0.00  0.00    +0.000 A 
ATOM     25  C   UNL     1       8.215   6.358  19.299  0.00  0.00    +0.000 A 
ATOM     26  C   UNL     1       7.689   5.294  18.564  0.00  0.00    +0.000 A 
ENDBRANCH  20  21
ENDBRANCH  17  20
ENDBRANCH   1  17
BRANCH   6  27
ATOM     27  O   UNL     1       4.358   1.873  17.352  0.00  0.00    +0.000 OA
ATOM     28  H   UNL     1       3.745   1.167  17.624  0.00  0.00    +0.000 HD
ENDBRANCH   6  27
TORSDOF 7
ENDMDL
MODEL 8
REMARK VINA RESULT:      -8.0      4.539      6.269
REMARK  Name = 
REMARK  7 active torsions:
REMARK  status: ('A' for Active; 'I' for Inactive)
REMARK    1  A    between atoms: O_1  and  N_2
REMARK    2  A    between atoms: C_3  and  C_4
REMARK    3  A    between atoms: C_3  and  C_11
REMARK    4  A    between atoms: C_4  and  C_5
REMARK    5  A    between atoms: C_13  and  C_14
REMARK    6  A    between atoms: C_17  and  O_18
REMARK    7  A    between atoms: C_24  and  O_25
REMARK                            x       y       z     vdW  Elec       q    Type
REMARK                         _______ _______ _______ _____ _____    ______ ____
ROOT
ATOM      1  C   UNL     1       7.301   6.300  17.104  0.00  0.00    +0.000 A 
ATOM      2  C   UNL     1       7.582   7.678  17.212  0.00  0.00    +0.000 A 
ATOM      3  C   UNL     1       8.211   8.216  18.352  0.00  0.00    +0.000 A 
ATOM      4  C   UNL     1       8.484   7.330  19.411  0.00  0.00    +0.000 A 
ATOM      5  C   UNL     1       8.216   5.964  19.316  0.00  0.00    +0.000 A 
ATOM      6  C   UNL     1       7.663   5.453  18.154  0.00  0.00    +0.000 A 
ENDROOT
BRANCH   3   7
ATOM      7  C   UNL     1       8.642   9.630  18.429  0.00  0.00    +0.000 A 
ATOM      8  C   UNL     1       9.516  10.084  19.435  0.00  0.00    +0.000 A 
ATOM      9  C   UNL     1       9.844  11.437  19.570  0.00  0.00    +0.000 A 
ATOM     10  C   UNL     1       9.295  12.369  18.701  0.00  0.00    +0.000 A 
ATOM     11  C   UNL     1       8.438  11.944  17.693  0.00  0.00    +0.000 A 
ATOM     12  F   UNL     1       7.885  12.833  16.850  0.00  0.00    +0.000 F 
ATOM     13  C   UNL     1       8.120  10.601  17.551  0.00  0.00    +0.000 A 
BRANCH  10  14
ATOM     14  O   UNL     1       9.579  13.699  18.815  0.00  0.00    +0.000 OA
ATOM     15  H   UNL     1       9.582  14.098  17.931  0.00  0.00    +0.000 HD
ENDBRANCH  10  14
ENDBRANCH   3   7
BRANCH   1  17
ATOM     16  N   UNL     1       7.380   5.208  14.974  0.00  0.00    +0.000 NA
ATOM     17  C   UNL     1       6.630   5.798  15.869  0.00  0.00    +0.000 C 
BRANCH  16  18
ATOM     18  O   UNL     1       6.666   4.858  13.827  0.00  0.00    +0.000 OA
ATOM     19  H   UNL     1       6.126   5.653  13.663  0.00  0.00    +0.000 HD
ENDBRANCH  16  18
BRANCH  17  20
ATOM     20  C   UNL     1       5.131   6.088  15.691  0.00  0.00    +0.000 C 
BRANCH  20  21
ATOM     21  C   UNL     1       4.206   5.616  16.797  0.00  0.00    +0.000 A 
ATOM     22  C   UNL     1       3.887   4.268  17.003  0.00  0.00    +0.000 A 
ATOM     23  C   UNL     1       2.897   3.908  17.922  0.00  0.00    +0.000 A 
ATOM     24  C   UNL     1       2.259   4.885  18.684  0.00  0.00    +0.000 A 
ATOM     25  C   UNL     1       2.658   6.214  18.578  0.00  0.00    +0.000 A 
ATOM     26  C   UNL     1       3.635   6.575  17.649  0.00  0.00    +0.000 A 
ENDBRANCH  20  21
ENDBRANCH  17  20
ENDBRANCH   1  17
BRANCH   6  27
ATOM     27  O   UNL     1       7.528   4.103  18.033  0.00  0.00    +0.000 OA
ATOM     28  H   UNL     1       7.897   3.663  18.819  0.00  0.00    +0.000 HD
ENDBRANCH   6  27
TORSDOF 7
ENDMDL
MODEL 9
REMARK VINA RESULT:      -7.9      2.044      3.097
REMARK  Name = 
REMARK  7 active torsions:
REMARK  status: ('A' for Active; 'I' for Inactive)
REMARK    1  A    between atoms: O_1  and  N_2
REMARK    2  A    between atoms: C_3  and  C_4
REMARK    3  A    between atoms: C_3  and  C_11
REMARK    4  A    between atoms: C_4  and  C_5
REMARK    5  A    between atoms: C_13  and  C_14
REMARK    6  A    between atoms: C_17  and  O_18
REMARK    7  A    between atoms: C_24  and  O_25
REMARK                            x       y       z     vdW  Elec       q    Type
REMARK                         _______ _______ _______ _____ _____    ______ ____
ROOT
ATOM      1  C   UNL     1       4.228   4.408  17.181  0.00  0.00    +0.000 A 
ATOM      2  C   UNL     1       3.695   5.670  17.516  0.00  0.00    +0.000 A 
ATOM      3  C   UNL     1       2.518   5.795  18.279  0.00  0.00    +0.000 A 
ATOM      4  C   UNL     1       1.855   4.605  18.634  0.00  0.00    +0.000 A 
ATOM      5  C   UNL     1       2.374   3.350  18.314  0.00  0.00    +0.000 A 
ATOM      6  C   UNL     1       3.571   3.258  17.624  0.00  0.00    +0.000 A 
ENDROOT
BRANCH   3   7
ATOM      7  C   UNL     1       2.018   7.102  18.762  0.00  0.00    +0.000 A 
ATOM      8  C   UNL     1       1.870   8.203  17.898  0.00  0.00    +0.000 A 
ATOM      9  C   UNL     1       1.496   9.465  18.370  0.00  0.00    +0.000 A 
ATOM     10  C   UNL     1       1.267   9.653  19.726  0.00  0.00    +0.000 A 
ATOM     11  C   UNL     1       1.397   8.578  20.597  0.00  0.00    +0.000 A 
ATOM     12  F   UNL     1       1.193   8.744  21.916  0.00  0.00    +0.000 F 
ATOM     13  C   UNL     1       1.757   7.323  20.129  0.00  0.00    +0.000 A 
BRANCH  10  14
ATOM     14  O   UNL     1       0.918  10.875  20.224  0.00  0.00    +0.000 OA
ATOM     15  H   UNL     1       1.010  10.860  21.190  0.00  0.00    +0.000 HD
ENDBRANCH  10  14
ENDBRANCH   3   7
BRANCH   1  17
ATOM     16  N   UNL     1       5.348   4.159  15.078  0.00  0.00    +0.000 NA
ATOM     17  C   UNL     1       5.478   4.349  16.366  0.00  0.00    +0.000 C 
BRANCH  16  18
ATOM     18  O   UNL     1       6.577   4.033  14.431  0.00  0.00    +0.000 OA
ATOM     19  H   UNL     1       6.534   4.733  13.754  0.00  0.00    +0.000 HD
ENDBRANCH  16  18
BRANCH  17  20
ATOM     20  C   UNL     1       6.826   4.420  17.101  0.00  0.00    +0.000 C 
BRANCH  20  21
ATOM     21  C   UNL     1       7.267   5.787  17.591  0.00  0.00    +0.000 A 
ATOM     22  C   UNL     1       7.083   6.961  16.848  0.00  0.00    +0.000 A 
ATOM     23  C   UNL     1       7.663   8.161  17.268  0.00  0.00    +0.000 A 
ATOM     24  C   UNL     1       8.380   8.214  18.461  0.00  0.00    +0.000 A 
ATOM     25  C   UNL     1       8.460   7.084  19.270  0.00  0.00    +0.000 A 
ATOM     26  C   UNL     1       7.895   5.881  18.843  0.00  0.00    +0.000 A 
ENDBRANCH  20  21
ENDBRANCH  17  20
ENDBRANCH   1  17
BRANCH   6  27
ATOM     27  O   UNL     1       4.124   2.028  17.433  0.00  0.00    +0.000 OA
ATOM     28  H   UNL     1       3.421   1.356  17.371  0.00  0.00    +0.000 HD
ENDBRANCH   6  27
TORSDOF 7
ENDMDL
