MODEL 1
REMARK VINA RESULT:      -8.5      0.000      0.000
REMARK  Name = 
REMARK  3 active torsions:
REMARK  status: ('A' for Active; 'I' for Inactive)
REMARK    1  A    between atoms: C_7  and  C_8
REMARK    2  A    between atoms: N_13  and  C_14
REMARK    3  A    between atoms: N_19  and  C_20
REMARK                            x       y       z     vdW  Elec       q    Type
REMARK                         _______ _______ _______ _____ _____    ______ ____
ROOT
ATOM      1  C   UNL     1       3.784   6.902  17.834  0.00  0.00    +0.000 A 
ATOM      2  C   UNL     1       4.350   7.657  16.778  0.00  0.00    +0.000 A 
ATOM      3  N   UNL     1       5.004   6.897  15.885  0.00  0.00    +0.000 NA
ATOM      4  N   UNL     1       4.824   5.647  16.380  0.00  0.00    +0.000 N 
ATOM      5  C   UNL     1       5.323   4.479  15.787  0.00  0.00    +0.000 A 
ATOM      6  N   UNL     1       6.096   4.649  14.649  0.00  0.00    +0.000 N 
ATOM      7  N   UNL     1       5.036   3.337  16.352  0.00  0.00    +0.000 NA
ATOM      8  C   UNL     1       4.286   3.324  17.513  0.00  0.00    +0.000 A 
ATOM      9  N   UNL     1       4.056   2.096  18.055  0.00  0.00    +0.000 N 
ATOM     10  N   UNL     1       3.817   4.396  18.098  0.00  0.00    +0.000 NA
ATOM     11  C   UNL     1       4.082   5.593  17.521  0.00  0.00    +0.000 A 
ATOM     12  H   UNL     1       6.188   5.625  14.362  0.00  0.00    +0.000 HD
ATOM     13  H   UNL     1       4.398   1.346  17.470  0.00  0.00    +0.000 HD
ENDROOT
BRANCH   1  20
ATOM     14  O   UNL     1      -0.182  10.451  17.576  0.00  0.00    +0.000 OA
ATOM     15  C   UNL     1       0.472   9.715  18.288  0.00  0.00    +0.000 C 
ATOM     16  N   UNL     1       0.349   9.581  19.649  0.00  0.00    +0.000 N 
ATOM     17  C   UNL     1       1.287   8.726  20.156  0.00  0.00    +0.000 C 
ATOM     18  O   UNL     1       1.488   8.434  21.321  0.00  0.00    +0.000 OA
ATOM     19  C   UNL     1       2.045   8.240  18.962  0.00  0.00    +0.000 C 
ATOM     20  C   UNL     1       3.059   7.370  18.976  0.00  0.00    +0.000 C 
ATOM     21  N   UNL     1       1.485   8.868  17.884  0.00  0.00    +0.000 N 
ATOM     22  H   UNL     1      -0.303  10.110  20.199  0.00  0.00    +0.000 HD
ATOM     23  H   UNL     1       1.852   8.833  16.937  0.00  0.00    +0.000 HD
ENDBRANCH   1  20
BRANCH   9  24
ATOM     24  C   UNL     1       2.921   1.785  18.908  0.00  0.00    +0.000 C 
ATOM     25  C   UNL     1       3.021   2.478  20.266  0.00  0.00    +0.000 C 
ATOM     26  C   UNL     1       1.585   2.630  20.747  0.00  0.00    +0.000 C 
ATOM     27  C   UNL     1       0.709   2.616  19.500  0.00  0.00    +0.000 C 
ATOM     28  C   UNL     1       1.636   2.363  18.316  0.00  0.00    +0.000 C 
ENDBRANCH   9  24
BRANCH   6  29
ATOM     29  C   UNL     1       6.136   3.608  13.627  0.00  0.00    +0.000 C 
ATOM     30  C   UNL     1       5.221   3.638  12.435  0.00  0.00    +0.000 C 
ATOM     31  C   UNL     1       6.681   3.928  12.259  0.00  0.00    +0.000 C 
ENDBRANCH   6  29
TORSDOF 3
ENDMDL
MODEL 2
REMARK VINA RESULT:      -8.2      1.092      1.157
REMARK  Name = 
REMARK  3 active torsions:
REMARK  status: ('A' for Active; 'I' for Inactive)
REMARK    1  A    between atoms: C_7  and  C_8
REMARK    2  A    between atoms: N_13  and  C_14
REMARK    3  A    between atoms: N_19  and  C_20
REMARK                            x       y       z     vdW  Elec       q    Type
REMARK                         _______ _______ _______ _____ _____    ______ ____
ROOT
ATOM      1  C   UNL     1       3.052   7.226  18.426  0.00  0.00    +0.000 A 
ATOM      2  C   UNL     1       3.596   8.026  17.391  0.00  0.00    +0.000 A 
ATOM      3  N   UNL     1       4.509   7.376  16.654  0.00  0.00    +0.000 NA
ATOM      4  N   UNL     1       4.518   6.143  17.221  0.00  0.00    +0.000 N 
ATOM      5  C   UNL     1       5.321   5.078  16.794  0.00  0.00    +0.000 A 
ATOM      6  N   UNL     1       6.195   5.346  15.752  0.00  0.00    +0.000 N 
ATOM      7  N   UNL     1       5.194   3.932  17.408  0.00  0.00    +0.000 NA
ATOM      8  C   UNL     1       4.307   3.823  18.462  0.00  0.00    +0.000 A 
ATOM      9  N   UNL     1       4.257   2.604  19.068  0.00  0.00    +0.000 N 
ATOM     10  N   UNL     1       3.553   4.801  18.894  0.00  0.00    +0.000 NA
ATOM     11  C   UNL     1       3.649   5.995  18.260  0.00  0.00    +0.000 A 
ATOM     12  H   UNL     1       6.128   6.303  15.401  0.00  0.00    +0.000 HD
ATOM     13  H   UNL     1       4.822   1.914  18.594  0.00  0.00    +0.000 HD
ENDROOT
BRANCH   1  20
ATOM     14  O   UNL     1       0.633  11.970  18.625  0.00  0.00    +0.000 OA
ATOM     15  C   UNL     1       0.728  10.862  19.114  0.00  0.00    +0.000 C 
ATOM     16  N   UNL     1       0.050  10.398  20.214  0.00  0.00    +0.000 N 
ATOM     17  C   UNL     1       0.443   9.132  20.550  0.00  0.00    +0.000 C 
ATOM     18  O   UNL     1       0.083   8.460  21.499  0.00  0.00    +0.000 OA
ATOM     19  C   UNL     1       1.444   8.755  19.506  0.00  0.00    +0.000 C 
ATOM     20  C   UNL     1       2.093   7.589  19.425  0.00  0.00    +0.000 C 
ATOM     21  N   UNL     1       1.547   9.839  18.678  0.00  0.00    +0.000 N 
ATOM     22  H   UNL     1      -0.595  10.958  20.742  0.00  0.00    +0.000 HD
ATOM     23  H   UNL     1       2.231   9.937  17.933  0.00  0.00    +0.000 HD
ENDBRANCH   1  20
BRANCH   9  24
ATOM     24  C   UNL     1       3.099   2.107  19.794  0.00  0.00    +0.000 C 
ATOM     25  C   UNL     1       2.921   2.811  21.137  0.00  0.00    +0.000 C 
ATOM     26  C   UNL     1       1.434   2.716  21.447  0.00  0.00    +0.000 C 
ATOM     27  C   UNL     1       0.724   2.547  20.109  0.00  0.00    +0.000 C 
ATOM     28  C   UNL     1       1.812   2.452  19.046  0.00  0.00    +0.000 C 
ENDBRANCH   9  24
BRANCH   6  29
ATOM     29  C   UNL     1       6.589   4.285  14.831  0.00  0.00    +0.000 C 
ATOM     30  C   UNL     1       5.734   3.906  13.654  0.00  0.00    +0.000 C 
ATOM     31  C   UNL     1       7.025   4.636  13.432  0.00  0.00    +0.000 C 
ENDBRANCH   6  29
TORSDOF 3
ENDMDL
MODEL 3
REMARK VINA RESULT:      -8.0      4.088      9.812
REMARK  Name = 
REMARK  3 active torsions:
REMARK  status: ('A' for Active; 'I' for Inactive)
REMARK    1  A    between atoms: C_7  and  C_8
REMARK    2  A    between atoms: N_13  and  C_14
REMARK    3  A    between atoms: N_19  and  C_20
REMARK                            x       y       z     vdW  Elec       q    Type
REMARK                         _______ _______ _______ _____ _____    ______ ____
ROOT
ATOM      1  C   UNL     1       1.059   9.160  20.926  0.00  0.00    +0.000 A 
ATOM      2  C   UNL     1       1.093   9.237  22.340  0.00  0.00    +0.000 A 
ATOM      3  N   UNL     1       0.210  10.118  22.836  0.00  0.00    +0.000 NA
ATOM      4  N   UNL     1      -0.399  10.582  21.716  0.00  0.00    +0.000 N 
ATOM      5  C   UNL     1      -1.423  11.539  21.708  0.00  0.00    +0.000 A 
ATOM      6  N   UNL     1      -1.779  12.069  22.938  0.00  0.00    +0.000 N 
ATOM      7  N   UNL     1      -1.949  11.861  20.557  0.00  0.00    +0.000 NA
ATOM      8  C   UNL     1      -1.462  11.278  19.402  0.00  0.00    +0.000 A 
ATOM      9  N   UNL     1      -2.042  11.691  18.241  0.00  0.00    +0.000 N 
ATOM     10  N   UNL     1      -0.499  10.393  19.374  0.00  0.00    +0.000 NA
ATOM     11  C   UNL     1       0.049  10.024  20.558  0.00  0.00    +0.000 A 
ATOM     12  H   UNL     1      -1.256  11.671  23.720  0.00  0.00    +0.000 HD
ATOM     13  H   UNL     1      -2.823  12.312  18.400  0.00  0.00    +0.000 HD
ENDROOT
BRANCH   1  20
ATOM     14  O   UNL     1       1.831   3.923  21.534  0.00  0.00    +0.000 OA
ATOM     15  C   UNL     1       2.051   4.906  20.855  0.00  0.00    +0.000 C 
ATOM     16  N   UNL     1       2.828   4.954  19.724  0.00  0.00    +0.000 N 
ATOM     17  C   UNL     1       2.933   6.228  19.240  0.00  0.00    +0.000 C 
ATOM     18  O   UNL     1       3.590   6.622  18.293  0.00  0.00    +0.000 OA
ATOM     19  C   UNL     1       2.082   7.053  20.152  0.00  0.00    +0.000 C 
ATOM     20  C   UNL     1       1.875   8.370  20.055  0.00  0.00    +0.000 C 
ATOM     21  N   UNL     1       1.580   6.184  21.081  0.00  0.00    +0.000 N 
ATOM     22  H   UNL     1       3.316   4.157  19.354  0.00  0.00    +0.000 HD
ATOM     23  H   UNL     1       1.053   6.457  21.906  0.00  0.00    +0.000 HD
ENDBRANCH   1  20
BRANCH   9  24
ATOM     24  C   UNL     1      -2.085  10.892  17.028  0.00  0.00    +0.000 C 
ATOM     25  C   UNL     1      -2.976   9.661  17.187  0.00  0.00    +0.000 C 
ATOM     26  C   UNL     1      -3.455   9.327  15.781  0.00  0.00    +0.000 C 
ATOM     27  C   UNL     1      -3.376  10.621  14.979  0.00  0.00    +0.000 C 
ATOM     28  C   UNL     1      -2.764  11.670  15.901  0.00  0.00    +0.000 C 
ENDBRANCH   9  24
BRANCH   6  29
ATOM     29  C   UNL     1      -3.142  12.537  23.170  0.00  0.00    +0.000 C 
ATOM     30  C   UNL     1      -3.841  12.310  24.482  0.00  0.00    +0.000 C 
ATOM     31  C   UNL     1      -3.384  13.689  24.110  0.00  0.00    +0.000 C 
ENDBRANCH   6  29
TORSDOF 3
ENDMDL
MODEL 4
REMARK VINA RESULT:      -7.8      5.553      9.752
REMARK  Name = 
REMARK  3 active torsions:
REMARK  status: ('A' for Active; 'I' for Inactive)
REMARK    1  A    between atoms: C_7  and  C_8
REMARK    2  A    between atoms: N_13  and  C_14
REMARK    3  A    between atoms: N_19  and  C_20
REMARK                            x       y       z     vdW  Elec       q    Type
REMARK                         _______ _______ _______ _____ _____    ______ ____
ROOT
ATOM      1  C   UNL     1      -3.617  11.143  17.324  0.00  0.00    +0.000 A 
ATOM      2  C   UNL     1      -3.224  10.119  16.427  0.00  0.00    +0.000 A 
ATOM      3  N   UNL     1      -1.952   9.730  16.605  0.00  0.00    +0.000 NA
ATOM      4  N   UNL     1      -1.552  10.507  17.643  0.00  0.00    +0.000 N 
ATOM      5  C   UNL     1      -0.274  10.470  18.217  0.00  0.00    +0.000 A 
ATOM      6  N   UNL     1       0.639   9.609  17.627  0.00  0.00    +0.000 N 
ATOM      7  N   UNL     1      -0.042  11.245  19.241  0.00  0.00    +0.000 NA
ATOM      8  C   UNL     1      -1.040  12.085  19.696  0.00  0.00    +0.000 A 
ATOM      9  N   UNL     1      -0.708  12.883  20.749  0.00  0.00    +0.000 N 
ATOM     10  N   UNL     1      -2.239  12.153  19.176  0.00  0.00    +0.000 NA
ATOM     11  C   UNL     1      -2.514  11.343  18.125  0.00  0.00    +0.000 A 
ATOM     12  H   UNL     1       0.252   9.079  16.845  0.00  0.00    +0.000 HD
ATOM     13  H   UNL     1       0.213  12.680  21.111  0.00  0.00    +0.000 HD
ENDROOT
BRANCH   1  20
ATOM     14  O   UNL     1      -7.420   9.956  20.863  0.00  0.00    +0.000 OA
ATOM     15  C   UNL     1      -7.072  10.691  19.961  0.00  0.00    +0.000 C 
ATOM     16  N   UNL     1      -7.808  11.714  19.417  0.00  0.00    +0.000 N 
ATOM     17  C   UNL     1      -7.158  12.298  18.365  0.00  0.00    +0.000 C 
ATOM     18  O   UNL     1      -7.555  13.187  17.634  0.00  0.00    +0.000 OA
ATOM     19  C   UNL     1      -5.848  11.582  18.283  0.00  0.00    +0.000 C 
ATOM     20  C   UNL     1      -4.873  11.826  17.403  0.00  0.00    +0.000 C 
ATOM     21  N   UNL     1      -5.871  10.646  19.281  0.00  0.00    +0.000 N 
ATOM     22  H   UNL     1      -8.740  11.943  19.715  0.00  0.00    +0.000 HD
ATOM     23  H   UNL     1      -5.169   9.924  19.415  0.00  0.00    +0.000 HD
ENDBRANCH   1  20
BRANCH   9  24
ATOM     24  C   UNL     1      -1.672  13.422  21.694  0.00  0.00    +0.000 C 
ATOM     25  C   UNL     1      -1.268  13.146  23.141  0.00  0.00    +0.000 C 
ATOM     26  C   UNL     1      -1.915  14.256  23.957  0.00  0.00    +0.000 C 
ATOM     27  C   UNL     1      -2.130  15.425  23.003  0.00  0.00    +0.000 C 
ATOM     28  C   UNL     1      -1.692  14.949  21.623  0.00  0.00    +0.000 C 
ENDBRANCH   9  24
BRANCH   6  29
ATOM     29  C   UNL     1       1.704   9.010  18.425  0.00  0.00    +0.000 C 
ATOM     30  C   UNL     1       1.952   7.527  18.422  0.00  0.00    +0.000 C 
ATOM     31  C   UNL     1       2.921   8.445  17.740  0.00  0.00    +0.000 C 
ENDBRANCH   6  29
TORSDOF 3
ENDMDL
MODEL 5
REMARK VINA RESULT:      -7.8      5.859      9.871
REMARK  Name = 
REMARK  3 active torsions:
REMARK  status: ('A' for Active; 'I' for Inactive)
REMARK    1  A    between atoms: C_7  and  C_8
REMARK    2  A    between atoms: N_13  and  C_14
REMARK    3  A    between atoms: N_19  and  C_20
REMARK                            x       y       z     vdW  Elec       q    Type
REMARK                         _______ _______ _______ _____ _____    ______ ____
ROOT
ATOM      1  C   UNL     1      -3.237  11.021  17.462  0.00  0.00    +0.000 A 
ATOM      2  C   UNL     1      -2.587  10.046  16.665  0.00  0.00    +0.000 A 
ATOM      3  N   UNL     1      -1.393   9.681  17.158  0.00  0.00    +0.000 NA
ATOM      4  N   UNL     1      -1.307  10.422  18.292  0.00  0.00    +0.000 N 
ATOM      5  C   UNL     1      -0.224  10.391  19.180  0.00  0.00    +0.000 A 
ATOM      6  N   UNL     1       0.842   9.580  18.823  0.00  0.00    +0.000 N 
ATOM      7  N   UNL     1      -0.295  11.128  20.256  0.00  0.00    +0.000 NA
ATOM      8  C   UNL     1      -1.407  11.923  20.461  0.00  0.00    +0.000 A 
ATOM      9  N   UNL     1      -1.390  12.683  21.591  0.00  0.00    +0.000 N 
ATOM     10  N   UNL     1      -2.428  11.984  19.646  0.00  0.00    +0.000 NA
ATOM     11  C   UNL     1      -2.390  11.213  18.532  0.00  0.00    +0.000 A 
ATOM     12  H   UNL     1       0.692   9.074  17.948  0.00  0.00    +0.000 HD
ATOM     13  H   UNL     1      -0.590  12.487  22.177  0.00  0.00    +0.000 HD
ENDROOT
BRANCH   1  20
ATOM     14  O   UNL     1      -7.292  10.944  20.918  0.00  0.00    +0.000 OA
ATOM     15  C   UNL     1      -6.876  11.361  19.856  0.00  0.00    +0.000 C 
ATOM     16  N   UNL     1      -7.567  12.144  18.964  0.00  0.00    +0.000 N 
ATOM     17  C   UNL     1      -6.839  12.377  17.831  0.00  0.00    +0.000 C 
ATOM     18  O   UNL     1      -7.179  12.981  16.829  0.00  0.00    +0.000 OA
ATOM     19  C   UNL     1      -5.530  11.698  18.073  0.00  0.00    +0.000 C 
ATOM     20  C   UNL     1      -4.492  11.669  17.231  0.00  0.00    +0.000 C 
ATOM     21  N   UNL     1      -5.629  11.126  19.312  0.00  0.00    +0.000 N 
ATOM     22  H   UNL     1      -8.517  12.438  19.108  0.00  0.00    +0.000 HD
ATOM     23  H   UNL     1      -4.942  10.498  19.717  0.00  0.00    +0.000 HD
ENDBRANCH   1  20
BRANCH   9  24
ATOM     24  C   UNL     1      -2.587  13.157  22.267  0.00  0.00    +0.000 C 
ATOM     25  C   UNL     1      -3.087  12.160  23.310  0.00  0.00    +0.000 C 
ATOM     26  C   UNL     1      -3.844  12.994  24.334  0.00  0.00    +0.000 C 
ATOM     27  C   UNL     1      -3.283  14.408  24.238  0.00  0.00    +0.000 C 
ATOM     28  C   UNL     1      -2.272  14.401  23.097  0.00  0.00    +0.000 C 
ENDBRANCH   9  24
BRANCH   6  29
ATOM     29  C   UNL     1       1.680   8.972  19.851  0.00  0.00    +0.000 C 
ATOM     30  C   UNL     1       1.136   7.952  20.811  0.00  0.00    +0.000 C 
ATOM     31  C   UNL     1       2.081   7.526  19.728  0.00  0.00    +0.000 C 
ENDBRANCH   6  29
TORSDOF 3
ENDMDL
MODEL 6
REMARK VINA RESULT:      -7.7      4.415      9.862
REMARK  Name = 
REMARK  3 active torsions:
REMARK  status: ('A' for Active; 'I' for Inactive)
REMARK    1  A    between atoms: C_7  and  C_8
REMARK    2  A    between atoms: N_13  and  C_14
REMARK    3  A    between atoms: N_19  and  C_20
REMARK                            x       y       z     vdW  Elec       q    Type
REMARK                         _______ _______ _______ _____ _____    ______ ____
ROOT
ATOM      1  C   UNL     1       0.359   9.036  21.960  0.00  0.00    +0.000 A 
ATOM      2  C   UNL     1       0.294   9.338  23.342  0.00  0.00    +0.000 A 
ATOM      3  N   UNL     1      -0.403  10.456  23.600  0.00  0.00    +0.000 NA
ATOM      4  N   UNL     1      -0.797  10.845  22.361  0.00  0.00    +0.000 N 
ATOM      5  C   UNL     1      -1.573  11.982  22.095  0.00  0.00    +0.000 A 
ATOM      6  N   UNL     1      -1.899  12.773  23.186  0.00  0.00    +0.000 N 
ATOM      7  N   UNL     1      -1.915  12.211  20.856  0.00  0.00    +0.000 NA
ATOM      8  C   UNL     1      -1.481  11.354  19.863  0.00  0.00    +0.000 A 
ATOM      9  N   UNL     1      -1.855  11.681  18.595  0.00  0.00    +0.000 N 
ATOM     10  N   UNL     1      -0.745  10.293  20.076  0.00  0.00    +0.000 NA
ATOM     11  C   UNL     1      -0.394  10.019  21.356  0.00  0.00    +0.000 A 
ATOM     12  H   UNL     1      -1.545  12.409  24.073  0.00  0.00    +0.000 HD
ATOM     13  H   UNL     1      -2.485  12.471  18.570  0.00  0.00    +0.000 HD
ENDROOT
BRANCH   1  20
ATOM     14  O   UNL     1       2.514   9.381  17.099  0.00  0.00    +0.000 OA
ATOM     15  C   UNL     1       2.340   8.688  18.081  0.00  0.00    +0.000 C 
ATOM     16  N   UNL     1       2.753   7.389  18.242  0.00  0.00    +0.000 N 
ATOM     17  C   UNL     1       2.332   6.871  19.435  0.00  0.00    +0.000 C 
ATOM     18  O   UNL     1       2.478   5.739  19.858  0.00  0.00    +0.000 OA
ATOM     19  C   UNL     1       1.618   7.999  20.108  0.00  0.00    +0.000 C 
ATOM     20  C   UNL     1       1.043   7.957  21.314  0.00  0.00    +0.000 C 
ATOM     21  N   UNL     1       1.680   9.053  19.238  0.00  0.00    +0.000 N 
ATOM     22  H   UNL     1       3.238   6.871  17.531  0.00  0.00    +0.000 HD
ATOM     23  H   UNL     1       1.188   9.934  19.358  0.00  0.00    +0.000 HD
ENDBRANCH   1  20
BRANCH   9  24
ATOM     24  C   UNL     1      -1.980  10.718  17.513  0.00  0.00    +0.000 C 
ATOM     25  C   UNL     1      -3.194   9.810  17.694  0.00  0.00    +0.000 C 
ATOM     26  C   UNL     1      -3.579   9.368  16.288  0.00  0.00    +0.000 C 
ATOM     27  C   UNL     1      -3.042  10.433  15.339  0.00  0.00    +0.000 C 
ATOM     28  C   UNL     1      -2.272  11.433  16.194  0.00  0.00    +0.000 C 
ENDBRANCH   9  24
BRANCH   6  29
ATOM     29  C   UNL     1      -3.134  13.550  23.187  0.00  0.00    +0.000 C 
ATOM     30  C   UNL     1      -4.341  13.110  23.967  0.00  0.00    +0.000 C 
ATOM     31  C   UNL     1      -3.545  14.293  24.431  0.00  0.00    +0.000 C 
ENDBRANCH   6  29
TORSDOF 3
ENDMDL
MODEL 7
REMARK VINA RESULT:      -7.7      3.091      6.778
REMARK  Name = 
REMARK  3 active torsions:
REMARK  status: ('A' for Active; 'I' for Inactive)
REMARK    1  A    between atoms: C_7  and  C_8
REMARK    2  A    between atoms: N_13  and  C_14
REMARK    3  A    between atoms: N_19  and  C_20
REMARK                            x       y       z     vdW  Elec       q    Type
REMARK                         _______ _______ _______ _____ _____    ______ ____
ROOT
ATOM      1  C   UNL     1       3.705   6.907  17.389  0.00  0.00    +0.000 A 
ATOM      2  C   UNL     1       3.614   8.319  17.440  0.00  0.00    +0.000 A 
ATOM      3  N   UNL     1       2.830   8.756  18.439  0.00  0.00    +0.000 NA
ATOM      4  N   UNL     1       2.444   7.599  19.033  0.00  0.00    +0.000 N 
ATOM      5  C   UNL     1       1.604   7.522  20.152  0.00  0.00    +0.000 A 
ATOM      6  N   UNL     1       1.106   8.725  20.630  0.00  0.00    +0.000 N 
ATOM      7  N   UNL     1       1.350   6.340  20.646  0.00  0.00    +0.000 NA
ATOM      8  C   UNL     1       1.885   5.222  20.036  0.00  0.00    +0.000 A 
ATOM      9  N   UNL     1       1.547   4.026  20.593  0.00  0.00    +0.000 N 
ATOM     10  N   UNL     1       2.661   5.257  18.984  0.00  0.00    +0.000 NA
ATOM     11  C   UNL     1       2.959   6.473  18.464  0.00  0.00    +0.000 A 
ATOM     12  H   UNL     1       1.440   9.538  20.110  0.00  0.00    +0.000 HD
ATOM     13  H   UNL     1       1.014   4.134  21.445  0.00  0.00    +0.000 HD
ENDROOT
BRANCH   1  20
ATOM     14  O   UNL     1       8.316   4.458  18.451  0.00  0.00    +0.000 OA
ATOM     15  C   UNL     1       7.432   4.640  17.639  0.00  0.00    +0.000 C 
ATOM     16  N   UNL     1       7.381   4.130  16.365  0.00  0.00    +0.000 N 
ATOM     17  C   UNL     1       6.287   4.588  15.684  0.00  0.00    +0.000 C 
ATOM     18  O   UNL     1       5.980   4.376  14.525  0.00  0.00    +0.000 OA
ATOM     19  C   UNL     1       5.554   5.440  16.669  0.00  0.00    +0.000 C 
ATOM     20  C   UNL     1       4.409   6.091  16.446  0.00  0.00    +0.000 C 
ATOM     21  N   UNL     1       6.297   5.407  17.817  0.00  0.00    +0.000 N 
ATOM     22  H   UNL     1       8.104   3.556  15.970  0.00  0.00    +0.000 HD
ATOM     23  H   UNL     1       6.122   5.978  18.639  0.00  0.00    +0.000 HD
ENDBRANCH   1  20
BRANCH   9  24
ATOM     24  C   UNL     1       2.356   2.823  20.484  0.00  0.00    +0.000 C 
ATOM     25  C   UNL     1       2.156   2.121  19.143  0.00  0.00    +0.000 C 
ATOM     26  C   UNL     1       3.448   1.354  18.894  0.00  0.00    +0.000 C 
ATOM     27  C   UNL     1       4.533   2.064  19.696  0.00  0.00    +0.000 C 
ATOM     28  C   UNL     1       3.842   3.178  20.474  0.00  0.00    +0.000 C 
ENDBRANCH   9  24
BRANCH   6  29
ATOM     29  C   UNL     1       0.788   8.877  22.046  0.00  0.00    +0.000 C 
ATOM     30  C   UNL     1       0.109  10.110  22.573  0.00  0.00    +0.000 C 
ATOM     31  C   UNL     1      -0.648   8.818  22.498  0.00  0.00    +0.000 C 
ENDBRANCH   6  29
TORSDOF 3
ENDMDL
MODEL 8
REMARK VINA RESULT:      -7.6      5.644     10.115
REMARK  Name = 
REMARK  3 active torsions:
REMARK  status: ('A' for Active; 'I' for Inactive)
REMARK    1  A    between atoms: C_7  and  C_8
REMARK    2  A    between atoms: N_13  and  C_14
REMARK    3  A    between atoms: N_19  and  C_20
REMARK                            x       y       z     vdW  Elec       q    Type
REMARK                         _______ _______ _______ _____ _____    ______ ____
ROOT
ATOM      1  C   UNL     1      -1.080  11.964  22.738  0.00  0.00    +0.000 A 
ATOM      2  C   UNL     1      -0.995  10.593  23.085  0.00  0.00    +0.000 A 
ATOM      3  N   UNL     1      -0.377   9.855  22.150  0.00  0.00    +0.000 NA
ATOM      4  N   UNL     1      -0.051  10.783  21.215  0.00  0.00    +0.000 N 
ATOM      5  C   UNL     1       0.629  10.504  20.022  0.00  0.00    +0.000 A 
ATOM      6  N   UNL     1       0.928   9.172  19.782  0.00  0.00    +0.000 N 
ATOM      7  N   UNL     1       0.915  11.504  19.233  0.00  0.00    +0.000 NA
ATOM      8  C   UNL     1       0.516  12.780  19.584  0.00  0.00    +0.000 A 
ATOM      9  N   UNL     1       0.825  13.763  18.693  0.00  0.00    +0.000 N 
ATOM     10  N   UNL     1      -0.131  13.073  20.683  0.00  0.00    +0.000 NA
ATOM     11  C   UNL     1      -0.421  12.055  21.531  0.00  0.00    +0.000 A 
ATOM     12  H   UNL     1       0.630   8.546  20.533  0.00  0.00    +0.000 HD
ATOM     13  H   UNL     1       1.393  13.425  17.928  0.00  0.00    +0.000 HD
ENDROOT
BRANCH   1  20
ATOM     14  O   UNL     1      -6.346  12.420  23.414  0.00  0.00    +0.000 OA
ATOM     15  C   UNL     1      -5.250  12.878  23.668  0.00  0.00    +0.000 C 
ATOM     16  N   UNL     1      -4.993  14.011  24.401  0.00  0.00    +0.000 N 
ATOM     17  C   UNL     1      -3.656  14.294  24.437  0.00  0.00    +0.000 C 
ATOM     18  O   UNL     1      -3.103  15.251  24.948  0.00  0.00    +0.000 OA
ATOM     19  C   UNL     1      -3.011  13.179  23.678  0.00  0.00    +0.000 C 
ATOM     20  C   UNL     1      -1.700  13.031  23.463  0.00  0.00    +0.000 C 
ATOM     21  N   UNL     1      -4.032  12.368  23.265  0.00  0.00    +0.000 N 
ATOM     22  H   UNL     1      -5.714  14.591  24.791  0.00  0.00    +0.000 HD
ATOM     23  H   UNL     1      -3.928  11.583  22.629  0.00  0.00    +0.000 HD
ENDBRANCH   1  20
BRANCH   9  24
ATOM     24  C   UNL     1       0.988  15.161  19.053  0.00  0.00    +0.000 C 
ATOM     25  C   UNL     1       2.178  15.800  18.339  0.00  0.00    +0.000 C 
ATOM     26  C   UNL     1       1.850  17.284  18.259  0.00  0.00    +0.000 C 
ATOM     27  C   UNL     1       0.331  17.395  18.336  0.00  0.00    +0.000 C 
ATOM     28  C   UNL     1      -0.200  15.983  18.554  0.00  0.00    +0.000 C 
ENDBRANCH   9  24
BRANCH   6  29
ATOM     29  C   UNL     1       2.101   8.812  18.992  0.00  0.00    +0.000 C 
ATOM     30  C   UNL     1       2.501   7.379  18.781  0.00  0.00    +0.000 C 
ATOM     31  C   UNL     1       1.921   8.165  17.644  0.00  0.00    +0.000 C 
ENDBRANCH   6  29
TORSDOF 3
ENDMDL
MODEL 9
REMARK VINA RESULT:      -7.5      5.838      9.928
REMARK  Name = 
REMARK  3 active torsions:
REMARK  status: ('A' for Active; 'I' for Inactive)
REMARK    1  A    between atoms: C_7  and  C_8
REMARK    2  A    between atoms: N_13  and  C_14
REMARK    3  A    between atoms: N_19  and  C_20
REMARK                            x       y       z     vdW  Elec       q    Type
REMARK                         _______ _______ _______ _____ _____    ______ ____
ROOT
ATOM      1  C   UNL     1      -3.884  11.312  17.526  0.00  0.00    +0.000 A 
ATOM      2  C   UNL     1      -3.426  10.358  16.585  0.00  0.00    +0.000 A 
ATOM      3  N   UNL     1      -2.132  10.040  16.752  0.00  0.00    +0.000 NA
ATOM      4  N   UNL     1      -1.785  10.789  17.828  0.00  0.00    +0.000 N 
ATOM      5  C   UNL     1      -0.509  10.803  18.408  0.00  0.00    +0.000 A 
ATOM      6  N   UNL     1       0.458  10.029  17.785  0.00  0.00    +0.000 N 
ATOM      7  N   UNL     1      -0.328  11.542  19.469  0.00  0.00    +0.000 NA
ATOM      8  C   UNL     1      -1.378  12.297  19.957  0.00  0.00    +0.000 A 
ATOM      9  N   UNL     1      -1.099  13.064  21.047  0.00  0.00    +0.000 N 
ATOM     10  N   UNL     1      -2.577  12.317  19.432  0.00  0.00    +0.000 NA
ATOM     11  C   UNL     1      -2.797  11.541  18.342  0.00  0.00    +0.000 A 
ATOM     12  H   UNL     1       0.107   9.514  16.976  0.00  0.00    +0.000 HD
ATOM     13  H   UNL     1      -0.169  12.900  21.406  0.00  0.00    +0.000 HD
ENDROOT
BRANCH   1  20
ATOM     14  O   UNL     1      -6.518  11.908  22.119  0.00  0.00    +0.000 OA
ATOM     15  C   UNL     1      -6.512  12.117  20.922  0.00  0.00    +0.000 C 
ATOM     16  N   UNL     1      -7.509  12.723  20.198  0.00  0.00    +0.000 N 
ATOM     17  C   UNL     1      -7.223  12.735  18.861  0.00  0.00    +0.000 C 
ATOM     18  O   UNL     1      -7.916  13.141  17.947  0.00  0.00    +0.000 OA
ATOM     19  C   UNL     1      -5.870  12.105  18.756  0.00  0.00    +0.000 C 
ATOM     20  C   UNL     1      -5.179  11.913  17.628  0.00  0.00    +0.000 C 
ATOM     21  N   UNL     1      -5.511  11.777  20.034  0.00  0.00    +0.000 N 
ATOM     22  H   UNL     1      -8.369  13.044  20.604  0.00  0.00    +0.000 HD
ATOM     23  H   UNL     1      -4.691  11.231  20.284  0.00  0.00    +0.000 HD
ENDBRANCH   1  20
BRANCH   9  24
ATOM     24  C   UNL     1      -2.098  13.498  22.010  0.00  0.00    +0.000 C 
ATOM     25  C   UNL     1      -2.509  12.370  22.954  0.00  0.00    +0.000 C 
ATOM     26  C   UNL     1      -2.978  13.061  24.227  0.00  0.00    +0.000 C 
ATOM     27  C   UNL     1      -2.293  14.423  24.256  0.00  0.00    +0.000 C 
ATOM     28  C   UNL     1      -1.508  14.545  22.955  0.00  0.00    +0.000 C 
ENDBRANCH   9  24
BRANCH   6  29
ATOM     29  C   UNL     1       1.554   9.459  18.561  0.00  0.00    +0.000 C 
ATOM     30  C   UNL     1       1.657   7.980  18.811  0.00  0.00    +0.000 C 
ATOM     31  C   UNL     1       2.614   8.644  17.866  0.00  0.00    +0.000 C 
ENDBRANCH   6  29
TORSDOF 3
ENDMDL
