MODEL 1
REMARK VINA RESULT:      -7.4      0.000      0.000
REMARK  Name = 
REMARK  3 active torsions:
REMARK  status: ('A' for Active; 'I' for Inactive)
REMARK    1  A    between atoms: C_2  and  O_3
REMARK    2  A    between atoms: C_2  and  C_4
REMARK    3  A    between atoms: C_9  and  N_10
REMARK                            x       y       z     vdW  Elec       q    Type
REMARK                         _______ _______ _______ _____ _____    ______ ____
ROOT
ATOM      1  C   UNL     1       3.454   2.628  19.129  0.00  0.00    +0.000 A 
ATOM      2  C   UNL     1       2.348   2.925  19.946  0.00  0.00    +0.000 A 
ATOM      3  C   UNL     1       1.394   3.858  19.543  0.00  0.00    +0.000 A 
ATOM      4  C   UNL     1       1.510   4.469  18.303  0.00  0.00    +0.000 A 
ATOM      5  C   UNL     1       2.583   4.157  17.471  0.00  0.00    +0.000 A 
ATOM      6  C   UNL     1       3.600   3.273  17.884  0.00  0.00    +0.000 A 
ENDROOT
BRANCH   6   7
ATOM      7  N   UNL     1       4.700   2.994  17.022  0.00  0.00    +0.000 N 
ATOM      8  C   UNL     1       5.679   3.943  16.639  0.00  0.00    +0.000 A 
ATOM      9  C   UNL     1       6.231   4.799  17.579  0.00  0.00    +0.000 A 
ATOM     10  C   UNL     1       7.096   5.757  17.110  0.00  0.00    +0.000 A 
ATOM     11  N   UNL     1       7.456   5.849  15.822  0.00  0.00    +0.000 NA
ATOM     12  C   UNL     1       6.912   4.929  15.015  0.00  0.00    +0.000 A 
ATOM     13 CL   UNL     1       7.373   4.999  13.374  0.00  0.00    +0.000 Cl
ATOM     14  N   UNL     1       6.031   3.972  15.349  0.00  0.00    +0.000 NA
ATOM     15  H   UNL     1       4.375   2.566  16.146  0.00  0.00    +0.000 HD
ENDBRANCH   6   7
BRANCH   1  17
ATOM     16  O   UNL     1       5.076   1.847  20.694  0.00  0.00    +0.000 OA
ATOM     17  C   UNL     1       4.427   1.639  19.682  0.00  0.00    +0.000 C 
BRANCH  17  18
ATOM     18  O   UNL     1       4.581   0.525  18.938  0.00  0.00    +0.000 OA
ATOM     19  H   UNL     1       3.749   0.021  18.818  0.00  0.00    +0.000 HD
ENDBRANCH  17  18
ENDBRANCH   1  17
TORSDOF 3
ENDMDL
MODEL 2
REMARK VINA RESULT:      -7.2      1.775      2.105
REMARK  Name = 
REMARK  3 active torsions:
REMARK  status: ('A' for Active; 'I' for Inactive)
REMARK    1  A    between atoms: C_2  and  O_3
REMARK    2  A    between atoms: C_2  and  C_4
REMARK    3  A    between atoms: C_9  and  N_10
REMARK                            x       y       z     vdW  Elec       q    Type
REMARK                         _______ _______ _______ _____ _____    ______ ____
ROOT
ATOM      1  C   UNL     1       1.924   3.777  18.996  0.00  0.00    +0.000 A 
ATOM      2  C   UNL     1       1.243   4.401  20.056  0.00  0.00    +0.000 A 
ATOM      3  C   UNL     1       1.590   5.688  20.467  0.00  0.00    +0.000 A 
ATOM      4  C   UNL     1       2.587   6.380  19.795  0.00  0.00    +0.000 A 
ATOM      5  C   UNL     1       3.245   5.783  18.722  0.00  0.00    +0.000 A 
ATOM      6  C   UNL     1       2.965   4.457  18.333  0.00  0.00    +0.000 A 
ENDROOT
BRANCH   6   7
ATOM      7  N   UNL     1       3.674   3.865  17.248  0.00  0.00    +0.000 N 
ATOM      8  C   UNL     1       5.026   4.138  16.930  0.00  0.00    +0.000 A 
ATOM      9  C   UNL     1       5.984   4.198  17.931  0.00  0.00    +0.000 A 
ATOM     10  C   UNL     1       7.251   4.569  17.552  0.00  0.00    +0.000 A 
ATOM     11  N   UNL     1       7.592   4.810  16.279  0.00  0.00    +0.000 NA
ATOM     12  C   UNL     1       6.603   4.658  15.389  0.00  0.00    +0.000 A 
ATOM     13 CL   UNL     1       7.012   4.927  13.755  0.00  0.00    +0.000 Cl
ATOM     14  N   UNL     1       5.325   4.336  15.641  0.00  0.00    +0.000 NA
ATOM     15  H   UNL     1       3.156   3.982  16.369  0.00  0.00    +0.000 HD
ENDBRANCH   6   7
BRANCH   1  17
ATOM     16  O   UNL     1       0.319   2.083  18.500  0.00  0.00    +0.000 OA
ATOM     17  C   UNL     1       1.488   2.386  18.670  0.00  0.00    +0.000 C 
BRANCH  17  18
ATOM     18  O   UNL     1       2.485   1.477  18.643  0.00  0.00    +0.000 OA
ATOM     19  H   UNL     1       2.887   1.369  17.757  0.00  0.00    +0.000 HD
ENDBRANCH  17  18
ENDBRANCH   1  17
TORSDOF 3
ENDMDL
MODEL 3
REMARK VINA RESULT:      -7.0      3.333      5.572
REMARK  Name = 
REMARK  3 active torsions:
REMARK  status: ('A' for Active; 'I' for Inactive)
REMARK    1  A    between atoms: C_2  and  O_3
REMARK    2  A    between atoms: C_2  and  C_4
REMARK    3  A    between atoms: C_9  and  N_10
REMARK                            x       y       z     vdW  Elec       q    Type
REMARK                         _______ _______ _______ _____ _____    ______ ____
ROOT
ATOM      1  C   UNL     1       6.122   5.041  17.811  0.00  0.00    +0.000 A 
ATOM      2  C   UNL     1       6.810   5.963  17.002  0.00  0.00    +0.000 A 
ATOM      3  C   UNL     1       6.897   5.776  15.623  0.00  0.00    +0.000 A 
ATOM      4  C   UNL     1       6.260   4.693  15.034  0.00  0.00    +0.000 A 
ATOM      5  C   UNL     1       5.548   3.792  15.822  0.00  0.00    +0.000 A 
ATOM      6  C   UNL     1       5.505   3.917  17.226  0.00  0.00    +0.000 A 
ENDROOT
BRANCH   6   7
ATOM      7  N   UNL     1       4.791   2.963  18.008  0.00  0.00    +0.000 N 
ATOM      8  C   UNL     1       3.455   3.127  18.448  0.00  0.00    +0.000 A 
ATOM      9  C   UNL     1       2.486   3.608  17.582  0.00  0.00    +0.000 A 
ATOM     10  C   UNL     1       1.239   3.835  18.114  0.00  0.00    +0.000 A 
ATOM     11  N   UNL     1       0.928   3.560  19.388  0.00  0.00    +0.000 NA
ATOM     12  C   UNL     1       1.924   3.038  20.115  0.00  0.00    +0.000 A 
ATOM     13 CL   UNL     1       1.552   2.648  21.733  0.00  0.00    +0.000 Cl
ATOM     14  N   UNL     1       3.185   2.806  19.718  0.00  0.00    +0.000 NA
ATOM     15  H   UNL     1       5.327   2.706  18.845  0.00  0.00    +0.000 HD
ENDBRANCH   6   7
BRANCH   1  17
ATOM     16  O   UNL     1       7.150   5.357  19.940  0.00  0.00    +0.000 OA
ATOM     17  C   UNL     1       6.127   5.328  19.277  0.00  0.00    +0.000 C 
BRANCH  17  18
ATOM     18  O   UNL     1       4.904   5.489  19.822  0.00  0.00    +0.000 OA
ATOM     19  H   UNL     1       4.684   6.425  20.012  0.00  0.00    +0.000 HD
ENDBRANCH  17  18
ENDBRANCH   1  17
TORSDOF 3
ENDMDL
MODEL 4
REMARK VINA RESULT:      -7.0      1.733      1.945
REMARK  Name = 
REMARK  3 active torsions:
REMARK  status: ('A' for Active; 'I' for Inactive)
REMARK    1  A    between atoms: C_2  and  O_3
REMARK    2  A    between atoms: C_2  and  C_4
REMARK    3  A    between atoms: C_9  and  N_10
REMARK                            x       y       z     vdW  Elec       q    Type
REMARK                         _______ _______ _______ _____ _____    ______ ____
ROOT
ATOM      1  C   UNL     1       2.604   4.335  19.717  0.00  0.00    +0.000 A 
ATOM      2  C   UNL     1       2.006   5.161  20.685  0.00  0.00    +0.000 A 
ATOM      3  C   UNL     1       1.907   6.537  20.486  0.00  0.00    +0.000 A 
ATOM      4  C   UNL     1       2.362   7.095  19.300  0.00  0.00    +0.000 A 
ATOM      5  C   UNL     1       2.926   6.282  18.320  0.00  0.00    +0.000 A 
ATOM      6  C   UNL     1       3.105   4.899  18.526  0.00  0.00    +0.000 A 
ENDROOT
BRANCH   6   7
ATOM      7  N   UNL     1       3.711   4.097  17.515  0.00  0.00    +0.000 N 
ATOM      8  C   UNL     1       5.037   4.262  17.049  0.00  0.00    +0.000 A 
ATOM      9  C   UNL     1       6.075   4.466  17.945  0.00  0.00    +0.000 A 
ATOM     10  C   UNL     1       7.314   4.719  17.409  0.00  0.00    +0.000 A 
ATOM     11  N   UNL     1       7.554   4.716  16.091  0.00  0.00    +0.000 NA
ATOM     12  C   UNL     1       6.492   4.441  15.322  0.00  0.00    +0.000 A 
ATOM     13 CL   UNL     1       6.770   4.399  13.640  0.00  0.00    +0.000 Cl
ATOM     14  N   UNL     1       5.232   4.215  15.727  0.00  0.00    +0.000 NA
ATOM     15  H   UNL     1       3.124   4.073  16.672  0.00  0.00    +0.000 HD
ENDBRANCH   6   7
BRANCH   1  17
ATOM     16  O   UNL     1       1.725   2.242  20.450  0.00  0.00    +0.000 OA
ATOM     17  C   UNL     1       2.685   2.883  20.057  0.00  0.00    +0.000 C 
BRANCH  17  18
ATOM     18  O   UNL     1       3.921   2.351  19.959  0.00  0.00    +0.000 OA
ATOM     19  H   UNL     1       4.239   2.277  19.036  0.00  0.00    +0.000 HD
ENDBRANCH  17  18
ENDBRANCH   1  17
TORSDOF 3
ENDMDL
MODEL 5
REMARK VINA RESULT:      -7.0      1.760      2.019
REMARK  Name = 
REMARK  3 active torsions:
REMARK  status: ('A' for Active; 'I' for Inactive)
REMARK    1  A    between atoms: C_2  and  O_3
REMARK    2  A    between atoms: C_2  and  C_4
REMARK    3  A    between atoms: C_9  and  N_10
REMARK                            x       y       z     vdW  Elec       q    Type
REMARK                         _______ _______ _______ _____ _____    ______ ____
ROOT
ATOM      1  C   UNL     1       2.573   3.106  19.135  0.00  0.00    +0.000 A 
ATOM      2  C   UNL     1       1.327   3.159  19.786  0.00  0.00    +0.000 A 
ATOM      3  C   UNL     1       0.996   4.237  20.606  0.00  0.00    +0.000 A 
ATOM      4  C   UNL     1       1.885   5.293  20.747  0.00  0.00    +0.000 A 
ATOM      5  C   UNL     1       3.108   5.267  20.080  0.00  0.00    +0.000 A 
ATOM      6  C   UNL     1       3.499   4.156  19.304  0.00  0.00    +0.000 A 
ENDROOT
BRANCH   6   7
ATOM      7  N   UNL     1       4.768   4.147  18.656  0.00  0.00    +0.000 N 
ATOM      8  C   UNL     1       5.076   4.884  17.487  0.00  0.00    +0.000 A 
ATOM      9  C   UNL     1       4.675   6.205  17.366  0.00  0.00    +0.000 A 
ATOM     10  C   UNL     1       4.923   6.818  16.161  0.00  0.00    +0.000 A 
ATOM     11  N   UNL     1       5.571   6.216  15.155  0.00  0.00    +0.000 NA
ATOM     12  C   UNL     1       5.970   4.963  15.408  0.00  0.00    +0.000 A 
ATOM     13 CL   UNL     1       6.826   4.178  14.158  0.00  0.00    +0.000 Cl
ATOM     14  N   UNL     1       5.756   4.251  16.525  0.00  0.00    +0.000 NA
ATOM     15  H   UNL     1       5.068   3.184  18.461  0.00  0.00    +0.000 HD
ENDBRANCH   6   7
BRANCH   1  17
ATOM     16  O   UNL     1       3.772   1.139  18.515  0.00  0.00    +0.000 OA
ATOM     17  C   UNL     1       2.829   1.886  18.313  0.00  0.00    +0.000 C 
BRANCH  17  18
ATOM     18  O   UNL     1       1.971   1.710  17.288  0.00  0.00    +0.000 OA
ATOM     19  H   UNL     1       1.438   2.506  17.086  0.00  0.00    +0.000 HD
ENDBRANCH  17  18
ENDBRANCH   1  17
TORSDOF 3
ENDMDL
MODEL 6
REMARK VINA RESULT:      -6.9      3.004      3.421
REMARK  Name = 
REMARK  3 active torsions:
REMARK  status: ('A' for Active; 'I' for Inactive)
REMARK    1  A    between atoms: C_2  and  O_3
REMARK    2  A    between atoms: C_2  and  C_4
REMARK    3  A    between atoms: C_9  and  N_10
REMARK                            x       y       z     vdW  Elec       q    Type
REMARK                         _______ _______ _______ _____ _____    ______ ____
ROOT
ATOM      1  C   UNL     1       2.178   5.047  19.172  0.00  0.00    +0.000 A 
ATOM      2  C   UNL     1       1.388   4.133  19.893  0.00  0.00    +0.000 A 
ATOM      3  C   UNL     1       1.202   2.831  19.428  0.00  0.00    +0.000 A 
ATOM      4  C   UNL     1       1.838   2.416  18.267  0.00  0.00    +0.000 A 
ATOM      5  C   UNL     1       2.650   3.304  17.564  0.00  0.00    +0.000 A 
ATOM      6  C   UNL     1       2.796   4.646  17.970  0.00  0.00    +0.000 A 
ENDROOT
BRANCH   6   7
ATOM      7  N   UNL     1       3.612   5.537  17.215  0.00  0.00    +0.000 N 
ATOM      8  C   UNL     1       5.025   5.582  17.282  0.00  0.00    +0.000 A 
ATOM      9  C   UNL     1       5.765   4.409  17.282  0.00  0.00    +0.000 A 
ATOM     10  C   UNL     1       7.122   4.535  17.452  0.00  0.00    +0.000 A 
ATOM     11  N   UNL     1       7.739   5.719  17.557  0.00  0.00    +0.000 NA
ATOM     12  C   UNL     1       6.934   6.786  17.477  0.00  0.00    +0.000 A 
ATOM     13 CL   UNL     1       7.692   8.312  17.576  0.00  0.00    +0.000 Cl
ATOM     14  N   UNL     1       5.598   6.789  17.348  0.00  0.00    +0.000 NA
ATOM     15  H   UNL     1       3.300   6.508  17.339  0.00  0.00    +0.000 HD
ENDBRANCH   6   7
BRANCH   1  17
ATOM     16  O   UNL     1       2.563   7.399  19.079  0.00  0.00    +0.000 OA
ATOM     17  C   UNL     1       2.275   6.421  19.748  0.00  0.00    +0.000 C 
BRANCH  17  18
ATOM     18  O   UNL     1       2.082   6.486  21.082  0.00  0.00    +0.000 OA
ATOM     19  H   UNL     1       1.348   5.919  21.395  0.00  0.00    +0.000 HD
ENDBRANCH  17  18
ENDBRANCH   1  17
TORSDOF 3
ENDMDL
MODEL 7
REMARK VINA RESULT:      -6.9      3.526      5.792
REMARK  Name = 
REMARK  3 active torsions:
REMARK  status: ('A' for Active; 'I' for Inactive)
REMARK    1  A    between atoms: C_2  and  O_3
REMARK    2  A    between atoms: C_2  and  C_4
REMARK    3  A    between atoms: C_9  and  N_10
REMARK                            x       y       z     vdW  Elec       q    Type
REMARK                         _______ _______ _______ _____ _____    ______ ____
ROOT
ATOM      1  C   UNL     1       6.821   5.329  17.826  0.00  0.00    +0.000 A 
ATOM      2  C   UNL     1       7.211   6.051  16.683  0.00  0.00    +0.000 A 
ATOM      3  C   UNL     1       6.701   5.726  15.427  0.00  0.00    +0.000 A 
ATOM      4  C   UNL     1       5.764   4.710  15.305  0.00  0.00    +0.000 A 
ATOM      5  C   UNL     1       5.346   4.011  16.436  0.00  0.00    +0.000 A 
ATOM      6  C   UNL     1       5.900   4.269  17.706  0.00  0.00    +0.000 A 
ENDROOT
BRANCH   6   7
ATOM      7  N   UNL     1       5.471   3.519  18.839  0.00  0.00    +0.000 N 
ATOM      8  C   UNL     1       4.169   2.987  19.003  0.00  0.00    +0.000 A 
ATOM      9  C   UNL     1       3.536   2.346  17.948  0.00  0.00    +0.000 A 
ATOM     10  C   UNL     1       2.237   1.950  18.156  0.00  0.00    +0.000 A 
ATOM     11  N   UNL     1       1.604   2.106  19.327  0.00  0.00    +0.000 NA
ATOM     12  C   UNL     1       2.334   2.677  20.294  0.00  0.00    +0.000 A 
ATOM     13 CL   UNL     1       1.568   2.863  21.807  0.00  0.00    +0.000 Cl
ATOM     14  N   UNL     1       3.592   3.136  20.200  0.00  0.00    +0.000 NA
ATOM     15  H   UNL     1       5.671   4.029  19.709  0.00  0.00    +0.000 HD
ENDBRANCH   6   7
BRANCH   1  17
ATOM     16  O   UNL     1       7.177   5.240  20.183  0.00  0.00    +0.000 OA
ATOM     17  C   UNL     1       7.461   5.745  19.110  0.00  0.00    +0.000 C 
BRANCH  17  18
ATOM     18  O   UNL     1       8.332   6.769  18.997  0.00  0.00    +0.000 OA
ATOM     19  H   UNL     1       7.906   7.613  18.743  0.00  0.00    +0.000 HD
ENDBRANCH  17  18
ENDBRANCH   1  17
TORSDOF 3
ENDMDL
MODEL 8
REMARK VINA RESULT:      -6.9      3.484      5.807
REMARK  Name = 
REMARK  3 active torsions:
REMARK  status: ('A' for Active; 'I' for Inactive)
REMARK    1  A    between atoms: C_2  and  O_3
REMARK    2  A    between atoms: C_2  and  C_4
REMARK    3  A    between atoms: C_9  and  N_10
REMARK                            x       y       z     vdW  Elec       q    Type
REMARK                         _______ _______ _______ _____ _____    ______ ____
ROOT
ATOM      1  C   UNL     1       6.390   4.917  16.882  0.00  0.00    +0.000 A 
ATOM      2  C   UNL     1       7.205   6.003  16.513  0.00  0.00    +0.000 A 
ATOM      3  C   UNL     1       7.782   6.823  17.481  0.00  0.00    +0.000 A 
ATOM      4  C   UNL     1       7.591   6.539  18.826  0.00  0.00    +0.000 A 
ATOM      5  C   UNL     1       6.814   5.446  19.203  0.00  0.00    +0.000 A 
ATOM      6  C   UNL     1       6.158   4.645  18.245  0.00  0.00    +0.000 A 
ENDROOT
BRANCH   6   7
ATOM      7  N   UNL     1       5.348   3.550  18.663  0.00  0.00    +0.000 N 
ATOM      8  C   UNL     1       3.964   3.638  18.944  0.00  0.00    +0.000 A 
ATOM      9  C   UNL     1       3.120   4.344  18.100  0.00  0.00    +0.000 A 
ATOM     10  C   UNL     1       1.811   4.469  18.497  0.00  0.00    +0.000 A 
ATOM     11  N   UNL     1       1.327   3.899  19.609  0.00  0.00    +0.000 NA
ATOM     12  C   UNL     1       2.216   3.186  20.313  0.00  0.00    +0.000 A 
ATOM     13 CL   UNL     1       1.625   2.422  21.719  0.00  0.00    +0.000 Cl
ATOM     14  N   UNL     1       3.522   3.023  20.046  0.00  0.00    +0.000 NA
ATOM     15  H   UNL     1       5.765   3.080  19.476  0.00  0.00    +0.000 HD
ENDBRANCH   6   7
BRANCH   1  17
ATOM     16  O   UNL     1       5.217   4.658  14.821  0.00  0.00    +0.000 OA
ATOM     17  C   UNL     1       5.798   4.134  15.757  0.00  0.00    +0.000 C 
BRANCH  17  18
ATOM     18  O   UNL     1       5.900   2.795  15.889  0.00  0.00    +0.000 OA
ATOM     19  H   UNL     1       5.094   2.380  16.259  0.00  0.00    +0.000 HD
ENDBRANCH  17  18
ENDBRANCH   1  17
TORSDOF 3
ENDMDL
MODEL 9
REMARK VINA RESULT:      -6.8      2.113      2.734
REMARK  Name = 
REMARK  3 active torsions:
REMARK  status: ('A' for Active; 'I' for Inactive)
REMARK    1  A    between atoms: C_2  and  O_3
REMARK    2  A    between atoms: C_2  and  C_4
REMARK    3  A    between atoms: C_9  and  N_10
REMARK                            x       y       z     vdW  Elec       q    Type
REMARK                         _______ _______ _______ _____ _____    ______ ____
ROOT
ATOM      1  C   UNL     1       2.098   3.245  19.034  0.00  0.00    +0.000 A 
ATOM      2  C   UNL     1       1.008   3.263  19.923  0.00  0.00    +0.000 A 
ATOM      3  C   UNL     1       1.181   2.947  21.270  0.00  0.00    +0.000 A 
ATOM      4  C   UNL     1       2.449   2.656  21.752  0.00  0.00    +0.000 A 
ATOM      5  C   UNL     1       3.541   2.668  20.887  0.00  0.00    +0.000 A 
ATOM      6  C   UNL     1       3.384   2.912  19.508  0.00  0.00    +0.000 A 
ENDROOT
BRANCH   6   7
ATOM      7  N   UNL     1       4.517   2.891  18.644  0.00  0.00    +0.000 N 
ATOM      8  C   UNL     1       5.010   4.017  17.941  0.00  0.00    +0.000 A 
ATOM      9  C   UNL     1       5.127   5.243  18.577  0.00  0.00    +0.000 A 
ATOM     10  C   UNL     1       5.516   6.308  17.800  0.00  0.00    +0.000 A 
ATOM     11  N   UNL     1       5.832   6.188  16.503  0.00  0.00    +0.000 NA
ATOM     12  C   UNL     1       5.746   4.946  16.011  0.00  0.00    +0.000 A 
ATOM     13 CL   UNL     1       6.171   4.754  14.370  0.00  0.00    +0.000 Cl
ATOM     14  N   UNL     1       5.346   3.840  16.659  0.00  0.00    +0.000 NA
ATOM     15  H   UNL     1       4.423   2.148  17.940  0.00  0.00    +0.000 HD
ENDBRANCH   6   7
BRANCH   1  17
ATOM     16  O   UNL     1       1.042   4.477  17.287  0.00  0.00    +0.000 OA
ATOM     17  C   UNL     1       1.784   3.565  17.610  0.00  0.00    +0.000 C 
BRANCH  17  18
ATOM     18  O   UNL     1       2.336   2.725  16.711  0.00  0.00    +0.000 OA
ATOM     19  H   UNL     1       3.305   2.833  16.623  0.00  0.00    +0.000 HD
ENDBRANCH  17  18
ENDBRANCH   1  17
TORSDOF 3
ENDMDL
