MODEL 1
REMARK VINA RESULT:      -7.1      0.000      0.000
REMARK  Name = 
REMARK  11 active torsions:
REMARK  status: ('A' for Active; 'I' for Inactive)
REMARK    1  A    between atoms: C_1  and  O_2
REMARK    2  A    between atoms: O_2  and  C_3
REMARK    3  A    between atoms: C_3  and  C_5
REMARK    4  A    between atoms: C_5  and  C_6
REMARK    5  A    between atoms: C_5  and  N_10
REMARK    6  A    between atoms: C_6  and  C_7
REMARK    7  A    between atoms: C_7  and  S_8
REMARK    8  A    between atoms: S_8  and  C_9
REMARK    9  A    between atoms: C_11  and  C_13
REMARK   10  A    between atoms: C_13  and  N_14
REMARK   11  A    between atoms: C_24  and  C_25
REMARK                            x       y       z     vdW  Elec       q    Type
REMARK                         _______ _______ _______ _____ _____    ______ ____
ROOT
ATOM      1  N   UNL     1       5.300   3.780  17.851  0.00  0.00    +0.000 N 
ATOM      2  N   UNL     1       5.331   4.141  19.164  0.00  0.00    +0.000 NA
ATOM      3  C   UNL     1       6.189   5.162  19.203  0.00  0.00    +0.000 A 
ATOM      4  C   UNL     1       6.691   5.468  17.935  0.00  0.00    +0.000 A 
ATOM      5  C   UNL     1       7.611   6.492  17.505  0.00  0.00    +0.000 A 
ATOM      6  O   UNL     1       8.114   7.304  18.274  0.00  0.00    +0.000 OA
ATOM      7  O   UNL     1       7.887   6.508  16.125  0.00  0.00    +0.000 OA
ATOM      8  C   UNL     1       7.308   5.577  15.214  0.00  0.00    +0.000 A 
ATOM      9  C   UNL     1       7.687   5.719  13.879  0.00  0.00    +0.000 A 
ATOM     10  C   UNL     1       7.172   4.837  12.932  0.00  0.00    +0.000 A 
ATOM     11  C   UNL     1       6.281   3.830  13.321  0.00  0.00    +0.000 A 
ATOM     12  C   UNL     1       5.718   2.865  12.317  0.00  0.00    +0.000 C 
ATOM     13  C   UNL     1       5.899   3.714  14.672  0.00  0.00    +0.000 A 
ATOM     14  C   UNL     1       6.409   4.579  15.640  0.00  0.00    +0.000 A 
ATOM     15  C   UNL     1       6.115   4.559  17.066  0.00  0.00    +0.000 A 
ENDROOT
BRANCH   1  16
ATOM     16  C   UNL     1       4.395   2.708  17.497  0.00  0.00    +0.000 C 
BRANCH  16  18
ATOM     17  N   UNL     1       2.790   4.014  18.767  0.00  0.00    +0.000 N 
ATOM     18  C   UNL     1       2.959   3.113  17.738  0.00  0.00    +0.000 C 
ATOM     19  O   UNL     1       2.028   2.635  17.096  0.00  0.00    +0.000 OA
ATOM     20  H   UNL     1       3.600   4.218  19.349  0.00  0.00    +0.000 HD
BRANCH  17  21
ATOM     21  C   UNL     1       1.465   4.401  19.258  0.00  0.00    +0.000 C 
BRANCH  21  22
ATOM     22  C   UNL     1       0.785   3.266  20.049  0.00  0.00    +0.000 C 
ATOM     23  O   UNL     1       0.035   2.437  19.552  0.00  0.00    +0.000 OA
BRANCH  22  25
ATOM     24  C   UNL     1       2.151   2.424  21.770  0.00  0.00    +0.000 C 
ATOM     25  O   UNL     1       1.105   3.312  21.379  0.00  0.00    +0.000 OA
ENDBRANCH  22  25
ENDBRANCH  21  22
BRANCH  21  26
ATOM     26  C   UNL     1       1.574   5.644  20.155  0.00  0.00    +0.000 C 
BRANCH  26  27
ATOM     27  C   UNL     1       2.509   6.735  19.625  0.00  0.00    +0.000 C 
BRANCH  27  28
ATOM     28  S   UNL     1       1.714   8.374  19.618  0.00  0.00    +0.000 S 
ATOM     29  C   UNL     1       2.067   8.847  17.911  0.00  0.00    +0.000 C 
ENDBRANCH  27  28
ENDBRANCH  26  27
ENDBRANCH  21  26
ENDBRANCH  17  21
ENDBRANCH  16  18
ENDBRANCH   1  16
TORSDOF 8
ENDMDL
MODEL 2
REMARK VINA RESULT:      -7.1      4.291      6.507
REMARK  Name = 
REMARK  11 active torsions:
REMARK  status: ('A' for Active; 'I' for Inactive)
REMARK    1  A    between atoms: C_1  and  O_2
REMARK    2  A    between atoms: O_2  and  C_3
REMARK    3  A    between atoms: C_3  and  C_5
REMARK    4  A    between atoms: C_5  and  C_6
REMARK    5  A    between atoms: C_5  and  N_10
REMARK    6  A    between atoms: C_6  and  C_7
REMARK    7  A    between atoms: C_7  and  S_8
REMARK    8  A    between atoms: S_8  and  C_9
REMARK    9  A    between atoms: C_11  and  C_13
REMARK   10  A    between atoms: C_13  and  N_14
REMARK   11  A    between atoms: C_24  and  C_25
REMARK                            x       y       z     vdW  Elec       q    Type
REMARK                         _______ _______ _______ _____ _____    ______ ____
ROOT
ATOM      1  N   UNL     1       2.179   7.872  18.986  0.00  0.00    +0.000 N 
ATOM      2  N   UNL     1       1.385   8.171  20.051  0.00  0.00    +0.000 NA
ATOM      3  C   UNL     1       1.403   7.063  20.794  0.00  0.00    +0.000 A 
ATOM      4  C   UNL     1       2.208   6.070  20.228  0.00  0.00    +0.000 A 
ATOM      5  C   UNL     1       2.534   4.743  20.689  0.00  0.00    +0.000 A 
ATOM      6  O   UNL     1       2.106   4.275  21.738  0.00  0.00    +0.000 OA
ATOM      7  O   UNL     1       3.397   4.013  19.849  0.00  0.00    +0.000 OA
ATOM      8  C   UNL     1       3.910   4.541  18.628  0.00  0.00    +0.000 A 
ATOM      9  C   UNL     1       4.748   3.692  17.906  0.00  0.00    +0.000 A 
ATOM     10  C   UNL     1       5.278   4.133  16.696  0.00  0.00    +0.000 A 
ATOM     11  C   UNL     1       4.974   5.415  16.222  0.00  0.00    +0.000 A 
ATOM     12  C   UNL     1       5.531   5.908  14.917  0.00  0.00    +0.000 C 
ATOM     13  C   UNL     1       4.139   6.262  16.975  0.00  0.00    +0.000 A 
ATOM     14  C   UNL     1       3.589   5.839  18.185  0.00  0.00    +0.000 A 
ATOM     15  C   UNL     1       2.699   6.602  19.050  0.00  0.00    +0.000 A 
ENDROOT
BRANCH   1  16
ATOM     16  C   UNL     1       2.389   8.928  18.018  0.00  0.00    +0.000 C 
BRANCH  16  18
ATOM     17  N   UNL     1       0.108   9.762  17.996  0.00  0.00    +0.000 N 
ATOM     18  C   UNL     1       1.427  10.070  18.252  0.00  0.00    +0.000 C 
ATOM     19  O   UNL     1       1.808  11.187  18.593  0.00  0.00    +0.000 OA
ATOM     20  H   UNL     1      -0.086   8.865  17.554  0.00  0.00    +0.000 HD
BRANCH  17  21
ATOM     21  C   UNL     1      -0.948  10.777  18.005  0.00  0.00    +0.000 C 
BRANCH  21  22
ATOM     22  C   UNL     1      -2.186  10.334  17.199  0.00  0.00    +0.000 C 
ATOM     23  O   UNL     1      -2.966   9.465  17.562  0.00  0.00    +0.000 OA
BRANCH  22  25
ATOM     24  C   UNL     1      -3.028  10.338  15.003  0.00  0.00    +0.000 C 
ATOM     25  O   UNL     1      -2.292  11.017  16.018  0.00  0.00    +0.000 OA
ENDBRANCH  22  25
ENDBRANCH  21  22
BRANCH  21  26
ATOM     26  C   UNL     1      -1.373  11.087  19.449  0.00  0.00    +0.000 C 
BRANCH  26  27
ATOM     27  C   UNL     1      -1.838  12.528  19.683  0.00  0.00    +0.000 C 
BRANCH  27  28
ATOM     28  S   UNL     1      -0.492  13.592  20.292  0.00  0.00    +0.000 S 
ATOM     29  C   UNL     1      -0.102  14.456  18.754  0.00  0.00    +0.000 C 
ENDBRANCH  27  28
ENDBRANCH  26  27
ENDBRANCH  21  26
ENDBRANCH  17  21
ENDBRANCH  16  18
ENDBRANCH   1  16
TORSDOF 8
ENDMDL
MODEL 3
REMARK VINA RESULT:      -7.0      4.222      6.946
REMARK  Name = 
REMARK  11 active torsions:
REMARK  status: ('A' for Active; 'I' for Inactive)
REMARK    1  A    between atoms: C_1  and  O_2
REMARK    2  A    between atoms: O_2  and  C_3
REMARK    3  A    between atoms: C_3  and  C_5
REMARK    4  A    between atoms: C_5  and  C_6
REMARK    5  A    between atoms: C_5  and  N_10
REMARK    6  A    between atoms: C_6  and  C_7
REMARK    7  A    between atoms: C_7  and  S_8
REMARK    8  A    between atoms: S_8  and  C_9
REMARK    9  A    between atoms: C_11  and  C_13
REMARK   10  A    between atoms: C_13  and  N_14
REMARK   11  A    between atoms: C_24  and  C_25
REMARK                            x       y       z     vdW  Elec       q    Type
REMARK                         _______ _______ _______ _____ _____    ______ ____
ROOT
ATOM      1  N   UNL     1       2.053   7.583  19.509  0.00  0.00    +0.000 N 
ATOM      2  N   UNL     1       2.229   8.729  18.793  0.00  0.00    +0.000 NA
ATOM      3  C   UNL     1       3.072   8.380  17.820  0.00  0.00    +0.000 A 
ATOM      4  C   UNL     1       3.423   7.029  17.894  0.00  0.00    +0.000 A 
ATOM      5  C   UNL     1       4.274   6.226  17.051  0.00  0.00    +0.000 A 
ATOM      6  O   UNL     1       4.851   6.673  16.065  0.00  0.00    +0.000 OA
ATOM      7  O   UNL     1       4.392   4.876  17.430  0.00  0.00    +0.000 OA
ATOM      8  C   UNL     1       3.725   4.336  18.569  0.00  0.00    +0.000 A 
ATOM      9  C   UNL     1       3.948   2.982  18.817  0.00  0.00    +0.000 A 
ATOM     10  C   UNL     1       3.340   2.387  19.919  0.00  0.00    +0.000 A 
ATOM     11  C   UNL     1       2.512   3.143  20.759  0.00  0.00    +0.000 A 
ATOM     12  C   UNL     1       1.852   2.522  21.956  0.00  0.00    +0.000 C 
ATOM     13  C   UNL     1       2.288   4.505  20.481  0.00  0.00    +0.000 A 
ATOM     14  C   UNL     1       2.894   5.125  19.388  0.00  0.00    +0.000 A 
ATOM     15  C   UNL     1       2.763   6.523  19.000  0.00  0.00    +0.000 A 
ENDROOT
BRANCH   1  16
ATOM     16  C   UNL     1       1.128   7.651  20.620  0.00  0.00    +0.000 C 
BRANCH  16  18
ATOM     17  N   UNL     1       0.067   9.803  20.248  0.00  0.00    +0.000 N 
ATOM     18  C   UNL     1       0.917   9.081  21.059  0.00  0.00    +0.000 C 
ATOM     19  O   UNL     1       1.499   9.561  22.028  0.00  0.00    +0.000 OA
ATOM     20  H   UNL     1      -0.228   9.369  19.375  0.00  0.00    +0.000 HD
BRANCH  17  21
ATOM     21  C   UNL     1      -0.134  11.244  20.412  0.00  0.00    +0.000 C 
BRANCH  21  22
ATOM     22  C   UNL     1       1.129  12.052  20.052  0.00  0.00    +0.000 C 
ATOM     23  O   UNL     1       1.646  12.058  18.943  0.00  0.00    +0.000 OA
BRANCH  22  25
ATOM     24  C   UNL     1       2.654  13.669  20.823  0.00  0.00    +0.000 C 
ATOM     25  O   UNL     1       1.613  12.743  21.130  0.00  0.00    +0.000 OA
ENDBRANCH  22  25
ENDBRANCH  21  22
BRANCH  21  26
ATOM     26  C   UNL     1      -1.303  11.721  19.536  0.00  0.00    +0.000 C 
BRANCH  26  27
ATOM     27  C   UNL     1      -1.661  10.781  18.381  0.00  0.00    +0.000 C 
BRANCH  27  28
ATOM     28  S   UNL     1      -3.236  11.238  17.589  0.00  0.00    +0.000 S 
ATOM     29  C   UNL     1      -2.799  10.882  15.873  0.00  0.00    +0.000 C 
ENDBRANCH  27  28
ENDBRANCH  26  27
ENDBRANCH  21  26
ENDBRANCH  17  21
ENDBRANCH  16  18
ENDBRANCH   1  16
TORSDOF 8
ENDMDL
MODEL 4
REMARK VINA RESULT:      -6.9      4.653      7.240
REMARK  Name = 
REMARK  11 active torsions:
REMARK  status: ('A' for Active; 'I' for Inactive)
REMARK    1  A    between atoms: C_1  and  O_2
REMARK    2  A    between atoms: O_2  and  C_3
REMARK    3  A    between atoms: C_3  and  C_5
REMARK    4  A    between atoms: C_5  and  C_6
REMARK    5  A    between atoms: C_5  and  N_10
REMARK    6  A    between atoms: C_6  and  C_7
REMARK    7  A    between atoms: C_7  and  S_8
REMARK    8  A    between atoms: S_8  and  C_9
REMARK    9  A    between atoms: C_11  and  C_13
REMARK   10  A    between atoms: C_13  and  N_14
REMARK   11  A    between atoms: C_24  and  C_25
REMARK                            x       y       z     vdW  Elec       q    Type
REMARK                         _______ _______ _______ _____ _____    ______ ____
ROOT
ATOM      1  N   UNL     1       1.957   7.630  19.627  0.00  0.00    +0.000 N 
ATOM      2  N   UNL     1       2.115   8.788  18.928  0.00  0.00    +0.000 NA
ATOM      3  C   UNL     1       2.960   8.465  17.948  0.00  0.00    +0.000 A 
ATOM      4  C   UNL     1       3.328   7.117  18.000  0.00  0.00    +0.000 A 
ATOM      5  C   UNL     1       4.187   6.338  17.142  0.00  0.00    +0.000 A 
ATOM      6  O   UNL     1       4.755   6.806  16.162  0.00  0.00    +0.000 OA
ATOM      7  O   UNL     1       4.323   4.984  17.502  0.00  0.00    +0.000 OA
ATOM      8  C   UNL     1       3.666   4.419  18.635  0.00  0.00    +0.000 A 
ATOM      9  C   UNL     1       3.907   3.064  18.861  0.00  0.00    +0.000 A 
ATOM     10  C   UNL     1       3.310   2.445  19.956  0.00  0.00    +0.000 A 
ATOM     11  C   UNL     1       2.476   3.177  20.809  0.00  0.00    +0.000 A 
ATOM     12  C   UNL     1       1.827   2.530  21.999  0.00  0.00    +0.000 C 
ATOM     13  C   UNL     1       2.233   4.541  20.552  0.00  0.00    +0.000 A 
ATOM     14  C   UNL     1       2.828   5.185  19.468  0.00  0.00    +0.000 A 
ATOM     15  C   UNL     1       2.678   6.587  19.100  0.00  0.00    +0.000 A 
ENDROOT
BRANCH   1  16
ATOM     16  C   UNL     1       1.034   7.668  20.742  0.00  0.00    +0.000 C 
BRANCH  16  18
ATOM     17  N   UNL     1       0.058   9.890  20.640  0.00  0.00    +0.000 N 
ATOM     18  C   UNL     1       0.936   9.065  21.311  0.00  0.00    +0.000 C 
ATOM     19  O   UNL     1       1.623   9.435  22.259  0.00  0.00    +0.000 OA
ATOM     20  H   UNL     1      -0.333   9.544  19.766  0.00  0.00    +0.000 HD
BRANCH  17  21
ATOM     21  C   UNL     1      -0.053  11.320  20.937  0.00  0.00    +0.000 C 
BRANCH  21  22
ATOM     22  C   UNL     1       1.090  12.135  20.301  0.00  0.00    +0.000 C 
ATOM     23  O   UNL     1       1.364  12.120  19.109  0.00  0.00    +0.000 OA
BRANCH  22  25
ATOM     24  C   UNL     1       1.372  14.226  21.343  0.00  0.00    +0.000 C 
ATOM     25  O   UNL     1       1.775  12.862  21.237  0.00  0.00    +0.000 OA
ENDBRANCH  22  25
ENDBRANCH  21  22
BRANCH  21  26
ATOM     26  C   UNL     1      -1.400  11.863  20.433  0.00  0.00    +0.000 C 
BRANCH  26  27
ATOM     27  C   UNL     1      -2.166  12.716  21.449  0.00  0.00    +0.000 C 
BRANCH  27  28
ATOM     28  S   UNL     1      -2.043  12.044  23.137  0.00  0.00    +0.000 S 
ATOM     29  C   UNL     1      -3.661  12.554  23.758  0.00  0.00    +0.000 C 
ENDBRANCH  27  28
ENDBRANCH  26  27
ENDBRANCH  21  26
ENDBRANCH  17  21
ENDBRANCH  16  18
ENDBRANCH   1  16
TORSDOF 8
ENDMDL
MODEL 5
REMARK VINA RESULT:      -6.9      4.251      6.435
REMARK  Name = 
REMARK  11 active torsions:
REMARK  status: ('A' for Active; 'I' for Inactive)
REMARK    1  A    between atoms: C_1  and  O_2
REMARK    2  A    between atoms: O_2  and  C_3
REMARK    3  A    between atoms: C_3  and  C_5
REMARK    4  A    between atoms: C_5  and  C_6
REMARK    5  A    between atoms: C_5  and  N_10
REMARK    6  A    between atoms: C_6  and  C_7
REMARK    7  A    between atoms: C_7  and  S_8
REMARK    8  A    between atoms: S_8  and  C_9
REMARK    9  A    between atoms: C_11  and  C_13
REMARK   10  A    between atoms: C_13  and  N_14
REMARK   11  A    between atoms: C_24  and  C_25
REMARK                            x       y       z     vdW  Elec       q    Type
REMARK                         _______ _______ _______ _____ _____    ______ ____
ROOT
ATOM      1  N   UNL     1       2.205   7.822  18.963  0.00  0.00    +0.000 N 
ATOM      2  N   UNL     1       1.422   8.135  20.032  0.00  0.00    +0.000 NA
ATOM      3  C   UNL     1       1.440   7.033  20.784  0.00  0.00    +0.000 A 
ATOM      4  C   UNL     1       2.235   6.031  20.221  0.00  0.00    +0.000 A 
ATOM      5  C   UNL     1       2.559   4.706  20.690  0.00  0.00    +0.000 A 
ATOM      6  O   UNL     1       2.137   4.250  21.747  0.00  0.00    +0.000 OA
ATOM      7  O   UNL     1       3.412   3.966  19.850  0.00  0.00    +0.000 OA
ATOM      8  C   UNL     1       3.918   4.480  18.620  0.00  0.00    +0.000 A 
ATOM      9  C   UNL     1       4.746   3.621  17.899  0.00  0.00    +0.000 A 
ATOM     10  C   UNL     1       5.268   4.049  16.681  0.00  0.00    +0.000 A 
ATOM     11  C   UNL     1       4.967   5.328  16.198  0.00  0.00    +0.000 A 
ATOM     12  C   UNL     1       5.515   5.808  14.885  0.00  0.00    +0.000 C 
ATOM     13  C   UNL     1       4.142   6.186  16.951  0.00  0.00    +0.000 A 
ATOM     14  C   UNL     1       3.599   5.776  18.169  0.00  0.00    +0.000 A 
ATOM     15  C   UNL     1       2.720   6.551  19.034  0.00  0.00    +0.000 A 
ENDROOT
BRANCH   1  16
ATOM     16  C   UNL     1       2.413   8.869  17.985  0.00  0.00    +0.000 C 
BRANCH  16  18
ATOM     17  N   UNL     1       0.262   9.927  18.375  0.00  0.00    +0.000 N 
ATOM     18  C   UNL     1       1.628  10.108  18.349  0.00  0.00    +0.000 C 
ATOM     19  O   UNL     1       2.172  11.190  18.553  0.00  0.00    +0.000 OA
ATOM     20  H   UNL     1      -0.099   9.042  18.024  0.00  0.00    +0.000 HD
BRANCH  17  21
ATOM     21  C   UNL     1      -0.672  11.043  18.545  0.00  0.00    +0.000 C 
BRANCH  21  22
ATOM     22  C   UNL     1      -1.907  10.910  17.631  0.00  0.00    +0.000 C 
ATOM     23  O   UNL     1      -2.851  11.689  17.636  0.00  0.00    +0.000 OA
BRANCH  22  25
ATOM     24  C   UNL     1      -2.779   9.769  15.768  0.00  0.00    +0.000 C 
ATOM     25  O   UNL     1      -1.829   9.803  16.831  0.00  0.00    +0.000 OA
ENDBRANCH  22  25
ENDBRANCH  21  22
BRANCH  21  26
ATOM     26  C   UNL     1      -1.135  11.130  20.008  0.00  0.00    +0.000 C 
BRANCH  26  27
ATOM     27  C   UNL     1      -0.645  12.371  20.760  0.00  0.00    +0.000 C 
BRANCH  27  28
ATOM     28  S   UNL     1      -1.051  12.300  22.534  0.00  0.00    +0.000 S 
ATOM     29  C   UNL     1      -0.787  10.534  22.810  0.00  0.00    +0.000 C 
ENDBRANCH  27  28
ENDBRANCH  26  27
ENDBRANCH  21  26
ENDBRANCH  17  21
ENDBRANCH  16  18
ENDBRANCH   1  16
TORSDOF 8
ENDMDL
MODEL 6
REMARK VINA RESULT:      -6.9      0.888      1.089
REMARK  Name = 
REMARK  11 active torsions:
REMARK  status: ('A' for Active; 'I' for Inactive)
REMARK    1  A    between atoms: C_1  and  O_2
REMARK    2  A    between atoms: O_2  and  C_3
REMARK    3  A    between atoms: C_3  and  C_5
REMARK    4  A    between atoms: C_5  and  C_6
REMARK    5  A    between atoms: C_5  and  N_10
REMARK    6  A    between atoms: C_6  and  C_7
REMARK    7  A    between atoms: C_7  and  S_8
REMARK    8  A    between atoms: S_8  and  C_9
REMARK    9  A    between atoms: C_11  and  C_13
REMARK   10  A    between atoms: C_13  and  N_14
REMARK   11  A    between atoms: C_24  and  C_25
REMARK                            x       y       z     vdW  Elec       q    Type
REMARK                         _______ _______ _______ _____ _____    ______ ____
ROOT
ATOM      1  N   UNL     1       5.316   3.663  17.849  0.00  0.00    +0.000 N 
ATOM      2  N   UNL     1       5.366   4.014  19.165  0.00  0.00    +0.000 NA
ATOM      3  C   UNL     1       6.207   5.049  19.195  0.00  0.00    +0.000 A 
ATOM      4  C   UNL     1       6.679   5.374  17.920  0.00  0.00    +0.000 A 
ATOM      5  C   UNL     1       7.572   6.418  17.481  0.00  0.00    +0.000 A 
ATOM      6  O   UNL     1       8.076   7.233  18.247  0.00  0.00    +0.000 OA
ATOM      7  O   UNL     1       7.822   6.450  16.096  0.00  0.00    +0.000 OA
ATOM      8  C   UNL     1       7.241   5.516  15.189  0.00  0.00    +0.000 A 
ATOM      9  C   UNL     1       7.592   5.675  13.848  0.00  0.00    +0.000 A 
ATOM     10  C   UNL     1       7.074   4.792  12.904  0.00  0.00    +0.000 A 
ATOM     11  C   UNL     1       6.209   3.766  13.302  0.00  0.00    +0.000 A 
ATOM     12  C   UNL     1       5.644   2.800  12.300  0.00  0.00    +0.000 C 
ATOM     13  C   UNL     1       5.855   3.633  14.658  0.00  0.00    +0.000 A 
ATOM     14  C   UNL     1       6.369   4.499  15.623  0.00  0.00    +0.000 A 
ATOM     15  C   UNL     1       6.102   4.462  17.055  0.00  0.00    +0.000 A 
ENDROOT
BRANCH   1  16
ATOM     16  C   UNL     1       4.423   2.578  17.504  0.00  0.00    +0.000 C 
BRANCH  16  18
ATOM     17  N   UNL     1       2.791   4.256  18.147  0.00  0.00    +0.000 N 
ATOM     18  C   UNL     1       2.994   2.925  17.849  0.00  0.00    +0.000 C 
ATOM     19  O   UNL     1       2.109   2.076  17.906  0.00  0.00    +0.000 OA
ATOM     20  H   UNL     1       3.615   4.846  18.241  0.00  0.00    +0.000 HD
BRANCH  17  21
ATOM     21  C   UNL     1       1.515   4.756  18.663  0.00  0.00    +0.000 C 
BRANCH  21  22
ATOM     22  C   UNL     1       1.429   4.654  20.199  0.00  0.00    +0.000 C 
ATOM     23  O   UNL     1       1.896   5.483  20.969  0.00  0.00    +0.000 OA
BRANCH  22  25
ATOM     24  C   UNL     1       1.567   2.650  21.423  0.00  0.00    +0.000 C 
ATOM     25  O   UNL     1       0.788   3.513  20.597  0.00  0.00    +0.000 OA
ENDBRANCH  22  25
ENDBRANCH  21  22
BRANCH  21  26
ATOM     26  C   UNL     1       1.309   6.220  18.243  0.00  0.00    +0.000 C 
BRANCH  26  27
ATOM     27  C   UNL     1       2.596   7.045  18.151  0.00  0.00    +0.000 C 
BRANCH  27  28
ATOM     28  S   UNL     1       2.256   8.811  17.858  0.00  0.00    +0.000 S 
ATOM     29  C   UNL     1       1.337   9.172  19.370  0.00  0.00    +0.000 C 
ENDBRANCH  27  28
ENDBRANCH  26  27
ENDBRANCH  21  26
ENDBRANCH  17  21
ENDBRANCH  16  18
ENDBRANCH   1  16
TORSDOF 8
ENDMDL
MODEL 7
REMARK VINA RESULT:      -6.8      2.369      6.907
REMARK  Name = 
REMARK  11 active torsions:
REMARK  status: ('A' for Active; 'I' for Inactive)
REMARK    1  A    between atoms: C_1  and  O_2
REMARK    2  A    between atoms: O_2  and  C_3
REMARK    3  A    between atoms: C_3  and  C_5
REMARK    4  A    between atoms: C_5  and  C_6
REMARK    5  A    between atoms: C_5  and  N_10
REMARK    6  A    between atoms: C_6  and  C_7
REMARK    7  A    between atoms: C_7  and  S_8
REMARK    8  A    between atoms: S_8  and  C_9
REMARK    9  A    between atoms: C_11  and  C_13
REMARK   10  A    between atoms: C_13  and  N_14
REMARK   11  A    between atoms: C_24  and  C_25
REMARK                            x       y       z     vdW  Elec       q    Type
REMARK                         _______ _______ _______ _____ _____    ______ ____
ROOT
ATOM      1  N   UNL     1       2.965   3.171  17.848  0.00  0.00    +0.000 N 
ATOM      2  N   UNL     1       3.033   1.829  18.069  0.00  0.00    +0.000 NA
ATOM      3  C   UNL     1       2.669   1.689  19.345  0.00  0.00    +0.000 A 
ATOM      4  C   UNL     1       2.353   2.917  19.934  0.00  0.00    +0.000 A 
ATOM      5  C   UNL     1       1.895   3.237  21.264  0.00  0.00    +0.000 A 
ATOM      6  O   UNL     1       1.705   2.388  22.128  0.00  0.00    +0.000 OA
ATOM      7  O   UNL     1       1.667   4.605  21.505  0.00  0.00    +0.000 OA
ATOM      8  C   UNL     1       1.877   5.606  20.513  0.00  0.00    +0.000 A 
ATOM      9  C   UNL     1       1.611   6.917  20.909  0.00  0.00    +0.000 A 
ATOM     10  C   UNL     1       1.805   7.952  19.998  0.00  0.00    +0.000 A 
ATOM     11  C   UNL     1       2.254   7.671  18.702  0.00  0.00    +0.000 A 
ATOM     12  C   UNL     1       2.475   8.773  17.705  0.00  0.00    +0.000 C 
ATOM     13  C   UNL     1       2.500   6.339  18.317  0.00  0.00    +0.000 A 
ATOM     14  C   UNL     1       2.323   5.287  19.216  0.00  0.00    +0.000 A 
ATOM     15  C   UNL     1       2.558   3.873  18.956  0.00  0.00    +0.000 A 
ENDROOT
BRANCH   1  16
ATOM     16  C   UNL     1       3.263   3.620  16.505  0.00  0.00    +0.000 C 
BRANCH  16  18
ATOM     17  N   UNL     1       4.872   5.383  16.055  0.00  0.00    +0.000 N 
ATOM     18  C   UNL     1       4.706   4.057  16.392  0.00  0.00    +0.000 C 
ATOM     19  O   UNL     1       5.640   3.274  16.541  0.00  0.00    +0.000 OA
ATOM     20  H   UNL     1       4.040   5.905  15.784  0.00  0.00    +0.000 HD
BRANCH  17  21
ATOM     21  C   UNL     1       6.184   5.952  15.739  0.00  0.00    +0.000 C 
BRANCH  21  22
ATOM     22  C   UNL     1       6.855   6.587  16.973  0.00  0.00    +0.000 C 
ATOM     23  O   UNL     1       7.867   7.272  16.928  0.00  0.00    +0.000 OA
BRANCH  22  25
ATOM     24  C   UNL     1       6.972   5.554  19.084  0.00  0.00    +0.000 C 
ATOM     25  O   UNL     1       6.192   6.271  18.128  0.00  0.00    +0.000 OA
ENDBRANCH  22  25
ENDBRANCH  21  22
BRANCH  21  26
ATOM     26  C   UNL     1       7.109   4.866  15.166  0.00  0.00    +0.000 C 
BRANCH  26  27
ATOM     27  C   UNL     1       7.181   4.830  13.636  0.00  0.00    +0.000 C 
BRANCH  27  28
ATOM     28  S   UNL     1       5.983   3.658  12.922  0.00  0.00    +0.000 S 
ATOM     29  C   UNL     1       7.009   2.983  11.597  0.00  0.00    +0.000 C 
ENDBRANCH  27  28
ENDBRANCH  26  27
ENDBRANCH  21  26
ENDBRANCH  17  21
ENDBRANCH  16  18
ENDBRANCH   1  16
TORSDOF 8
ENDMDL
MODEL 8
REMARK VINA RESULT:      -6.7      1.074      1.191
REMARK  Name = 
REMARK  11 active torsions:
REMARK  status: ('A' for Active; 'I' for Inactive)
REMARK    1  A    between atoms: C_1  and  O_2
REMARK    2  A    between atoms: O_2  and  C_3
REMARK    3  A    between atoms: C_3  and  C_5
REMARK    4  A    between atoms: C_5  and  C_6
REMARK    5  A    between atoms: C_5  and  N_10
REMARK    6  A    between atoms: C_6  and  C_7
REMARK    7  A    between atoms: C_7  and  S_8
REMARK    8  A    between atoms: S_8  and  C_9
REMARK    9  A    between atoms: C_11  and  C_13
REMARK   10  A    between atoms: C_13  and  N_14
REMARK   11  A    between atoms: C_24  and  C_25
REMARK                            x       y       z     vdW  Elec       q    Type
REMARK                         _______ _______ _______ _____ _____    ______ ____
ROOT
ATOM      1  N   UNL     1       4.189   4.403  17.239  0.00  0.00    +0.000 N 
ATOM      2  N   UNL     1       4.182   4.847  18.527  0.00  0.00    +0.000 NA
ATOM      3  C   UNL     1       5.318   5.537  18.642  0.00  0.00    +0.000 A 
ATOM      4  C   UNL     1       6.039   5.555  17.444  0.00  0.00    +0.000 A 
ATOM      5  C   UNL     1       7.289   6.189  17.104  0.00  0.00    +0.000 A 
ATOM      6  O   UNL     1       7.938   6.859  17.900  0.00  0.00    +0.000 OA
ATOM      7  O   UNL     1       7.717   5.996  15.777  0.00  0.00    +0.000 OA
ATOM      8  C   UNL     1       6.974   5.225  14.834  0.00  0.00    +0.000 A 
ATOM      9  C   UNL     1       7.534   5.123  13.561  0.00  0.00    +0.000 A 
ATOM     10  C   UNL     1       6.873   4.375  12.590  0.00  0.00    +0.000 A 
ATOM     11  C   UNL     1       5.661   3.745  12.893  0.00  0.00    +0.000 A 
ATOM     12  C   UNL     1       4.934   2.929  11.862  0.00  0.00    +0.000 C 
ATOM     13  C   UNL     1       5.105   3.875  14.180  0.00  0.00    +0.000 A 
ATOM     14  C   UNL     1       5.754   4.610  15.172  0.00  0.00    +0.000 A 
ATOM     15  C   UNL     1       5.302   4.808  16.543  0.00  0.00    +0.000 A 
ENDROOT
BRANCH   1  16
ATOM     16  C   UNL     1       3.030   3.652  16.808  0.00  0.00    +0.000 C 
BRANCH  16  18
ATOM     17  N   UNL     1       2.026   4.504  18.848  0.00  0.00    +0.000 N 
ATOM     18  C   UNL     1       2.058   3.459  17.949  0.00  0.00    +0.000 C 
ATOM     19  O   UNL     1       1.397   2.432  18.079  0.00  0.00    +0.000 OA
ATOM     20  H   UNL     1       2.733   5.230  18.748  0.00  0.00    +0.000 HD
BRANCH  17  21
ATOM     21  C   UNL     1       1.273   4.433  20.102  0.00  0.00    +0.000 C 
BRANCH  21  22
ATOM     22  C   UNL     1       1.812   3.336  21.042  0.00  0.00    +0.000 C 
ATOM     23  O   UNL     1       1.106   2.521  21.621  0.00  0.00    +0.000 OA
BRANCH  22  25
ATOM     24  C   UNL     1       3.859   2.200  20.813  0.00  0.00    +0.000 C 
ATOM     25  O   UNL     1       3.173   3.400  21.167  0.00  0.00    +0.000 OA
ENDBRANCH  22  25
ENDBRANCH  21  22
BRANCH  21  26
ATOM     26  C   UNL     1       1.322   5.787  20.828  0.00  0.00    +0.000 C 
BRANCH  26  27
ATOM     27  C   UNL     1       1.913   6.934  20.003  0.00  0.00    +0.000 C 
BRANCH  27  28
ATOM     28  S   UNL     1       1.344   8.562  20.587  0.00  0.00    +0.000 S 
ATOM     29  C   UNL     1       1.258   9.414  18.996  0.00  0.00    +0.000 C 
ENDBRANCH  27  28
ENDBRANCH  26  27
ENDBRANCH  21  26
ENDBRANCH  17  21
ENDBRANCH  16  18
ENDBRANCH   1  16
TORSDOF 8
ENDMDL
MODEL 9
REMARK VINA RESULT:      -6.7      4.796      7.324
REMARK  Name = 
REMARK  11 active torsions:
REMARK  status: ('A' for Active; 'I' for Inactive)
REMARK    1  A    between atoms: C_1  and  O_2
REMARK    2  A    between atoms: O_2  and  C_3
REMARK    3  A    between atoms: C_3  and  C_5
REMARK    4  A    between atoms: C_5  and  C_6
REMARK    5  A    between atoms: C_5  and  N_10
REMARK    6  A    between atoms: C_6  and  C_7
REMARK    7  A    between atoms: C_7  and  S_8
REMARK    8  A    between atoms: S_8  and  C_9
REMARK    9  A    between atoms: C_11  and  C_13
REMARK   10  A    between atoms: C_13  and  N_14
REMARK   11  A    between atoms: C_24  and  C_25
REMARK                            x       y       z     vdW  Elec       q    Type
REMARK                         _______ _______ _______ _____ _____    ______ ____
ROOT
ATOM      1  N   UNL     1       1.886   7.712  19.641  0.00  0.00    +0.000 N 
ATOM      2  N   UNL     1       2.049   8.868  18.940  0.00  0.00    +0.000 NA
ATOM      3  C   UNL     1       2.888   8.539  17.956  0.00  0.00    +0.000 A 
ATOM      4  C   UNL     1       3.247   7.189  18.008  0.00  0.00    +0.000 A 
ATOM      5  C   UNL     1       4.097   6.403  17.148  0.00  0.00    +0.000 A 
ATOM      6  O   UNL     1       4.664   6.867  16.164  0.00  0.00    +0.000 OA
ATOM      7  O   UNL     1       4.225   5.049  17.508  0.00  0.00    +0.000 OA
ATOM      8  C   UNL     1       3.570   4.489  18.644  0.00  0.00    +0.000 A 
ATOM      9  C   UNL     1       3.804   3.133  18.871  0.00  0.00    +0.000 A 
ATOM     10  C   UNL     1       3.208   2.519  19.969  0.00  0.00    +0.000 A 
ATOM     11  C   UNL     1       2.382   3.258  20.825  0.00  0.00    +0.000 A 
ATOM     12  C   UNL     1       1.734   2.616  22.019  0.00  0.00    +0.000 C 
ATOM     13  C   UNL     1       2.147   4.622  20.568  0.00  0.00    +0.000 A 
ATOM     14  C   UNL     1       2.741   5.261  19.480  0.00  0.00    +0.000 A 
ATOM     15  C   UNL     1       2.599   6.664  19.112  0.00  0.00    +0.000 A 
ENDROOT
BRANCH   1  16
ATOM     16  C   UNL     1       0.969   7.758  20.760  0.00  0.00    +0.000 C 
BRANCH  16  18
ATOM     17  N   UNL     1       0.146  10.043  20.786  0.00  0.00    +0.000 N 
ATOM     18  C   UNL     1       0.971   9.126  21.402  0.00  0.00    +0.000 C 
ATOM     19  O   UNL     1       1.691   9.398  22.359  0.00  0.00    +0.000 OA
ATOM     20  H   UNL     1      -0.276   9.771  19.900  0.00  0.00    +0.000 HD
BRANCH  17  21
ATOM     21  C   UNL     1       0.135  11.459  21.158  0.00  0.00    +0.000 C 
BRANCH  21  22
ATOM     22  C   UNL     1       0.511  12.373  19.975  0.00  0.00    +0.000 C 
ATOM     23  O   UNL     1      -0.301  13.001  19.308  0.00  0.00    +0.000 OA
BRANCH  22  25
ATOM     24  C   UNL     1       2.232  12.499  18.376  0.00  0.00    +0.000 C 
ATOM     25  O   UNL     1       1.860  12.380  19.748  0.00  0.00    +0.000 OA
ENDBRANCH  22  25
ENDBRANCH  21  22
BRANCH  21  26
ATOM     26  C   UNL     1      -1.253  11.860  21.683  0.00  0.00    +0.000 C 
BRANCH  26  27
ATOM     27  C   UNL     1      -1.241  12.594  23.027  0.00  0.00    +0.000 C 
BRANCH  27  28
ATOM     28  S   UNL     1      -1.199  14.402  22.819  0.00  0.00    +0.000 S 
ATOM     29  C   UNL     1      -1.535  14.888  24.526  0.00  0.00    +0.000 C 
ENDBRANCH  27  28
ENDBRANCH  26  27
ENDBRANCH  21  26
ENDBRANCH  17  21
ENDBRANCH  16  18
ENDBRANCH   1  16
TORSDOF 8
ENDMDL
