MODEL 1
REMARK VINA RESULT:      -7.2      0.000      0.000
REMARK  Name = 
REMARK  4 active torsions:
REMARK  status: ('A' for Active; 'I' for Inactive)
REMARK    1  A    between atoms: C_1  and  C_2
REMARK    2  A    between atoms: N_5  and  C_6
REMARK    3  A    between atoms: C_17  and  C_18
REMARK    4  A    between atoms: C_19  and  N_20
REMARK                            x       y       z     vdW  Elec       q    Type
REMARK                         _______ _______ _______ _____ _____    ______ ____
ROOT
ATOM      1  C   UNL     1       1.925   3.157  21.603  0.00  0.00    +0.000 C 
ATOM      2  C   UNL     1       2.393   4.178  20.605  0.00  0.00    +0.000 A 
ATOM      3  N   UNL     1       1.922   5.433  20.789  0.00  0.00    +0.000 NA
ATOM      4  C   UNL     1       2.348   6.404  19.972  0.00  0.00    +0.000 A 
ATOM      5  N   UNL     1       1.865   7.686  20.082  0.00  0.00    +0.000 N 
ATOM      6  N   UNL     1       3.243   6.194  19.001  0.00  0.00    +0.000 NA
ATOM      7  C   UNL     1       3.677   4.930  18.766  0.00  0.00    +0.000 A 
ATOM      8  N   UNL     1       4.503   4.767  17.606  0.00  0.00    +0.000 N 
ATOM      9  C   UNL     1       4.597   3.662  16.789  0.00  0.00    +0.000 A 
ATOM     10  C   UNL     1       5.457   4.005  15.775  0.00  0.00    +0.000 A 
ATOM     11  N   UNL     1       5.889   5.283  15.921  0.00  0.00    +0.000 NA
ATOM     12  C   UNL     1       5.303   5.743  17.017  0.00  0.00    +0.000 A 
ATOM     13  C   UNL     1       5.548   7.098  17.568  0.00  0.00    +0.000 C 
ATOM     14  C   UNL     1       3.264   3.880  19.569  0.00  0.00    +0.000 A 
ATOM     15  H   UNL     1       2.482   8.349  19.629  0.00  0.00    +0.000 HD
ENDROOT
BRANCH   5  16
ATOM     16  C   UNL     1       1.149   8.082  21.289  0.00  0.00    +0.000 C 
ATOM     17  C   UNL     1      -0.327   8.340  20.966  0.00  0.00    +0.000 C 
ATOM     18  C   UNL     1      -0.458   9.748  20.412  0.00  0.00    +0.000 C 
ATOM     19  S   UNL     1       0.665  10.748  21.410  0.00  0.00    +0.000 S 
ATOM     20  C   UNL     1       1.707   9.355  21.941  0.00  0.00    +0.000 C 
ENDBRANCH   5  16
BRANCH  14  21
ATOM     21  N   UNL     1       3.803   2.560  19.463  0.00  0.00    +0.000 N 
ATOM     22  O   UNL     1       3.134   1.726  18.838  0.00  0.00    +0.000 OA
ATOM     23  O   UNL     1       4.891   2.349  20.012  0.00  0.00    +0.000 OA
ENDBRANCH  14  21
TORSDOF 2
ENDMDL
MODEL 2
REMARK VINA RESULT:      -6.6      2.069      4.021
REMARK  Name = 
REMARK  4 active torsions:
REMARK  status: ('A' for Active; 'I' for Inactive)
REMARK    1  A    between atoms: C_1  and  C_2
REMARK    2  A    between atoms: N_5  and  C_6
REMARK    3  A    between atoms: C_17  and  C_18
REMARK    4  A    between atoms: C_19  and  N_20
REMARK                            x       y       z     vdW  Elec       q    Type
REMARK                         _______ _______ _______ _____ _____    ______ ____
ROOT
ATOM      1  C   UNL     1       4.901   7.119  15.975  0.00  0.00    +0.000 C 
ATOM      2  C   UNL     1       4.111   6.752  17.199  0.00  0.00    +0.000 A 
ATOM      3  N   UNL     1       3.300   7.721  17.682  0.00  0.00    +0.000 NA
ATOM      4  C   UNL     1       2.522   7.440  18.735  0.00  0.00    +0.000 A 
ATOM      5  N   UNL     1       1.714   8.399  19.296  0.00  0.00    +0.000 N 
ATOM      6  N   UNL     1       2.490   6.234  19.311  0.00  0.00    +0.000 NA
ATOM      7  C   UNL     1       3.343   5.272  18.877  0.00  0.00    +0.000 A 
ATOM      8  N   UNL     1       3.363   4.067  19.653  0.00  0.00    +0.000 N 
ATOM      9  C   UNL     1       4.429   3.222  19.868  0.00  0.00    +0.000 A 
ATOM     10  C   UNL     1       3.982   2.251  20.730  0.00  0.00    +0.000 A 
ATOM     11  N   UNL     1       2.687   2.467  21.072  0.00  0.00    +0.000 NA
ATOM     12  C   UNL     1       2.321   3.568  20.432  0.00  0.00    +0.000 A 
ATOM     13  C   UNL     1       0.949   4.130  20.490  0.00  0.00    +0.000 C 
ATOM     14  C   UNL     1       4.181   5.505  17.799  0.00  0.00    +0.000 A 
ATOM     15  H   UNL     1       0.982   7.979  19.856  0.00  0.00    +0.000 HD
ENDROOT
BRANCH   5  16
ATOM     16  C   UNL     1       1.437   9.626  18.558  0.00  0.00    +0.000 C 
ATOM     17  C   UNL     1       1.380  10.818  19.518  0.00  0.00    +0.000 C 
ATOM     18  C   UNL     1      -0.003  10.867  20.143  0.00  0.00    +0.000 C 
ATOM     19  S   UNL     1      -1.135  10.452  18.800  0.00  0.00    +0.000 S 
ATOM     20  C   UNL     1       0.107   9.590  17.791  0.00  0.00    +0.000 C 
ENDBRANCH   5  16
BRANCH  14  21
ATOM     21  N   UNL     1       4.989   4.485  17.205  0.00  0.00    +0.000 N 
ATOM     22  O   UNL     1       6.191   4.473  17.502  0.00  0.00    +0.000 OA
ATOM     23  O   UNL     1       4.427   3.699  16.433  0.00  0.00    +0.000 OA
ENDBRANCH  14  21
TORSDOF 2
ENDMDL
MODEL 3
REMARK VINA RESULT:      -6.6      1.523      1.832
REMARK  Name = 
REMARK  4 active torsions:
REMARK  status: ('A' for Active; 'I' for Inactive)
REMARK    1  A    between atoms: C_1  and  C_2
REMARK    2  A    between atoms: N_5  and  C_6
REMARK    3  A    between atoms: C_17  and  C_18
REMARK    4  A    between atoms: C_19  and  N_20
REMARK                            x       y       z     vdW  Elec       q    Type
REMARK                         _______ _______ _______ _____ _____    ______ ____
ROOT
ATOM      1  C   UNL     1       1.534   3.942  19.877  0.00  0.00    +0.000 C 
ATOM      2  C   UNL     1       2.368   4.932  19.113  0.00  0.00    +0.000 A 
ATOM      3  N   UNL     1       1.877   6.191  19.060  0.00  0.00    +0.000 NA
ATOM      4  C   UNL     1       2.601   7.137  18.448  0.00  0.00    +0.000 A 
ATOM      5  N   UNL     1       2.129   8.421  18.322  0.00  0.00    +0.000 N 
ATOM      6  N   UNL     1       3.803   6.896  17.914  0.00  0.00    +0.000 NA
ATOM      7  C   UNL     1       4.280   5.626  17.905  0.00  0.00    +0.000 A 
ATOM      8  N   UNL     1       5.492   5.426  17.168  0.00  0.00    +0.000 N 
ATOM      9  C   UNL     1       5.887   4.296  16.486  0.00  0.00    +0.000 A 
ATOM     10  C   UNL     1       7.079   4.608  15.882  0.00  0.00    +0.000 A 
ATOM     11  N   UNL     1       7.435   5.890  16.148  0.00  0.00    +0.000 NA
ATOM     12  C   UNL     1       6.472   6.384  16.912  0.00  0.00    +0.000 A 
ATOM     13  C   UNL     1       6.497   7.756  17.475  0.00  0.00    +0.000 C 
ATOM     14  C   UNL     1       3.573   4.602  18.511  0.00  0.00    +0.000 A 
ATOM     15  H   UNL     1       2.883   9.069  18.129  0.00  0.00    +0.000 HD
ENDROOT
BRANCH   5  16
ATOM     16  C   UNL     1       1.002   8.854  19.139  0.00  0.00    +0.000 C 
ATOM     17  C   UNL     1       0.195   9.926  18.398  0.00  0.00    +0.000 C 
ATOM     18  C   UNL     1       0.876  11.268  18.602  0.00  0.00    +0.000 C 
ATOM     19  S   UNL     1       1.413  11.258  20.325  0.00  0.00    +0.000 S 
ATOM     20  C   UNL     1       1.420   9.448  20.492  0.00  0.00    +0.000 C 
ENDBRANCH   5  16
BRANCH  14  21
ATOM     21  N   UNL     1       4.093   3.279  18.665  0.00  0.00    +0.000 N 
ATOM     22  O   UNL     1       4.935   3.103  19.557  0.00  0.00    +0.000 OA
ATOM     23  O   UNL     1       3.671   2.413  17.889  0.00  0.00    +0.000 OA
ENDBRANCH  14  21
TORSDOF 2
ENDMDL
MODEL 4
REMARK VINA RESULT:      -6.5      3.033      6.088
REMARK  Name = 
REMARK  4 active torsions:
REMARK  status: ('A' for Active; 'I' for Inactive)
REMARK    1  A    between atoms: C_1  and  C_2
REMARK    2  A    between atoms: N_5  and  C_6
REMARK    3  A    between atoms: C_17  and  C_18
REMARK    4  A    between atoms: C_19  and  N_20
REMARK                            x       y       z     vdW  Elec       q    Type
REMARK                         _______ _______ _______ _____ _____    ______ ____
ROOT
ATOM      1  C   UNL     1       3.708   2.112  19.834  0.00  0.00    +0.000 C 
ATOM      2  C   UNL     1       3.792   3.546  19.395  0.00  0.00    +0.000 A 
ATOM      3  N   UNL     1       4.771   3.829  18.507  0.00  0.00    +0.000 NA
ATOM      4  C   UNL     1       4.863   5.075  18.027  0.00  0.00    +0.000 A 
ATOM      5  N   UNL     1       5.868   5.430  17.160  0.00  0.00    +0.000 N 
ATOM      6  N   UNL     1       4.009   6.046  18.366  0.00  0.00    +0.000 NA
ATOM      7  C   UNL     1       3.060   5.794  19.303  0.00  0.00    +0.000 A 
ATOM      8  N   UNL     1       2.296   6.929  19.730  0.00  0.00    +0.000 N 
ATOM      9  C   UNL     1       1.745   7.153  20.972  0.00  0.00    +0.000 A 
ATOM     10  C   UNL     1       1.174   8.401  20.920  0.00  0.00    +0.000 A 
ATOM     11  N   UNL     1       1.360   8.967  19.700  0.00  0.00    +0.000 NA
ATOM     12  C   UNL     1       2.047   8.084  18.991  0.00  0.00    +0.000 A 
ATOM     13  C   UNL     1       2.419   8.288  17.569  0.00  0.00    +0.000 C 
ATOM     14  C   UNL     1       2.922   4.527  19.845  0.00  0.00    +0.000 A 
ATOM     15  H   UNL     1       5.635   6.278  16.658  0.00  0.00    +0.000 HD
ENDROOT
BRANCH   5  16
ATOM     16  C   UNL     1       6.637   4.389  16.489  0.00  0.00    +0.000 C 
ATOM     17  C   UNL     1       7.694   5.020  15.576  0.00  0.00    +0.000 C 
ATOM     18  C   UNL     1       7.032   5.395  14.262  0.00  0.00    +0.000 C 
ATOM     19  S   UNL     1       5.908   4.030  13.902  0.00  0.00    +0.000 S 
ATOM     20  C   UNL     1       5.779   3.457  15.622  0.00  0.00    +0.000 C 
ENDBRANCH   5  16
BRANCH  14  21
ATOM     21  N   UNL     1       1.849   4.166  20.719  0.00  0.00    +0.000 N 
ATOM     22  O   UNL     1       2.129   3.986  21.912  0.00  0.00    +0.000 OA
ATOM     23  O   UNL     1       0.725   4.053  20.216  0.00  0.00    +0.000 OA
ENDBRANCH  14  21
TORSDOF 2
ENDMDL
MODEL 5
REMARK VINA RESULT:      -5.8      7.747      9.813
REMARK  Name = 
REMARK  4 active torsions:
REMARK  status: ('A' for Active; 'I' for Inactive)
REMARK    1  A    between atoms: C_1  and  C_2
REMARK    2  A    between atoms: N_5  and  C_6
REMARK    3  A    between atoms: C_17  and  C_18
REMARK    4  A    between atoms: C_19  and  N_20
REMARK                            x       y       z     vdW  Elec       q    Type
REMARK                         _______ _______ _______ _____ _____    ______ ____
ROOT
ATOM      1  C   UNL     1       1.002  11.228  21.470  0.00  0.00    +0.000 C 
ATOM      2  C   UNL     1       0.711  12.242  20.400  0.00  0.00    +0.000 A 
ATOM      3  N   UNL     1      -0.199  11.867  19.472  0.00  0.00    +0.000 NA
ATOM      4  C   UNL     1      -0.551  12.747  18.526  0.00  0.00    +0.000 A 
ATOM      5  N   UNL     1      -1.434  12.403  17.531  0.00  0.00    +0.000 N 
ATOM      6  N   UNL     1      -0.063  13.991  18.476  0.00  0.00    +0.000 NA
ATOM      7  C   UNL     1       0.897  14.360  19.362  0.00  0.00    +0.000 A 
ATOM      8  N   UNL     1       1.484  15.647  19.136  0.00  0.00    +0.000 N 
ATOM      9  C   UNL     1       2.773  16.045  19.413  0.00  0.00    +0.000 A 
ATOM     10  C   UNL     1       2.884  17.335  18.956  0.00  0.00    +0.000 A 
ATOM     11  N   UNL     1       1.722  17.750  18.392  0.00  0.00    +0.000 NA
ATOM     12  C   UNL     1       0.885  16.727  18.490  0.00  0.00    +0.000 A 
ATOM     13  C   UNL     1      -0.527  16.780  18.037  0.00  0.00    +0.000 C 
ATOM     14  C   UNL     1       1.311  13.491  20.357  0.00  0.00    +0.000 A 
ATOM     15  H   UNL     1      -1.830  13.226  17.094  0.00  0.00    +0.000 HD
ENDROOT
BRANCH   5  16
ATOM     16  C   UNL     1      -2.254  11.207  17.681  0.00  0.00    +0.000 C 
ATOM     17  C   UNL     1      -2.378  10.480  16.337  0.00  0.00    +0.000 C 
ATOM     18  C   UNL     1      -3.477  11.148  15.530  0.00  0.00    +0.000 C 
ATOM     19  S   UNL     1      -4.774  11.520  16.729  0.00  0.00    +0.000 S 
ATOM     20  C   UNL     1      -3.676  11.499  18.179  0.00  0.00    +0.000 C 
ENDBRANCH   5  16
BRANCH  14  21
ATOM     21  N   UNL     1       2.204  13.876  21.406  0.00  0.00    +0.000 N 
ATOM     22  O   UNL     1       1.738  14.572  22.318  0.00  0.00    +0.000 OA
ATOM     23  O   UNL     1       3.376  13.492  21.317  0.00  0.00    +0.000 OA
ENDBRANCH  14  21
TORSDOF 2
ENDMDL
MODEL 6
REMARK VINA RESULT:      -5.7      8.468     10.040
REMARK  Name = 
REMARK  4 active torsions:
REMARK  status: ('A' for Active; 'I' for Inactive)
REMARK    1  A    between atoms: C_1  and  C_2
REMARK    2  A    between atoms: N_5  and  C_6
REMARK    3  A    between atoms: C_17  and  C_18
REMARK    4  A    between atoms: C_19  and  N_20
REMARK                            x       y       z     vdW  Elec       q    Type
REMARK                         _______ _______ _______ _____ _____    ______ ____
ROOT
ATOM      1  C   UNL     1      -0.521  13.453  21.682  0.00  0.00    +0.000 C 
ATOM      2  C   UNL     1      -1.763  12.950  21.003  0.00  0.00    +0.000 A 
ATOM      3  N   UNL     1      -2.894  12.996  21.744  0.00  0.00    +0.000 NA
ATOM      4  C   UNL     1      -4.048  12.620  21.180  0.00  0.00    +0.000 A 
ATOM      5  N   UNL     1      -5.217  12.602  21.900  0.00  0.00    +0.000 N 
ATOM      6  N   UNL     1      -4.136  12.230  19.904  0.00  0.00    +0.000 NA
ATOM      7  C   UNL     1      -3.002  12.118  19.167  0.00  0.00    +0.000 A 
ATOM      8  N   UNL     1      -3.164  11.536  17.868  0.00  0.00    +0.000 N 
ATOM      9  C   UNL     1      -2.256  10.771  17.169  0.00  0.00    +0.000 A 
ATOM     10  C   UNL     1      -2.888  10.384  16.013  0.00  0.00    +0.000 A 
ATOM     11  N   UNL     1      -4.157  10.864  15.972  0.00  0.00    +0.000 NA
ATOM     12  C   UNL     1      -4.324  11.546  17.096  0.00  0.00    +0.000 A 
ATOM     13  C   UNL     1      -5.568  12.284  17.427  0.00  0.00    +0.000 C 
ATOM     14  C   UNL     1      -1.776  12.481  19.698  0.00  0.00    +0.000 A 
ATOM     15  H   UNL     1      -6.024  12.602  21.288  0.00  0.00    +0.000 HD
ENDROOT
BRANCH   5  16
ATOM     16  C   UNL     1      -5.286  13.306  23.176  0.00  0.00    +0.000 C 
ATOM     17  C   UNL     1      -6.246  12.582  24.126  0.00  0.00    +0.000 C 
ATOM     18  C   UNL     1      -7.664  13.015  23.796  0.00  0.00    +0.000 C 
ATOM     19  S   UNL     1      -7.543  14.783  23.453  0.00  0.00    +0.000 S 
ATOM     20  C   UNL     1      -5.771  14.756  23.048  0.00  0.00    +0.000 C 
ENDBRANCH   5  16
BRANCH  14  21
ATOM     21  N   UNL     1      -0.574  12.529  18.925  0.00  0.00    +0.000 N 
ATOM     22  O   UNL     1      -0.421  13.506  18.180  0.00  0.00    +0.000 OA
ATOM     23  O   UNL     1       0.215  11.585  19.051  0.00  0.00    +0.000 OA
ENDBRANCH  14  21
TORSDOF 2
ENDMDL
MODEL 7
REMARK VINA RESULT:      -5.6      2.159      3.871
REMARK  Name = 
REMARK  4 active torsions:
REMARK  status: ('A' for Active; 'I' for Inactive)
REMARK    1  A    between atoms: C_1  and  C_2
REMARK    2  A    between atoms: N_5  and  C_6
REMARK    3  A    between atoms: C_17  and  C_18
REMARK    4  A    between atoms: C_19  and  N_20
REMARK                            x       y       z     vdW  Elec       q    Type
REMARK                         _______ _______ _______ _____ _____    ______ ____
ROOT
ATOM      1  C   UNL     1       5.736   7.448  16.688  0.00  0.00    +0.000 C 
ATOM      2  C   UNL     1       4.633   6.755  17.437  0.00  0.00    +0.000 A 
ATOM      3  N   UNL     1       3.726   7.567  18.025  0.00  0.00    +0.000 NA
ATOM      4  C   UNL     1       2.683   7.013  18.655  0.00  0.00    +0.000 A 
ATOM      5  N   UNL     1       1.757   7.789  19.311  0.00  0.00    +0.000 N 
ATOM      6  N   UNL     1       2.483   5.692  18.703  0.00  0.00    +0.000 NA
ATOM      7  C   UNL     1       3.417   4.863  18.172  0.00  0.00    +0.000 A 
ATOM      8  N   UNL     1       3.211   3.466  18.412  0.00  0.00    +0.000 N 
ATOM      9  C   UNL     1       4.169   2.486  18.556  0.00  0.00    +0.000 A 
ATOM     10  C   UNL     1       3.493   1.326  18.841  0.00  0.00    +0.000 A 
ATOM     11  N   UNL     1       2.155   1.547  18.895  0.00  0.00    +0.000 NA
ATOM     12  C   UNL     1       1.990   2.838  18.649  0.00  0.00    +0.000 A 
ATOM     13  C   UNL     1       0.660   3.491  18.562  0.00  0.00    +0.000 C 
ATOM     14  C   UNL     1       4.524   5.375  17.516  0.00  0.00    +0.000 A 
ATOM     15  H   UNL     1       0.895   7.279  19.463  0.00  0.00    +0.000 HD
ENDROOT
BRANCH   5  16
ATOM     16  C   UNL     1       1.705   9.222  19.047  0.00  0.00    +0.000 C 
ATOM     17  C   UNL     1       1.118   9.960  20.255  0.00  0.00    +0.000 C 
ATOM     18  C   UNL     1      -0.397   9.878  20.178  0.00  0.00    +0.000 C 
ATOM     19  S   UNL     1      -0.786  10.098  18.430  0.00  0.00    +0.000 S 
ATOM     20  C   UNL     1       0.851   9.588  17.825  0.00  0.00    +0.000 C 
ENDBRANCH   5  16
BRANCH  14  21
ATOM     21  N   UNL     1       5.459   4.556  16.809  0.00  0.00    +0.000 N 
ATOM     22  O   UNL     1       6.548   4.339  17.357  0.00  0.00    +0.000 OA
ATOM     23  O   UNL     1       5.112   4.133  15.699  0.00  0.00    +0.000 OA
ENDBRANCH  14  21
TORSDOF 2
ENDMDL
MODEL 8
REMARK VINA RESULT:      -5.5      7.042      9.696
REMARK  Name = 
REMARK  4 active torsions:
REMARK  status: ('A' for Active; 'I' for Inactive)
REMARK    1  A    between atoms: C_1  and  C_2
REMARK    2  A    between atoms: N_5  and  C_6
REMARK    3  A    between atoms: C_17  and  C_18
REMARK    4  A    between atoms: C_19  and  N_20
REMARK                            x       y       z     vdW  Elec       q    Type
REMARK                         _______ _______ _______ _____ _____    ______ ____
ROOT
ATOM      1  C   UNL     1      -3.843  12.766  23.893  0.00  0.00    +0.000 C 
ATOM      2  C   UNL     1      -3.448  12.598  22.453  0.00  0.00    +0.000 A 
ATOM      3  N   UNL     1      -4.406  12.900  21.546  0.00  0.00    +0.000 NA
ATOM      4  C   UNL     1      -4.101  12.831  20.244  0.00  0.00    +0.000 A 
ATOM      5  N   UNL     1      -5.048  13.079  19.280  0.00  0.00    +0.000 N 
ATOM      6  N   UNL     1      -2.882  12.506  19.802  0.00  0.00    +0.000 NA
ATOM      7  C   UNL     1      -1.930  12.141  20.697  0.00  0.00    +0.000 A 
ATOM      8  N   UNL     1      -0.708  11.649  20.134  0.00  0.00    +0.000 N 
ATOM      9  C   UNL     1       0.143  10.704  20.664  0.00  0.00    +0.000 A 
ATOM     10  C   UNL     1       1.133  10.512  19.732  0.00  0.00    +0.000 A 
ATOM     11  N   UNL     1       0.924  11.288  18.638  0.00  0.00    +0.000 NA
ATOM     12  C   UNL     1      -0.192  11.961  18.877  0.00  0.00    +0.000 A 
ATOM     13  C   UNL     1      -0.753  12.971  17.947  0.00  0.00    +0.000 C 
ATOM     14  C   UNL     1      -2.187  12.180  22.057  0.00  0.00    +0.000 A 
ATOM     15  H   UNL     1      -4.615  13.291  18.389  0.00  0.00    +0.000 HD
ENDROOT
BRANCH   5  16
ATOM     16  C   UNL     1      -6.291  13.746  19.650  0.00  0.00    +0.000 C 
ATOM     17  C   UNL     1      -7.466  13.140  18.873  0.00  0.00    +0.000 C 
ATOM     18  C   UNL     1      -7.514  13.784  17.498  0.00  0.00    +0.000 C 
ATOM     19  S   UNL     1      -7.137  15.525  17.787  0.00  0.00    +0.000 S 
ATOM     20  C   UNL     1      -6.283  15.255  19.368  0.00  0.00    +0.000 C 
ENDBRANCH   5  16
BRANCH  14  21
ATOM     21  N   UNL     1      -1.181  11.954  23.047  0.00  0.00    +0.000 N 
ATOM     22  O   UNL     1      -1.096  10.809  23.514  0.00  0.00    +0.000 OA
ATOM     23  O   UNL     1      -0.478  12.919  23.370  0.00  0.00    +0.000 OA
ENDBRANCH  14  21
TORSDOF 2
ENDMDL
MODEL 9
REMARK VINA RESULT:      -5.5      7.712      9.981
REMARK  Name = 
REMARK  4 active torsions:
REMARK  status: ('A' for Active; 'I' for Inactive)
REMARK    1  A    between atoms: C_1  and  C_2
REMARK    2  A    between atoms: N_5  and  C_6
REMARK    3  A    between atoms: C_17  and  C_18
REMARK    4  A    between atoms: C_19  and  N_20
REMARK                            x       y       z     vdW  Elec       q    Type
REMARK                         _______ _______ _______ _____ _____    ______ ____
ROOT
ATOM      1  C   UNL     1      -5.350  11.575  17.483  0.00  0.00    +0.000 C 
ATOM      2  C   UNL     1      -4.520  12.006  18.659  0.00  0.00    +0.000 A 
ATOM      3  N   UNL     1      -5.180  12.693  19.619  0.00  0.00    +0.000 NA
ATOM      4  C   UNL     1      -4.514  13.053  20.724  0.00  0.00    +0.000 A 
ATOM      5  N   UNL     1      -5.122  13.794  21.708  0.00  0.00    +0.000 N 
ATOM      6  N   UNL     1      -3.232  12.736  20.932  0.00  0.00    +0.000 NA
ATOM      7  C   UNL     1      -2.541  12.102  19.952  0.00  0.00    +0.000 A 
ATOM      8  N   UNL     1      -1.136  11.948  20.186  0.00  0.00    +0.000 N 
ATOM      9  C   UNL     1      -0.124  11.926  19.252  0.00  0.00    +0.000 A 
ATOM     10  C   UNL     1       1.050  11.833  19.958  0.00  0.00    +0.000 A 
ATOM     11  N   UNL     1       0.810  11.811  21.293  0.00  0.00    +0.000 NA
ATOM     12  C   UNL     1      -0.506  11.894  21.428  0.00  0.00    +0.000 A 
ATOM     13  C   UNL     1      -1.198  11.850  22.739  0.00  0.00    +0.000 C 
ATOM     14  C   UNL     1      -3.171  11.713  18.781  0.00  0.00    +0.000 A 
ATOM     15  H   UNL     1      -4.616  13.723  22.583  0.00  0.00    +0.000 HD
ENDROOT
BRANCH   5  16
ATOM     16  C   UNL     1      -6.575  13.907  21.728  0.00  0.00    +0.000 C 
ATOM     17  C   UNL     1      -6.990  15.282  22.265  0.00  0.00    +0.000 C 
ATOM     18  C   UNL     1      -6.961  15.233  23.783  0.00  0.00    +0.000 C 
ATOM     19  S   UNL     1      -7.631  13.612  24.208  0.00  0.00    +0.000 S 
ATOM     20  C   UNL     1      -7.260  12.847  22.601  0.00  0.00    +0.000 C 
ENDBRANCH   5  16
BRANCH  14  21
ATOM     21  N   UNL     1      -2.534  10.912  17.782  0.00  0.00    +0.000 N 
ATOM     22  O   UNL     1      -2.122  11.494  16.769  0.00  0.00    +0.000 OA
ATOM     23  O   UNL     1      -2.451   9.698  18.001  0.00  0.00    +0.000 OA
ENDBRANCH  14  21
TORSDOF 2
ENDMDL
