MODEL 1
REMARK VINA RESULT:      -7.5      0.000      0.000
REMARK  Name = 
REMARK  3 active torsions:
REMARK  status: ('A' for Active; 'I' for Inactive)
REMARK    1  A    between atoms: C_2  and  C_3
REMARK    2  A    between atoms: C_13  and  C_14
REMARK    3  A    between atoms: C_14  and  N_15
REMARK                            x       y       z     vdW  Elec       q    Type
REMARK                         _______ _______ _______ _____ _____    ______ ____
ROOT
ATOM      1  O   UNL     1       4.833   2.905  19.531  0.00  0.00    +0.000 OA
ATOM      2  C   UNL     1       4.509   3.724  18.679  0.00  0.00    +0.000 C 
ATOM      3  N   UNL     1       3.260   4.300  18.669  0.00  0.00    +0.000 N 
ATOM      4  C   UNL     1       2.546   5.267  17.859  0.00  0.00    +0.000 C 
ATOM      5  C   UNL     1       1.910   5.763  19.172  0.00  0.00    +0.000 C 
ATOM      6  C   UNL     1       2.311   4.392  19.771  0.00  0.00    +0.000 C 
ENDROOT
BRANCH   2   7
ATOM      7  C   UNL     1       5.478   4.154  17.634  0.00  0.00    +0.000 A 
ATOM      8  C   UNL     1       5.300   3.719  16.311  0.00  0.00    +0.000 A 
ATOM      9  C   UNL     1       6.081   4.244  15.285  0.00  0.00    +0.000 A 
ATOM     10 BR   UNL     1       5.723   3.747  13.498  0.00  0.00    +0.000 Br
ATOM     11  C   UNL     1       7.089   5.160  15.563  0.00  0.00    +0.000 A 
ATOM     12  C   UNL     1       7.326   5.539  16.885  0.00  0.00    +0.000 A 
ATOM     13  C   UNL     1       6.529   5.040  17.925  0.00  0.00    +0.000 A 
ATOM     14 CL   UNL     1       6.890   5.623  19.511  0.00  0.00    +0.000 Cl
ENDBRANCH   2   7
BRANCH   5  15
ATOM     15  C   UNL     1       2.622   7.027  19.654  0.00  0.00    +0.000 C 
BRANCH  15  16
ATOM     16  N   UNL     1       1.747   8.172  19.519  0.00  0.00    +0.000 N 
ATOM     17  C   UNL     1       1.144   8.777  20.586  0.00  0.00    +0.000 C 
ATOM     18  O   UNL     1       1.167   8.402  21.748  0.00  0.00    +0.000 OA
ATOM     19  C   UNL     1       0.455  10.025  20.123  0.00  0.00    +0.000 C 
ATOM     20  C   UNL     1       0.921  10.200  18.691  0.00  0.00    +0.000 C 
ATOM     21  C   UNL     1       1.716   8.961  18.405  0.00  0.00    +0.000 C 
ATOM     22  O   UNL     1       2.286   8.746  17.342  0.00  0.00    +0.000 OA
ENDBRANCH  15  16
ENDBRANCH   5  15
TORSDOF 3
ENDMDL
MODEL 2
REMARK VINA RESULT:      -7.2      0.218      1.613
REMARK  Name = 
REMARK  3 active torsions:
REMARK  status: ('A' for Active; 'I' for Inactive)
REMARK    1  A    between atoms: C_2  and  C_3
REMARK    2  A    between atoms: C_13  and  C_14
REMARK    3  A    between atoms: C_14  and  N_15
REMARK                            x       y       z     vdW  Elec       q    Type
REMARK                         _______ _______ _______ _____ _____    ______ ____
ROOT
ATOM      1  O   UNL     1       4.815   3.038  19.622  0.00  0.00    +0.000 OA
ATOM      2  C   UNL     1       4.503   3.838  18.746  0.00  0.00    +0.000 C 
ATOM      3  N   UNL     1       3.272   4.453  18.735  0.00  0.00    +0.000 N 
ATOM      4  C   UNL     1       2.577   5.415  17.903  0.00  0.00    +0.000 C 
ATOM      5  C   UNL     1       1.977   5.974  19.208  0.00  0.00    +0.000 C 
ATOM      6  C   UNL     1       2.344   4.611  19.846  0.00  0.00    +0.000 C 
ENDROOT
BRANCH   2   7
ATOM      7  C   UNL     1       5.469   4.202  17.675  0.00  0.00    +0.000 A 
ATOM      8  C   UNL     1       5.233   3.769  16.360  0.00  0.00    +0.000 A 
ATOM      9  C   UNL     1       6.017   4.240  15.311  0.00  0.00    +0.000 A 
ATOM     10 BR   UNL     1       5.586   3.751  13.537  0.00  0.00    +0.000 Br
ATOM     11  C   UNL     1       7.084   5.097  15.556  0.00  0.00    +0.000 A 
ATOM     12  C   UNL     1       7.376   5.471  16.868  0.00  0.00    +0.000 A 
ATOM     13  C   UNL     1       6.577   5.027  17.932  0.00  0.00    +0.000 A 
ATOM     14 CL   UNL     1       7.012   5.600  19.503  0.00  0.00    +0.000 Cl
ENDBRANCH   2   7
BRANCH   5  15
ATOM     15  C   UNL     1       2.735   7.230  19.637  0.00  0.00    +0.000 C 
BRANCH  15  16
ATOM     16  N   UNL     1       1.871   8.387  19.544  0.00  0.00    +0.000 N 
ATOM     17  C   UNL     1       1.637   9.048  18.370  0.00  0.00    +0.000 C 
ATOM     18  O   UNL     1       2.174   8.837  17.294  0.00  0.00    +0.000 OA
ATOM     19  C   UNL     1       0.572  10.080  18.587  0.00  0.00    +0.000 C 
ATOM     20  C   UNL     1       0.046   9.787  19.979  0.00  0.00    +0.000 C 
ATOM     21  C   UNL     1       0.953   8.713  20.500  0.00  0.00    +0.000 C 
ATOM     22  O   UNL     1       0.827   8.188  21.600  0.00  0.00    +0.000 OA
ENDBRANCH  15  16
ENDBRANCH   5  15
TORSDOF 3
ENDMDL
MODEL 3
REMARK VINA RESULT:      -6.9      3.394      6.794
REMARK  Name = 
REMARK  3 active torsions:
REMARK  status: ('A' for Active; 'I' for Inactive)
REMARK    1  A    between atoms: C_2  and  C_3
REMARK    2  A    between atoms: C_13  and  C_14
REMARK    3  A    between atoms: C_14  and  N_15
REMARK                            x       y       z     vdW  Elec       q    Type
REMARK                         _______ _______ _______ _____ _____    ______ ____
ROOT
ATOM      1  O   UNL     1       1.367   3.392  18.018  0.00  0.00    +0.000 OA
ATOM      2  C   UNL     1       2.371   4.057  18.251  0.00  0.00    +0.000 C 
ATOM      3  N   UNL     1       3.618   3.652  17.835  0.00  0.00    +0.000 N 
ATOM      4  C   UNL     1       4.976   4.152  17.917  0.00  0.00    +0.000 C 
ATOM      5  C   UNL     1       5.174   3.586  16.497  0.00  0.00    +0.000 C 
ATOM      6  C   UNL     1       3.940   2.694  16.786  0.00  0.00    +0.000 C 
ENDROOT
BRANCH   2   7
ATOM      7  C   UNL     1       2.268   5.356  18.969  0.00  0.00    +0.000 A 
ATOM      8  C   UNL     1       2.344   6.553  18.237  0.00  0.00    +0.000 A 
ATOM      9  C   UNL     1       2.074   7.773  18.852  0.00  0.00    +0.000 A 
ATOM     10 BR   UNL     1       2.043   9.349  17.811  0.00  0.00    +0.000 Br
ATOM     11  C   UNL     1       1.787   7.831  20.211  0.00  0.00    +0.000 A 
ATOM     12  C   UNL     1       1.787   6.656  20.963  0.00  0.00    +0.000 A 
ATOM     13  C   UNL     1       2.029   5.417  20.352  0.00  0.00    +0.000 A 
ATOM     14 CL   UNL     1       1.953   4.030  21.381  0.00  0.00    +0.000 Cl
ENDBRANCH   2   7
BRANCH   5  15
ATOM     15  C   UNL     1       5.061   4.708  15.465  0.00  0.00    +0.000 C 
BRANCH  15  16
ATOM     16  N   UNL     1       6.043   4.521  14.419  0.00  0.00    +0.000 N 
ATOM     17  C   UNL     1       5.738   3.984  13.200  0.00  0.00    +0.000 C 
ATOM     18  O   UNL     1       4.667   3.508  12.859  0.00  0.00    +0.000 OA
ATOM     19  C   UNL     1       6.931   4.094  12.299  0.00  0.00    +0.000 C 
ATOM     20  C   UNL     1       7.901   4.969  13.067  0.00  0.00    +0.000 C 
ATOM     21  C   UNL     1       7.248   5.164  14.403  0.00  0.00    +0.000 C 
ATOM     22  O   UNL     1       7.723   5.848  15.301  0.00  0.00    +0.000 OA
ENDBRANCH  15  16
ENDBRANCH   5  15
TORSDOF 3
ENDMDL
MODEL 4
REMARK VINA RESULT:      -6.5      3.378      6.739
REMARK  Name = 
REMARK  3 active torsions:
REMARK  status: ('A' for Active; 'I' for Inactive)
REMARK    1  A    between atoms: C_2  and  C_3
REMARK    2  A    between atoms: C_13  and  C_14
REMARK    3  A    between atoms: C_14  and  N_15
REMARK                            x       y       z     vdW  Elec       q    Type
REMARK                         _______ _______ _______ _____ _____    ______ ____
ROOT
ATOM      1  O   UNL     1       1.725   3.163  18.206  0.00  0.00    +0.000 OA
ATOM      2  C   UNL     1       2.645   3.962  18.347  0.00  0.00    +0.000 C 
ATOM      3  N   UNL     1       3.898   3.716  17.837  0.00  0.00    +0.000 N 
ATOM      4  C   UNL     1       5.178   4.395  17.800  0.00  0.00    +0.000 C 
ATOM      5  C   UNL     1       5.339   3.825  16.378  0.00  0.00    +0.000 C 
ATOM      6  C   UNL     1       4.263   2.784  16.779  0.00  0.00    +0.000 C 
ENDROOT
BRANCH   2   7
ATOM      7  C   UNL     1       2.424   5.254  19.051  0.00  0.00    +0.000 A 
ATOM      8  C   UNL     1       2.472   6.452  18.320  0.00  0.00    +0.000 A 
ATOM      9  C   UNL     1       2.095   7.655  18.912  0.00  0.00    +0.000 A 
ATOM     10 BR   UNL     1       2.033   9.225  17.863  0.00  0.00    +0.000 Br
ATOM     11  C   UNL     1       1.727   7.697  20.251  0.00  0.00    +0.000 A 
ATOM     12  C   UNL     1       1.752   6.525  21.008  0.00  0.00    +0.000 A 
ATOM     13  C   UNL     1       2.102   5.302  20.418  0.00  0.00    +0.000 A 
ATOM     14 CL   UNL     1       2.047   3.915  21.447  0.00  0.00    +0.000 Cl
ENDBRANCH   2   7
BRANCH   5  15
ATOM     15  C   UNL     1       4.995   4.895  15.342  0.00  0.00    +0.000 C 
BRANCH  15  16
ATOM     16  N   UNL     1       5.901   4.807  14.217  0.00  0.00    +0.000 N 
ATOM     17  C   UNL     1       7.199   5.230  14.273  0.00  0.00    +0.000 C 
ATOM     18  O   UNL     1       7.739   5.812  15.202  0.00  0.00    +0.000 OA
ATOM     19  C   UNL     1       7.902   4.839  13.009  0.00  0.00    +0.000 C 
ATOM     20  C   UNL     1       6.917   3.932  12.298  0.00  0.00    +0.000 C 
ATOM     21  C   UNL     1       5.678   3.999  13.139  0.00  0.00    +0.000 C 
ATOM     22  O   UNL     1       4.655   3.368  12.900  0.00  0.00    +0.000 OA
ENDBRANCH  15  16
ENDBRANCH   5  15
TORSDOF 3
ENDMDL
MODEL 5
REMARK VINA RESULT:      -6.4      3.133      5.788
REMARK  Name = 
REMARK  3 active torsions:
REMARK  status: ('A' for Active; 'I' for Inactive)
REMARK    1  A    between atoms: C_2  and  C_3
REMARK    2  A    between atoms: C_13  and  C_14
REMARK    3  A    between atoms: C_14  and  N_15
REMARK                            x       y       z     vdW  Elec       q    Type
REMARK                         _______ _______ _______ _____ _____    ______ ____
ROOT
ATOM      1  O   UNL     1       1.084   3.915  17.519  0.00  0.00    +0.000 OA
ATOM      2  C   UNL     1       2.099   4.312  18.081  0.00  0.00    +0.000 C 
ATOM      3  N   UNL     1       3.287   3.624  17.998  0.00  0.00    +0.000 N 
ATOM      4  C   UNL     1       4.638   3.777  18.501  0.00  0.00    +0.000 C 
ATOM      5  C   UNL     1       5.110   3.205  17.150  0.00  0.00    +0.000 C 
ATOM      6  C   UNL     1       3.677   2.635  17.002  0.00  0.00    +0.000 C 
ENDROOT
BRANCH   2   7
ATOM      7  C   UNL     1       2.088   5.585  18.853  0.00  0.00    +0.000 A 
ATOM      8  C   UNL     1       2.178   6.806  18.164  0.00  0.00    +0.000 A 
ATOM      9  C   UNL     1       1.992   8.010  18.838  0.00  0.00    +0.000 A 
ATOM     10 BR   UNL     1       1.976   9.627  17.861  0.00  0.00    +0.000 Br
ATOM     11  C   UNL     1       1.777   8.024  20.211  0.00  0.00    +0.000 A 
ATOM     12  C   UNL     1       1.764   6.821  20.917  0.00  0.00    +0.000 A 
ATOM     13  C   UNL     1       1.922   5.599  20.247  0.00  0.00    +0.000 A 
ATOM     14 CL   UNL     1       1.838   4.176  21.225  0.00  0.00    +0.000 Cl
ENDBRANCH   2   7
BRANCH   5  15
ATOM     15  C   UNL     1       5.563   4.339  16.231  0.00  0.00    +0.000 C 
BRANCH  15  16
ATOM     16  N   UNL     1       6.218   5.374  17.003  0.00  0.00    +0.000 N 
ATOM     17  C   UNL     1       7.446   5.207  17.579  0.00  0.00    +0.000 C 
ATOM     18  O   UNL     1       8.102   4.177  17.615  0.00  0.00    +0.000 OA
ATOM     19  C   UNL     1       7.907   6.514  18.149  0.00  0.00    +0.000 C 
ATOM     20  C   UNL     1       6.898   7.522  17.636  0.00  0.00    +0.000 C 
ATOM     21  C   UNL     1       5.862   6.690  16.941  0.00  0.00    +0.000 C 
ATOM     22  O   UNL     1       4.885   7.156  16.366  0.00  0.00    +0.000 OA
ENDBRANCH  15  16
ENDBRANCH   5  15
TORSDOF 3
ENDMDL
MODEL 6
REMARK VINA RESULT:      -6.3      3.164      4.243
REMARK  Name = 
REMARK  3 active torsions:
REMARK  status: ('A' for Active; 'I' for Inactive)
REMARK    1  A    between atoms: C_2  and  C_3
REMARK    2  A    between atoms: C_13  and  C_14
REMARK    3  A    between atoms: C_14  and  N_15
REMARK                            x       y       z     vdW  Elec       q    Type
REMARK                         _______ _______ _______ _____ _____    ______ ____
ROOT
ATOM      1  O   UNL     1       3.792   6.663  16.878  0.00  0.00    +0.000 OA
ATOM      2  C   UNL     1       4.721   5.902  17.127  0.00  0.00    +0.000 C 
ATOM      3  N   UNL     1       4.946   5.428  18.398  0.00  0.00    +0.000 N 
ATOM      4  C   UNL     1       5.898   4.548  19.047  0.00  0.00    +0.000 C 
ATOM      5  C   UNL     1       4.719   4.060  19.912  0.00  0.00    +0.000 C 
ATOM      6  C   UNL     1       4.005   5.374  19.509  0.00  0.00    +0.000 C 
ENDROOT
BRANCH   2   7
ATOM      7  C   UNL     1       5.625   5.433  16.042  0.00  0.00    +0.000 A 
ATOM      8  C   UNL     1       5.118   4.585  15.044  0.00  0.00    +0.000 A 
ATOM      9  C   UNL     1       5.887   4.275  13.925  0.00  0.00    +0.000 A 
ATOM     10 BR   UNL     1       5.127   3.249  12.532  0.00  0.00    +0.000 Br
ATOM     11  C   UNL     1       7.188   4.749  13.809  0.00  0.00    +0.000 A 
ATOM     12  C   UNL     1       7.729   5.528  14.833  0.00  0.00    +0.000 A 
ATOM     13  C   UNL     1       6.957   5.871  15.952  0.00  0.00    +0.000 A 
ATOM     14 CL   UNL     1       7.723   6.881  17.127  0.00  0.00    +0.000 Cl
ENDBRANCH   2   7
BRANCH   5  15
ATOM     15  C   UNL     1       4.193   2.728  19.378  0.00  0.00    +0.000 C 
BRANCH  15  16
ATOM     16  N   UNL     1       2.766   2.634  19.597  0.00  0.00    +0.000 N 
ATOM     17  C   UNL     1       2.202   2.654  20.842  0.00  0.00    +0.000 C 
ATOM     18  O   UNL     1       2.791   2.652  21.911  0.00  0.00    +0.000 OA
ATOM     19  C   UNL     1       0.710   2.715  20.708  0.00  0.00    +0.000 C 
ATOM     20  C   UNL     1       0.477   2.959  19.230  0.00  0.00    +0.000 C 
ATOM     21  C   UNL     1       1.843   2.868  18.618  0.00  0.00    +0.000 C 
ATOM     22  O   UNL     1       2.070   3.038  17.427  0.00  0.00    +0.000 OA
ENDBRANCH  15  16
ENDBRANCH   5  15
TORSDOF 3
ENDMDL
MODEL 7
REMARK VINA RESULT:      -6.0      1.868      2.128
REMARK  Name = 
REMARK  3 active torsions:
REMARK  status: ('A' for Active; 'I' for Inactive)
REMARK    1  A    between atoms: C_2  and  C_3
REMARK    2  A    between atoms: C_13  and  C_14
REMARK    3  A    between atoms: C_14  and  N_15
REMARK                            x       y       z     vdW  Elec       q    Type
REMARK                         _______ _______ _______ _____ _____    ______ ____
ROOT
ATOM      1  O   UNL     1       4.878   3.515  20.177  0.00  0.00    +0.000 OA
ATOM      2  C   UNL     1       4.344   4.255  19.358  0.00  0.00    +0.000 C 
ATOM      3  N   UNL     1       3.042   4.676  19.506  0.00  0.00    +0.000 N 
ATOM      4  C   UNL     1       2.112   5.517  18.780  0.00  0.00    +0.000 C 
ATOM      5  C   UNL     1       1.600   5.984  20.156  0.00  0.00    +0.000 C 
ATOM      6  C   UNL     1       2.245   4.695  20.725  0.00  0.00    +0.000 C 
ENDROOT
BRANCH   2   7
ATOM      7  C   UNL     1       5.104   4.757  18.182  0.00  0.00    +0.000 A 
ATOM      8  C   UNL     1       5.860   5.935  18.304  0.00  0.00    +0.000 A 
ATOM      9  C   UNL     1       6.719   6.330  17.282  0.00  0.00    +0.000 A 
ATOM     10 BR   UNL     1       7.828   7.839  17.534  0.00  0.00    +0.000 Br
ATOM     11  C   UNL     1       6.796   5.599  16.102  0.00  0.00    +0.000 A 
ATOM     12  C   UNL     1       5.991   4.472  15.939  0.00  0.00    +0.000 A 
ATOM     13  C   UNL     1       5.141   4.046  16.971  0.00  0.00    +0.000 A 
ATOM     14 CL   UNL     1       4.232   2.608  16.666  0.00  0.00    +0.000 Cl
ENDBRANCH   2   7
BRANCH   5  15
ATOM     15  C   UNL     1       2.207   7.342  20.508  0.00  0.00    +0.000 C 
BRANCH  15  16
ATOM     16  N   UNL     1       1.294   8.404  20.141  0.00  0.00    +0.000 N 
ATOM     17  C   UNL     1       0.465   9.016  21.039  0.00  0.00    +0.000 C 
ATOM     18  O   UNL     1       0.300   8.707  22.209  0.00  0.00    +0.000 OA
ATOM     19  C   UNL     1      -0.212  10.177  20.375  0.00  0.00    +0.000 C 
ATOM     20  C   UNL     1       0.496  10.311  19.042  0.00  0.00    +0.000 C 
ATOM     21  C   UNL     1       1.414   9.126  18.988  0.00  0.00    +0.000 C 
ATOM     22  O   UNL     1       2.183   8.900  18.062  0.00  0.00    +0.000 OA
ENDBRANCH  15  16
ENDBRANCH   5  15
TORSDOF 3
ENDMDL
MODEL 8
REMARK VINA RESULT:      -6.0      3.117      5.787
REMARK  Name = 
REMARK  3 active torsions:
REMARK  status: ('A' for Active; 'I' for Inactive)
REMARK    1  A    between atoms: C_2  and  C_3
REMARK    2  A    between atoms: C_13  and  C_14
REMARK    3  A    between atoms: C_14  and  N_15
REMARK                            x       y       z     vdW  Elec       q    Type
REMARK                         _______ _______ _______ _____ _____    ______ ____
ROOT
ATOM      1  O   UNL     1       1.129   3.793  17.707  0.00  0.00    +0.000 OA
ATOM      2  C   UNL     1       2.156   4.289  18.158  0.00  0.00    +0.000 C 
ATOM      3  N   UNL     1       3.387   3.709  17.955  0.00  0.00    +0.000 N 
ATOM      4  C   UNL     1       4.762   3.992  18.313  0.00  0.00    +0.000 C 
ATOM      5  C   UNL     1       5.142   3.443  16.924  0.00  0.00    +0.000 C 
ATOM      6  C   UNL     1       3.759   2.744  16.930  0.00  0.00    +0.000 C 
ENDROOT
BRANCH   2   7
ATOM      7  C   UNL     1       2.109   5.567  18.918  0.00  0.00    +0.000 A 
ATOM      8  C   UNL     1       2.160   6.784  18.219  0.00  0.00    +0.000 A 
ATOM      9  C   UNL     1       1.940   7.988  18.883  0.00  0.00    +0.000 A 
ATOM     10 BR   UNL     1       1.872   9.596  17.892  0.00  0.00    +0.000 Br
ATOM     11  C   UNL     1       1.728   8.008  20.256  0.00  0.00    +0.000 A 
ATOM     12  C   UNL     1       1.754   6.812  20.973  0.00  0.00    +0.000 A 
ATOM     13  C   UNL     1       1.947   5.589  20.313  0.00  0.00    +0.000 A 
ATOM     14 CL   UNL     1       1.909   4.173  21.304  0.00  0.00    +0.000 Cl
ENDBRANCH   2   7
BRANCH   5  15
ATOM     15  C   UNL     1       5.392   4.599  15.955  0.00  0.00    +0.000 C 
BRANCH  15  16
ATOM     16  N   UNL     1       6.228   5.601  16.582  0.00  0.00    +0.000 N 
ATOM     17  C   UNL     1       5.768   6.838  16.936  0.00  0.00    +0.000 C 
ATOM     18  O   UNL     1       4.664   7.302  16.698  0.00  0.00    +0.000 OA
ATOM     19  C   UNL     1       6.829   7.557  17.713  0.00  0.00    +0.000 C 
ATOM     20  C   UNL     1       7.887   6.501  17.967  0.00  0.00    +0.000 C 
ATOM     21  C   UNL     1       7.415   5.308  17.190  0.00  0.00    +0.000 C 
ATOM     22  O   UNL     1       8.000   4.232  17.170  0.00  0.00    +0.000 OA
ENDBRANCH  15  16
ENDBRANCH   5  15
TORSDOF 3
ENDMDL
MODEL 9
REMARK VINA RESULT:      -6.0      3.125      4.584
REMARK  Name = 
REMARK  3 active torsions:
REMARK  status: ('A' for Active; 'I' for Inactive)
REMARK    1  A    between atoms: C_2  and  C_3
REMARK    2  A    between atoms: C_13  and  C_14
REMARK    3  A    between atoms: C_14  and  N_15
REMARK                            x       y       z     vdW  Elec       q    Type
REMARK                         _______ _______ _______ _____ _____    ______ ____
ROOT
ATOM      1  O   UNL     1       3.808   6.764  16.821  0.00  0.00    +0.000 OA
ATOM      2  C   UNL     1       4.740   6.009  17.078  0.00  0.00    +0.000 C 
ATOM      3  N   UNL     1       4.984   5.573  18.360  0.00  0.00    +0.000 N 
ATOM      4  C   UNL     1       5.945   4.713  19.020  0.00  0.00    +0.000 C 
ATOM      5  C   UNL     1       4.780   4.253  19.919  0.00  0.00    +0.000 C 
ATOM      6  C   UNL     1       4.060   5.555  19.486  0.00  0.00    +0.000 C 
ENDROOT
BRANCH   2   7
ATOM      7  C   UNL     1       5.627   5.506  15.994  0.00  0.00    +0.000 A 
ATOM      8  C   UNL     1       5.093   4.662  15.006  0.00  0.00    +0.000 A 
ATOM      9  C   UNL     1       5.848   4.321  13.888  0.00  0.00    +0.000 A 
ATOM     10 BR   UNL     1       5.056   3.303  12.507  0.00  0.00    +0.000 Br
ATOM     11  C   UNL     1       7.161   4.759  13.762  0.00  0.00    +0.000 A 
ATOM     12  C   UNL     1       7.727   5.533  14.776  0.00  0.00    +0.000 A 
ATOM     13  C   UNL     1       6.969   5.907  15.895  0.00  0.00    +0.000 A 
ATOM     14 CL   UNL     1       7.767   6.907  17.058  0.00  0.00    +0.000 Cl
ENDBRANCH   2   7
BRANCH   5  15
ATOM     15  C   UNL     1       4.244   2.906  19.433  0.00  0.00    +0.000 C 
BRANCH  15  16
ATOM     16  N   UNL     1       2.797   2.902  19.474  0.00  0.00    +0.000 N 
ATOM     17  C   UNL     1       2.022   2.734  18.362  0.00  0.00    +0.000 C 
ATOM     18  O   UNL     1       2.409   2.667  17.205  0.00  0.00    +0.000 OA
ATOM     19  C   UNL     1       0.587   2.606  18.774  0.00  0.00    +0.000 C 
ATOM     20  C   UNL     1       0.640   2.490  20.284  0.00  0.00    +0.000 C 
ATOM     21  C   UNL     1       2.084   2.713  20.623  0.00  0.00    +0.000 C 
ATOM     22  O   UNL     1       2.533   2.668  21.762  0.00  0.00    +0.000 OA
ENDBRANCH  15  16
ENDBRANCH   5  15
TORSDOF 3
ENDMDL
