MODEL 1
REMARK VINA RESULT:      -7.5      0.000      0.000
REMARK  Name = 
REMARK  4 active torsions:
REMARK  status: ('A' for Active; 'I' for Inactive)
REMARK    1  A    between atoms: N_10  and  C_11
REMARK    2  A    between atoms: C_11  and  C_12
REMARK    3  A    between atoms: C_15  and  C_16
REMARK    4  A    between atoms: C_16  and  O_17
REMARK                            x       y       z     vdW  Elec       q    Type
REMARK                         _______ _______ _______ _____ _____    ______ ____
ROOT
ATOM      1  O   UNL     1       1.391   2.548  22.091  0.00  0.00    +0.000 OA
ATOM      2  C   UNL     1       2.324   3.160  21.589  0.00  0.00    +0.000 C 
ATOM      3  C   UNL     1       3.460   2.487  20.847  0.00  0.00    +0.000 C 
ATOM      4  C   UNL     1       3.295   2.576  19.315  0.00  0.00    +0.000 C 
ATOM      5  C   UNL     1       1.979   1.989  18.814  0.00  0.00    +0.000 C 
ATOM      6  C   UNL     1       0.994   3.147  18.861  0.00  0.00    +0.000 C 
ATOM      7  C   UNL     1       1.850   4.416  19.005  0.00  0.00    +0.000 C 
ATOM      8  C   UNL     1       1.619   5.123  20.376  0.00  0.00    +0.000 C 
ATOM      9  N   UNL     1       2.373   4.543  21.484  0.00  0.00    +0.000 N 
ATOM     10  N   UNL     1       3.275   3.991  18.857  0.00  0.00    +0.000 NA
ATOM     11  H   UNL     1       3.325   4.877  21.440  0.00  0.00    +0.000 HD
ENDROOT
BRANCH  10  12
ATOM     12  C   UNL     1       3.715   4.131  17.449  0.00  0.00    +0.000 C 
BRANCH  12  13
ATOM     13  C   UNL     1       5.177   4.422  17.330  0.00  0.00    +0.000 A 
ATOM     14  C   UNL     1       6.122   4.135  16.366  0.00  0.00    +0.000 A 
ATOM     15  C   UNL     1       7.344   4.682  16.822  0.00  0.00    +0.000 A 
ATOM     16  C   UNL     1       7.075   5.280  18.036  0.00  0.00    +0.000 A 
ATOM     17  O   UNL     1       5.755   5.120  18.354  0.00  0.00    +0.000 OA
BRANCH  16  18
ATOM     18  C   UNL     1       7.912   6.036  18.998  0.00  0.00    +0.000 C 
BRANCH  18  19
ATOM     19  O   UNL     1       7.774   5.430  20.276  0.00  0.00    +0.000 OA
ATOM     20  H   UNL     1       6.846   5.566  20.536  0.00  0.00    +0.000 HD
ENDBRANCH  18  19
ENDBRANCH  16  18
ENDBRANCH  12  13
ENDBRANCH  10  12
TORSDOF 4
ENDMDL
MODEL 2
REMARK VINA RESULT:      -7.3      1.815      3.209
REMARK  Name = 
REMARK  4 active torsions:
REMARK  status: ('A' for Active; 'I' for Inactive)
REMARK    1  A    between atoms: N_10  and  C_11
REMARK    2  A    between atoms: C_11  and  C_12
REMARK    3  A    between atoms: C_15  and  C_16
REMARK    4  A    between atoms: C_16  and  O_17
REMARK                            x       y       z     vdW  Elec       q    Type
REMARK                         _______ _______ _______ _____ _____    ______ ____
ROOT
ATOM      1  O   UNL     1       0.285   2.231  18.802  0.00  0.00    +0.000 OA
ATOM      2  C   UNL     1       1.261   2.699  18.233  0.00  0.00    +0.000 C 
ATOM      3  C   UNL     1       1.453   4.181  17.983  0.00  0.00    +0.000 C 
ATOM      4  C   UNL     1       2.419   4.827  18.998  0.00  0.00    +0.000 C 
ATOM      5  C   UNL     1       1.991   4.635  20.449  0.00  0.00    +0.000 C 
ATOM      6  C   UNL     1       2.626   3.319  20.871  0.00  0.00    +0.000 C 
ATOM      7  C   UNL     1       3.692   3.011  19.806  0.00  0.00    +0.000 C 
ATOM      8  C   UNL     1       3.341   1.733  18.984  0.00  0.00    +0.000 C 
ATOM      9  N   UNL     1       2.389   1.960  17.901  0.00  0.00    +0.000 N 
ATOM     10  N   UNL     1       3.772   4.212  18.919  0.00  0.00    +0.000 NA
ATOM     11  H   UNL     1       2.879   2.366  17.116  0.00  0.00    +0.000 HD
ENDROOT
BRANCH  10  12
ATOM     12  C   UNL     1       4.835   5.132  19.387  0.00  0.00    +0.000 C 
BRANCH  12  13
ATOM     13  C   UNL     1       5.826   5.456  18.315  0.00  0.00    +0.000 A 
ATOM     14  C   UNL     1       6.899   6.321  18.251  0.00  0.00    +0.000 A 
ATOM     15  C   UNL     1       7.459   6.175  16.960  0.00  0.00    +0.000 A 
ATOM     16  C   UNL     1       6.701   5.223  16.311  0.00  0.00    +0.000 A 
ATOM     17  O   UNL     1       5.700   4.784  17.131  0.00  0.00    +0.000 OA
BRANCH  16  18
ATOM     18  C   UNL     1       6.783   4.613  14.962  0.00  0.00    +0.000 C 
BRANCH  18  19
ATOM     19  O   UNL     1       7.722   5.355  14.197  0.00  0.00    +0.000 OA
ATOM     20  H   UNL     1       7.208   5.793  13.496  0.00  0.00    +0.000 HD
ENDBRANCH  18  19
ENDBRANCH  16  18
ENDBRANCH  12  13
ENDBRANCH  10  12
TORSDOF 4
ENDMDL
MODEL 3
REMARK VINA RESULT:      -7.2      2.078      5.830
REMARK  Name = 
REMARK  4 active torsions:
REMARK  status: ('A' for Active; 'I' for Inactive)
REMARK    1  A    between atoms: N_10  and  C_11
REMARK    2  A    between atoms: C_11  and  C_12
REMARK    3  A    between atoms: C_15  and  C_16
REMARK    4  A    between atoms: C_16  and  O_17
REMARK                            x       y       z     vdW  Elec       q    Type
REMARK                         _______ _______ _______ _____ _____    ______ ____
ROOT
ATOM      1  O   UNL     1       7.769   7.594  16.783  0.00  0.00    +0.000 OA
ATOM      2  C   UNL     1       6.980   7.008  17.512  0.00  0.00    +0.000 C 
ATOM      3  C   UNL     1       5.476   7.129  17.385  0.00  0.00    +0.000 C 
ATOM      4  C   UNL     1       4.849   5.923  16.655  0.00  0.00    +0.000 C 
ATOM      5  C   UNL     1       5.432   5.686  15.266  0.00  0.00    +0.000 C 
ATOM      6  C   UNL     1       6.624   4.769  15.495  0.00  0.00    +0.000 C 
ATOM      7  C   UNL     1       6.450   4.208  16.916  0.00  0.00    +0.000 C 
ATOM      8  C   UNL     1       7.574   4.698  17.878  0.00  0.00    +0.000 C 
ATOM      9  N   UNL     1       7.354   6.033  18.427  0.00  0.00    +0.000 N 
ATOM     10  N   UNL     1       5.106   4.656  17.392  0.00  0.00    +0.000 NA
ATOM     11  H   UNL     1       6.692   5.967  19.187  0.00  0.00    +0.000 HD
ENDROOT
BRANCH  10  12
ATOM     12  C   UNL     1       4.083   3.623  17.107  0.00  0.00    +0.000 C 
BRANCH  12  13
ATOM     13  C   UNL     1       2.975   3.618  18.110  0.00  0.00    +0.000 A 
ATOM     14  C   UNL     1       1.600   3.617  18.000  0.00  0.00    +0.000 A 
ATOM     15  C   UNL     1       1.088   3.606  19.319  0.00  0.00    +0.000 A 
ATOM     16  C   UNL     1       2.180   3.593  20.161  0.00  0.00    +0.000 A 
ATOM     17  O   UNL     1       3.335   3.606  19.430  0.00  0.00    +0.000 OA
BRANCH  16  18
ATOM     18  C   UNL     1       2.318   3.556  21.637  0.00  0.00    +0.000 C 
BRANCH  18  19
ATOM     19  O   UNL     1       1.553   2.462  22.125  0.00  0.00    +0.000 OA
ATOM     20  H   UNL     1       1.071   2.110  21.356  0.00  0.00    +0.000 HD
ENDBRANCH  18  19
ENDBRANCH  16  18
ENDBRANCH  12  13
ENDBRANCH  10  12
TORSDOF 4
ENDMDL
MODEL 4
REMARK VINA RESULT:      -7.2      2.309      5.913
REMARK  Name = 
REMARK  4 active torsions:
REMARK  status: ('A' for Active; 'I' for Inactive)
REMARK    1  A    between atoms: N_10  and  C_11
REMARK    2  A    between atoms: C_11  and  C_12
REMARK    3  A    between atoms: C_15  and  C_16
REMARK    4  A    between atoms: C_16  and  O_17
REMARK                            x       y       z     vdW  Elec       q    Type
REMARK                         _______ _______ _______ _____ _____    ______ ____
ROOT
ATOM      1  O   UNL     1       7.749   4.810  15.440  0.00  0.00    +0.000 OA
ATOM      2  C   UNL     1       7.139   4.372  16.406  0.00  0.00    +0.000 C 
ATOM      3  C   UNL     1       7.406   4.806  17.832  0.00  0.00    +0.000 C 
ATOM      4  C   UNL     1       6.371   5.833  18.336  0.00  0.00    +0.000 C 
ATOM      5  C   UNL     1       6.279   7.080  17.463  0.00  0.00    +0.000 C 
ATOM      6  C   UNL     1       5.239   6.738  16.406  0.00  0.00    +0.000 C 
ATOM      7  C   UNL     1       4.504   5.494  16.932  0.00  0.00    +0.000 C 
ATOM      8  C   UNL     1       4.758   4.244  16.035  0.00  0.00    +0.000 C 
ATOM      9  N   UNL     1       6.018   3.558  16.305  0.00  0.00    +0.000 N 
ATOM     10  N   UNL     1       4.997   5.261  18.324  0.00  0.00    +0.000 NA
ATOM     11  H   UNL     1       5.905   2.982  17.126  0.00  0.00    +0.000 HD
ENDROOT
BRANCH  10  12
ATOM     12  C   UNL     1       4.105   5.921  19.307  0.00  0.00    +0.000 C 
BRANCH  12  13
ATOM     13  C   UNL     1       2.929   5.075  19.674  0.00  0.00    +0.000 A 
ATOM     14  C   UNL     1       1.949   5.186  20.639  0.00  0.00    +0.000 A 
ATOM     15  C   UNL     1       1.100   4.066  20.484  0.00  0.00    +0.000 A 
ATOM     16  C   UNL     1       1.604   3.337  19.428  0.00  0.00    +0.000 A 
ATOM     17  O   UNL     1       2.723   3.944  18.932  0.00  0.00    +0.000 OA
BRANCH  16  18
ATOM     18  C   UNL     1       1.164   2.088  18.760  0.00  0.00    +0.000 C 
BRANCH  18  19
ATOM     19  O   UNL     1       2.218   1.643  17.916  0.00  0.00    +0.000 OA
ATOM     20  H   UNL     1       2.832   1.155  18.492  0.00  0.00    +0.000 HD
ENDBRANCH  18  19
ENDBRANCH  16  18
ENDBRANCH  12  13
ENDBRANCH  10  12
TORSDOF 4
ENDMDL
MODEL 5
REMARK VINA RESULT:      -7.1      1.988      5.640
REMARK  Name = 
REMARK  4 active torsions:
REMARK  status: ('A' for Active; 'I' for Inactive)
REMARK    1  A    between atoms: N_10  and  C_11
REMARK    2  A    between atoms: C_11  and  C_12
REMARK    3  A    between atoms: C_15  and  C_16
REMARK    4  A    between atoms: C_16  and  O_17
REMARK                            x       y       z     vdW  Elec       q    Type
REMARK                         _______ _______ _______ _____ _____    ______ ____
ROOT
ATOM      1  O   UNL     1       7.833   6.956  17.779  0.00  0.00    +0.000 OA
ATOM      2  C   UNL     1       7.345   5.852  17.981  0.00  0.00    +0.000 C 
ATOM      3  C   UNL     1       6.154   5.617  18.886  0.00  0.00    +0.000 C 
ATOM      4  C   UNL     1       4.840   5.447  18.096  0.00  0.00    +0.000 C 
ATOM      5  C   UNL     1       4.525   6.628  17.184  0.00  0.00    +0.000 C 
ATOM      6  C   UNL     1       5.213   6.297  15.868  0.00  0.00    +0.000 C 
ATOM      7  C   UNL     1       5.553   4.799  15.942  0.00  0.00    +0.000 C 
ATOM      8  C   UNL     1       7.092   4.551  15.964  0.00  0.00    +0.000 C 
ATOM      9  N   UNL     1       7.705   4.709  17.280  0.00  0.00    +0.000 N 
ATOM     10  N   UNL     1       4.909   4.274  17.184  0.00  0.00    +0.000 NA
ATOM     11  H   UNL     1       7.534   3.874  17.821  0.00  0.00    +0.000 HD
ENDROOT
BRANCH  10  12
ATOM     12  C   UNL     1       3.569   3.720  16.880  0.00  0.00    +0.000 C 
BRANCH  12  13
ATOM     13  C   UNL     1       2.699   3.620  18.091  0.00  0.00    +0.000 A 
ATOM     14  C   UNL     1       1.409   4.026  18.364  0.00  0.00    +0.000 A 
ATOM     15  C   UNL     1       1.138   3.642  19.699  0.00  0.00    +0.000 A 
ATOM     16  C   UNL     1       2.276   3.016  20.163  0.00  0.00    +0.000 A 
ATOM     17  O   UNL     1       3.235   3.004  19.189  0.00  0.00    +0.000 OA
BRANCH  16  18
ATOM     18  C   UNL     1       2.622   2.375  21.455  0.00  0.00    +0.000 C 
BRANCH  18  19
ATOM     19  O   UNL     1       1.662   2.781  22.421  0.00  0.00    +0.000 OA
ATOM     20  H   UNL     1       1.281   3.611  22.085  0.00  0.00    +0.000 HD
ENDBRANCH  18  19
ENDBRANCH  16  18
ENDBRANCH  12  13
ENDBRANCH  10  12
TORSDOF 4
ENDMDL
MODEL 6
REMARK VINA RESULT:      -7.1      2.444      6.128
REMARK  Name = 
REMARK  4 active torsions:
REMARK  status: ('A' for Active; 'I' for Inactive)
REMARK    1  A    between atoms: N_10  and  C_11
REMARK    2  A    between atoms: C_11  and  C_12
REMARK    3  A    between atoms: C_15  and  C_16
REMARK    4  A    between atoms: C_16  and  O_17
REMARK                            x       y       z     vdW  Elec       q    Type
REMARK                         _______ _______ _______ _____ _____    ______ ____
ROOT
ATOM      1  O   UNL     1       7.728   5.564  14.726  0.00  0.00    +0.000 OA
ATOM      2  C   UNL     1       6.792   5.062  15.333  0.00  0.00    +0.000 C 
ATOM      3  C   UNL     1       6.966   4.143  16.524  0.00  0.00    +0.000 C 
ATOM      4  C   UNL     1       6.730   4.869  17.865  0.00  0.00    +0.000 C 
ATOM      5  C   UNL     1       7.629   6.085  18.061  0.00  0.00    +0.000 C 
ATOM      6  C   UNL     1       6.859   7.242  17.442  0.00  0.00    +0.000 C 
ATOM      7  C   UNL     1       5.416   6.739  17.275  0.00  0.00    +0.000 C 
ATOM      8  C   UNL     1       5.008   6.625  15.774  0.00  0.00    +0.000 C 
ATOM      9  N   UNL     1       5.463   5.402  15.120  0.00  0.00    +0.000 N 
ATOM     10  N   UNL     1       5.345   5.407  17.949  0.00  0.00    +0.000 NA
ATOM     11  H   UNL     1       4.843   4.647  15.375  0.00  0.00    +0.000 HD
ENDROOT
BRANCH  10  12
ATOM     12  C   UNL     1       4.886   5.558  19.350  0.00  0.00    +0.000 C 
BRANCH  12  13
ATOM     13  C   UNL     1       3.539   4.952  19.582  0.00  0.00    +0.000 A 
ATOM     14  C   UNL     1       2.391   5.408  20.197  0.00  0.00    +0.000 A 
ATOM     15  C   UNL     1       1.437   4.369  20.093  0.00  0.00    +0.000 A 
ATOM     16  C   UNL     1       2.053   3.339  19.414  0.00  0.00    +0.000 A 
ATOM     17  O   UNL     1       3.338   3.687  19.103  0.00  0.00    +0.000 OA
BRANCH  16  18
ATOM     18  C   UNL     1       1.592   2.001  18.970  0.00  0.00    +0.000 C 
BRANCH  18  19
ATOM     19  O   UNL     1       1.945   1.843  17.603  0.00  0.00    +0.000 OA
ATOM     20  H   UNL     1       2.913   1.942  17.564  0.00  0.00    +0.000 HD
ENDBRANCH  18  19
ENDBRANCH  16  18
ENDBRANCH  12  13
ENDBRANCH  10  12
TORSDOF 4
ENDMDL
MODEL 7
REMARK VINA RESULT:      -7.0      1.830      2.203
REMARK  Name = 
REMARK  4 active torsions:
REMARK  status: ('A' for Active; 'I' for Inactive)
REMARK    1  A    between atoms: N_10  and  C_11
REMARK    2  A    between atoms: C_11  and  C_12
REMARK    3  A    between atoms: C_15  and  C_16
REMARK    4  A    between atoms: C_16  and  O_17
REMARK                            x       y       z     vdW  Elec       q    Type
REMARK                         _______ _______ _______ _____ _____    ______ ____
ROOT
ATOM      1  O   UNL     1       1.658   2.638  22.296  0.00  0.00    +0.000 OA
ATOM      2  C   UNL     1       2.467   3.220  21.587  0.00  0.00    +0.000 C 
ATOM      3  C   UNL     1       3.478   2.506  20.713  0.00  0.00    +0.000 C 
ATOM      4  C   UNL     1       3.043   2.455  19.234  0.00  0.00    +0.000 C 
ATOM      5  C   UNL     1       1.681   1.802  19.025  0.00  0.00    +0.000 C 
ATOM      6  C   UNL     1       0.681   2.941  19.150  0.00  0.00    +0.000 C 
ATOM      7  C   UNL     1       1.504   4.233  19.032  0.00  0.00    +0.000 C 
ATOM      8  C   UNL     1       1.493   5.054  20.358  0.00  0.00    +0.000 C 
ATOM      9  N   UNL     1       2.449   4.589  21.359  0.00  0.00    +0.000 N 
ATOM     10  N   UNL     1       2.895   3.824  18.669  0.00  0.00    +0.000 NA
ATOM     11  H   UNL     1       3.366   4.936  21.118  0.00  0.00    +0.000 HD
ENDROOT
BRANCH  10  12
ATOM     12  C   UNL     1       3.076   3.847  17.199  0.00  0.00    +0.000 C 
BRANCH  12  13
ATOM     13  C   UNL     1       4.304   4.592  16.782  0.00  0.00    +0.000 A 
ATOM     14  C   UNL     1       4.934   5.720  17.265  0.00  0.00    +0.000 A 
ATOM     15  C   UNL     1       6.067   5.932  16.445  0.00  0.00    +0.000 A 
ATOM     16  C   UNL     1       6.069   4.917  15.511  0.00  0.00    +0.000 A 
ATOM     17  O   UNL     1       4.992   4.099  15.708  0.00  0.00    +0.000 OA
BRANCH  16  18
ATOM     18  C   UNL     1       6.988   4.566  14.402  0.00  0.00    +0.000 C 
BRANCH  18  19
ATOM     19  O   UNL     1       7.927   5.622  14.253  0.00  0.00    +0.000 OA
ATOM     20  H   UNL     1       8.547   5.331  13.562  0.00  0.00    +0.000 HD
ENDBRANCH  18  19
ENDBRANCH  16  18
ENDBRANCH  12  13
ENDBRANCH  10  12
TORSDOF 4
ENDMDL
MODEL 8
REMARK VINA RESULT:      -7.0      1.025      1.122
REMARK  Name = 
REMARK  4 active torsions:
REMARK  status: ('A' for Active; 'I' for Inactive)
REMARK    1  A    between atoms: N_10  and  C_11
REMARK    2  A    between atoms: C_11  and  C_12
REMARK    3  A    between atoms: C_15  and  C_16
REMARK    4  A    between atoms: C_16  and  O_17
REMARK                            x       y       z     vdW  Elec       q    Type
REMARK                         _______ _______ _______ _____ _____    ______ ____
ROOT
ATOM      1  O   UNL     1       1.559   2.865  22.205  0.00  0.00    +0.000 OA
ATOM      2  C   UNL     1       2.455   3.377  21.548  0.00  0.00    +0.000 C 
ATOM      3  C   UNL     1       3.487   2.580  20.777  0.00  0.00    +0.000 C 
ATOM      4  C   UNL     1       3.168   2.511  19.269  0.00  0.00    +0.000 C 
ATOM      5  C   UNL     1       1.790   1.932  18.967  0.00  0.00    +0.000 C 
ATOM      6  C   UNL     1       0.854   3.131  18.983  0.00  0.00    +0.000 C 
ATOM      7  C   UNL     1       1.761   4.369  18.900  0.00  0.00    +0.000 C 
ATOM      8  C   UNL     1       1.695   5.228  20.200  0.00  0.00    +0.000 C 
ATOM      9  N   UNL     1       2.539   4.738  21.286  0.00  0.00    +0.000 N 
ATOM     10  N   UNL     1       3.149   3.869  18.661  0.00  0.00    +0.000 NA
ATOM     11  H   UNL     1       3.492   5.023  21.112  0.00  0.00    +0.000 HD
ENDROOT
BRANCH  10  12
ATOM     12  C   UNL     1       3.446   3.838  17.210  0.00  0.00    +0.000 C 
BRANCH  12  13
ATOM     13  C   UNL     1       4.859   4.220  16.904  0.00  0.00    +0.000 A 
ATOM     14  C   UNL     1       5.807   3.719  16.037  0.00  0.00    +0.000 A 
ATOM     15  C   UNL     1       6.965   4.514  16.199  0.00  0.00    +0.000 A 
ATOM     16  C   UNL     1       6.657   5.463  17.152  0.00  0.00    +0.000 A 
ATOM     17  O   UNL     1       5.374   5.286  17.590  0.00  0.00    +0.000 OA
BRANCH  16  18
ATOM     18  C   UNL     1       7.420   6.588  17.743  0.00  0.00    +0.000 C 
BRANCH  18  19
ATOM     19  O   UNL     1       7.180   7.747  16.956  0.00  0.00    +0.000 OA
ATOM     20  H   UNL     1       6.213   7.830  16.892  0.00  0.00    +0.000 HD
ENDBRANCH  18  19
ENDBRANCH  16  18
ENDBRANCH  12  13
ENDBRANCH  10  12
TORSDOF 4
ENDMDL
MODEL 9
REMARK VINA RESULT:      -7.0      2.222      5.669
REMARK  Name = 
REMARK  4 active torsions:
REMARK  status: ('A' for Active; 'I' for Inactive)
REMARK    1  A    between atoms: N_10  and  C_11
REMARK    2  A    between atoms: C_11  and  C_12
REMARK    3  A    between atoms: C_15  and  C_16
REMARK    4  A    between atoms: C_16  and  O_17
REMARK                            x       y       z     vdW  Elec       q    Type
REMARK                         _______ _______ _______ _____ _____    ______ ____
ROOT
ATOM      1  O   UNL     1       7.602   7.684  16.848  0.00  0.00    +0.000 OA
ATOM      2  C   UNL     1       6.831   7.012  17.519  0.00  0.00    +0.000 C 
ATOM      3  C   UNL     1       5.331   7.001  17.309  0.00  0.00    +0.000 C 
ATOM      4  C   UNL     1       4.857   5.763  16.520  0.00  0.00    +0.000 C 
ATOM      5  C   UNL     1       5.534   5.615  15.162  0.00  0.00    +0.000 C 
ATOM      6  C   UNL     1       6.789   4.802  15.439  0.00  0.00    +0.000 C 
ATOM      7  C   UNL     1       6.590   4.191  16.836  0.00  0.00    +0.000 C 
ATOM      8  C   UNL     1       7.611   4.756  17.870  0.00  0.00    +0.000 C 
ATOM      9  N   UNL     1       7.241   6.051  18.433  0.00  0.00    +0.000 N 
ATOM     10  N   UNL     1       5.187   4.505  17.245  0.00  0.00    +0.000 NA
ATOM     11  H   UNL     1       6.548   5.906  19.153  0.00  0.00    +0.000 HD
ENDROOT
BRANCH  10  12
ATOM     12  C   UNL     1       4.279   3.393  16.880  0.00  0.00    +0.000 C 
BRANCH  12  13
ATOM     13  C   UNL     1       3.276   3.095  17.949  0.00  0.00    +0.000 A 
ATOM     14  C   UNL     1       2.299   2.131  18.086  0.00  0.00    +0.000 A 
ATOM     15  C   UNL     1       1.672   2.366  19.332  0.00  0.00    +0.000 A 
ATOM     16  C   UNL     1       2.306   3.456  19.890  0.00  0.00    +0.000 A 
ATOM     17  O   UNL     1       3.283   3.910  19.049  0.00  0.00    +0.000 OA
BRANCH  16  18
ATOM     18  C   UNL     1       2.138   4.176  21.175  0.00  0.00    +0.000 C 
BRANCH  18  19
ATOM     19  O   UNL     1       2.575   5.515  20.992  0.00  0.00    +0.000 OA
ATOM     20  H   UNL     1       3.001   5.539  20.118  0.00  0.00    +0.000 HD
ENDBRANCH  18  19
ENDBRANCH  16  18
ENDBRANCH  12  13
ENDBRANCH  10  12
TORSDOF 4
ENDMDL
