MODEL 1
REMARK VINA RESULT:      -8.2      0.000      0.000
REMARK  Name = 
REMARK  3 active torsions:
REMARK  status: ('A' for Active; 'I' for Inactive)
REMARK    1  A    between atoms: C_1  and  O_2
REMARK    2  A    between atoms: O_2  and  C_3
REMARK    3  A    between atoms: C_13  and  C_14
REMARK                            x       y       z     vdW  Elec       q    Type
REMARK                         _______ _______ _______ _____ _____    ______ ____
ROOT
ATOM      1  C   UNL     1       1.964   7.238  19.913  0.00  0.00    +0.000 A 
ATOM      2  C   UNL     1       2.557   7.212  18.660  0.00  0.00    +0.000 A 
ATOM      3  C   UNL     1       2.801   5.993  18.028  0.00  0.00    +0.000 A 
ATOM      4  C   UNL     1       2.532   4.768  18.642  0.00  0.00    +0.000 A 
ATOM      5  C   UNL     1       1.842   4.798  19.867  0.00  0.00    +0.000 A 
ATOM      6  C   UNL     1       1.587   6.030  20.504  0.00  0.00    +0.000 A 
ATOM      7  C   UNL     1       1.382   3.512  20.500  0.00  0.00    +0.000 C 
ATOM      8  C   UNL     1       0.936   2.549  19.406  0.00  0.00    +0.000 C 
ATOM      9  C   UNL     1       2.071   2.260  18.421  0.00  0.00    +0.000 C 
ATOM     10  C   UNL     1       2.926   3.458  18.046  0.00  0.00    +0.000 C 
ATOM     11  C   UNL     1       4.053   3.233  17.329  0.00  0.00    +0.000 C 
ENDROOT
BRANCH  11  12
ATOM     12  C   UNL     1       5.100   4.201  16.980  0.00  0.00    +0.000 A 
ATOM     13  C   UNL     1       5.239   4.659  15.673  0.00  0.00    +0.000 A 
ATOM     14  C   UNL     1       6.329   5.459  15.373  0.00  0.00    +0.000 A 
ATOM     15  N   UNL     1       7.270   5.824  16.273  0.00  0.00    +0.000 NA
ATOM     16  C   UNL     1       7.096   5.388  17.538  0.00  0.00    +0.000 A 
ATOM     17  C   UNL     1       6.025   4.609  17.944  0.00  0.00    +0.000 A 
ENDBRANCH  11  12
BRANCH   1  19
ATOM     18  C   UNL     1       1.016   9.405  19.910  0.00  0.00    +0.000 C 
ATOM     19  O   UNL     1       1.687   8.370  20.624  0.00  0.00    +0.000 OA
ENDBRANCH   1  19
TORSDOF 2
ENDMDL
MODEL 2
REMARK VINA RESULT:      -8.1      0.431      1.162
REMARK  Name = 
REMARK  3 active torsions:
REMARK  status: ('A' for Active; 'I' for Inactive)
REMARK    1  A    between atoms: C_1  and  O_2
REMARK    2  A    between atoms: O_2  and  C_3
REMARK    3  A    between atoms: C_13  and  C_14
REMARK                            x       y       z     vdW  Elec       q    Type
REMARK                         _______ _______ _______ _____ _____    ______ ____
ROOT
ATOM      1  C   UNL     1       2.112   7.261  19.864  0.00  0.00    +0.000 A 
ATOM      2  C   UNL     1       2.729   7.209  18.623  0.00  0.00    +0.000 A 
ATOM      3  C   UNL     1       2.915   5.982  17.987  0.00  0.00    +0.000 A 
ATOM      4  C   UNL     1       2.563   4.770  18.586  0.00  0.00    +0.000 A 
ATOM      5  C   UNL     1       1.850   4.833  19.797  0.00  0.00    +0.000 A 
ATOM      6  C   UNL     1       1.653   6.073  20.437  0.00  0.00    +0.000 A 
ATOM      7  C   UNL     1       1.304   3.571  20.411  0.00  0.00    +0.000 C 
ATOM      8  C   UNL     1       0.826   2.642  19.301  0.00  0.00    +0.000 C 
ATOM      9  C   UNL     1       1.963   2.295  18.338  0.00  0.00    +0.000 C 
ATOM     10  C   UNL     1       2.894   3.443  17.990  0.00  0.00    +0.000 C 
ATOM     11  C   UNL     1       4.020   3.158  17.294  0.00  0.00    +0.000 C 
ENDROOT
BRANCH  11  12
ATOM     12  C   UNL     1       5.129   4.066  16.974  0.00  0.00    +0.000 A 
ATOM     13  C   UNL     1       6.029   4.464  17.959  0.00  0.00    +0.000 A 
ATOM     14  C   UNL     1       6.967   5.431  17.634  0.00  0.00    +0.000 A 
ATOM     15  N   UNL     1       7.063   6.012  16.417  0.00  0.00    +0.000 NA
ATOM     16  C   UNL     1       6.196   5.589  15.475  0.00  0.00    +0.000 A 
ATOM     17  C   UNL     1       5.242   4.609  15.692  0.00  0.00    +0.000 A 
ENDBRANCH  11  12
BRANCH   1  19
ATOM     18  C   UNL     1       0.683   8.432  21.341  0.00  0.00    +0.000 C 
ATOM     19  O   UNL     1       1.886   8.403  20.577  0.00  0.00    +0.000 OA
ENDBRANCH   1  19
TORSDOF 2
ENDMDL
MODEL 3
REMARK VINA RESULT:      -7.6      1.014      1.502
REMARK  Name = 
REMARK  3 active torsions:
REMARK  status: ('A' for Active; 'I' for Inactive)
REMARK    1  A    between atoms: C_1  and  O_2
REMARK    2  A    between atoms: O_2  and  C_3
REMARK    3  A    between atoms: C_13  and  C_14
REMARK                            x       y       z     vdW  Elec       q    Type
REMARK                         _______ _______ _______ _____ _____    ______ ____
ROOT
ATOM      1  C   UNL     1       2.047   7.721  19.251  0.00  0.00    +0.000 A 
ATOM      2  C   UNL     1       2.741   7.325  18.118  0.00  0.00    +0.000 A 
ATOM      3  C   UNL     1       3.205   6.014  18.006  0.00  0.00    +0.000 A 
ATOM      4  C   UNL     1       3.059   5.081  19.035  0.00  0.00    +0.000 A 
ATOM      5  C   UNL     1       2.271   5.455  20.138  0.00  0.00    +0.000 A 
ATOM      6  C   UNL     1       1.794   6.777  20.249  0.00  0.00    +0.000 A 
ATOM      7  C   UNL     1       1.944   4.442  21.203  0.00  0.00    +0.000 C 
ATOM      8  C   UNL     1       1.730   3.082  20.549  0.00  0.00    +0.000 C 
ATOM      9  C   UNL     1       2.972   2.634  19.778  0.00  0.00    +0.000 C 
ATOM     10  C   UNL     1       3.681   3.725  18.995  0.00  0.00    +0.000 C 
ATOM     11  C   UNL     1       4.884   3.433  18.446  0.00  0.00    +0.000 C 
ENDROOT
BRANCH  11  12
ATOM     12  C   UNL     1       5.812   4.356  17.779  0.00  0.00    +0.000 A 
ATOM     13  C   UNL     1       6.580   5.250  18.519  0.00  0.00    +0.000 A 
ATOM     14  C   UNL     1       7.329   6.191  17.833  0.00  0.00    +0.000 A 
ATOM     15  N   UNL     1       7.361   6.296  16.485  0.00  0.00    +0.000 NA
ATOM     16  C   UNL     1       6.627   5.401  15.793  0.00  0.00    +0.000 A 
ATOM     17  C   UNL     1       5.869   4.404  16.384  0.00  0.00    +0.000 A 
ENDBRANCH  11  12
BRANCH   1  19
ATOM     18  C   UNL     1       1.332   9.767  18.305  0.00  0.00    +0.000 C 
ATOM     19  O   UNL     1       1.557   8.976  19.469  0.00  0.00    +0.000 OA
ENDBRANCH   1  19
TORSDOF 2
ENDMDL
MODEL 4
REMARK VINA RESULT:      -7.2      2.455      4.655
REMARK  Name = 
REMARK  3 active torsions:
REMARK  status: ('A' for Active; 'I' for Inactive)
REMARK    1  A    between atoms: C_1  and  O_2
REMARK    2  A    between atoms: O_2  and  C_3
REMARK    3  A    between atoms: C_13  and  C_14
REMARK                            x       y       z     vdW  Elec       q    Type
REMARK                         _______ _______ _______ _____ _____    ______ ____
ROOT
ATOM      1  C   UNL     1       2.677   8.036  17.857  0.00  0.00    +0.000 A 
ATOM      2  C   UNL     1       2.351   7.206  18.919  0.00  0.00    +0.000 A 
ATOM      3  C   UNL     1       3.186   6.142  19.256  0.00  0.00    +0.000 A 
ATOM      4  C   UNL     1       4.326   5.824  18.514  0.00  0.00    +0.000 A 
ATOM      5  C   UNL     1       4.707   6.722  17.501  0.00  0.00    +0.000 A 
ATOM      6  C   UNL     1       3.868   7.804  17.164  0.00  0.00    +0.000 A 
ATOM      7  C   UNL     1       6.009   6.521  16.772  0.00  0.00    +0.000 C 
ATOM      8  C   UNL     1       7.055   6.002  17.753  0.00  0.00    +0.000 C 
ATOM      9  C   UNL     1       6.613   4.683  18.389  0.00  0.00    +0.000 C 
ATOM     10  C   UNL     1       5.144   4.602  18.766  0.00  0.00    +0.000 C 
ATOM     11  C   UNL     1       4.656   3.402  19.160  0.00  0.00    +0.000 C 
ENDROOT
BRANCH  11  12
ATOM     12  C   UNL     1       3.255   3.049  19.427  0.00  0.00    +0.000 A 
ATOM     13  C   UNL     1       2.378   2.776  18.382  0.00  0.00    +0.000 A 
ATOM     14  C   UNL     1       1.039   2.590  18.684  0.00  0.00    +0.000 A 
ATOM     15  N   UNL     1       0.530   2.657  19.935  0.00  0.00    +0.000 NA
ATOM     16  C   UNL     1       1.406   2.897  20.931  0.00  0.00    +0.000 A 
ATOM     17  C   UNL     1       2.767   3.068  20.736  0.00  0.00    +0.000 A 
ENDBRANCH  11  12
BRANCH   1  19
ATOM     18  C   UNL     1       1.085   9.692  18.418  0.00  0.00    +0.000 C 
ATOM     19  O   UNL     1       1.931   9.098  17.436  0.00  0.00    +0.000 OA
ENDBRANCH   1  19
TORSDOF 2
ENDMDL
MODEL 5
REMARK VINA RESULT:      -7.1      2.817      5.541
REMARK  Name = 
REMARK  3 active torsions:
REMARK  status: ('A' for Active; 'I' for Inactive)
REMARK    1  A    between atoms: C_1  and  O_2
REMARK    2  A    between atoms: O_2  and  C_3
REMARK    3  A    between atoms: C_13  and  C_14
REMARK                            x       y       z     vdW  Elec       q    Type
REMARK                         _______ _______ _______ _____ _____    ______ ____
ROOT
ATOM      1  C   UNL     1       7.596   6.643  18.318  0.00  0.00    +0.000 A 
ATOM      2  C   UNL     1       7.009   5.703  19.151  0.00  0.00    +0.000 A 
ATOM      3  C   UNL     1       6.153   4.737  18.621  0.00  0.00    +0.000 A 
ATOM      4  C   UNL     1       5.799   4.716  17.270  0.00  0.00    +0.000 A 
ATOM      5  C   UNL     1       6.470   5.606  16.413  0.00  0.00    +0.000 A 
ATOM      6  C   UNL     1       7.342   6.577  16.946  0.00  0.00    +0.000 A 
ATOM      7  C   UNL     1       6.250   5.524  14.926  0.00  0.00    +0.000 C 
ATOM      8  C   UNL     1       6.096   4.061  14.524  0.00  0.00    +0.000 C 
ATOM      9  C   UNL     1       4.922   3.405  15.254  0.00  0.00    +0.000 C 
ATOM     10  C   UNL     1       4.769   3.789  16.716  0.00  0.00    +0.000 C 
ATOM     11  C   UNL     1       3.648   3.389  17.362  0.00  0.00    +0.000 C 
ENDROOT
BRANCH  11  12
ATOM     12  C   UNL     1       3.215   3.759  18.716  0.00  0.00    +0.000 A 
ATOM     13  C   UNL     1       3.315   2.853  19.768  0.00  0.00    +0.000 A 
ATOM     14  C   UNL     1       2.761   3.205  20.988  0.00  0.00    +0.000 A 
ATOM     15  N   UNL     1       2.129   4.377  21.221  0.00  0.00    +0.000 NA
ATOM     16  C   UNL     1       2.070   5.247  20.192  0.00  0.00    +0.000 A 
ATOM     17  C   UNL     1       2.618   5.001  18.944  0.00  0.00    +0.000 A 
ENDBRANCH  11  12
BRANCH   1  19
ATOM     18  C   UNL     1       8.280   8.895  18.085  0.00  0.00    +0.000 C 
ATOM     19  O   UNL     1       8.440   7.634  18.729  0.00  0.00    +0.000 OA
ENDBRANCH   1  19
TORSDOF 2
ENDMDL
MODEL 6
REMARK VINA RESULT:      -7.0      2.489      4.824
REMARK  Name = 
REMARK  3 active torsions:
REMARK  status: ('A' for Active; 'I' for Inactive)
REMARK    1  A    between atoms: C_1  and  O_2
REMARK    2  A    between atoms: O_2  and  C_3
REMARK    3  A    between atoms: C_13  and  C_14
REMARK                            x       y       z     vdW  Elec       q    Type
REMARK                         _______ _______ _______ _____ _____    ______ ____
ROOT
ATOM      1  C   UNL     1       2.745   8.170  17.806  0.00  0.00    +0.000 A 
ATOM      2  C   UNL     1       2.419   7.370  18.891  0.00  0.00    +0.000 A 
ATOM      3  C   UNL     1       3.216   6.271  19.212  0.00  0.00    +0.000 A 
ATOM      4  C   UNL     1       4.311   5.891  18.433  0.00  0.00    +0.000 A 
ATOM      5  C   UNL     1       4.696   6.757  17.395  0.00  0.00    +0.000 A 
ATOM      6  C   UNL     1       3.897   7.873  17.074  0.00  0.00    +0.000 A 
ATOM      7  C   UNL     1       5.960   6.486  16.622  0.00  0.00    +0.000 C 
ATOM      8  C   UNL     1       7.015   5.930  17.571  0.00  0.00    +0.000 C 
ATOM      9  C   UNL     1       6.536   4.641  18.241  0.00  0.00    +0.000 C 
ATOM     10  C   UNL     1       5.080   4.634  18.672  0.00  0.00    +0.000 C 
ATOM     11  C   UNL     1       4.550   3.463  19.100  0.00  0.00    +0.000 C 
ENDROOT
BRANCH  11  12
ATOM     12  C   UNL     1       3.146   3.181  19.423  0.00  0.00    +0.000 A 
ATOM     13  C   UNL     1       2.716   3.133  20.746  0.00  0.00    +0.000 A 
ATOM     14  C   UNL     1       1.417   2.723  20.996  0.00  0.00    +0.000 A 
ATOM     15  N   UNL     1       0.538   2.366  20.033  0.00  0.00    +0.000 NA
ATOM     16  C   UNL     1       0.972   2.447  18.759  0.00  0.00    +0.000 A 
ATOM     17  C   UNL     1       2.242   2.872  18.404  0.00  0.00    +0.000 A 
ENDBRANCH  11  12
BRANCH   1  19
ATOM     18  C   UNL     1       0.918   9.616  18.210  0.00  0.00    +0.000 C 
ATOM     19  O   UNL     1       2.034   9.261  17.398  0.00  0.00    +0.000 OA
ENDBRANCH   1  19
TORSDOF 2
ENDMDL
MODEL 7
REMARK VINA RESULT:      -6.9      2.681      5.451
REMARK  Name = 
REMARK  3 active torsions:
REMARK  status: ('A' for Active; 'I' for Inactive)
REMARK    1  A    between atoms: C_1  and  O_2
REMARK    2  A    between atoms: O_2  and  C_3
REMARK    3  A    between atoms: C_13  and  C_14
REMARK                            x       y       z     vdW  Elec       q    Type
REMARK                         _______ _______ _______ _____ _____    ______ ____
ROOT
ATOM      1  C   UNL     1       7.563   6.603  18.312  0.00  0.00    +0.000 A 
ATOM      2  C   UNL     1       6.855   5.728  19.123  0.00  0.00    +0.000 A 
ATOM      3  C   UNL     1       5.992   4.792  18.554  0.00  0.00    +0.000 A 
ATOM      4  C   UNL     1       5.750   4.739  17.179  0.00  0.00    +0.000 A 
ATOM      5  C   UNL     1       6.541   5.559  16.353  0.00  0.00    +0.000 A 
ATOM      6  C   UNL     1       7.420   6.500  16.926  0.00  0.00    +0.000 A 
ATOM      7  C   UNL     1       6.441   5.433  14.856  0.00  0.00    +0.000 C 
ATOM      8  C   UNL     1       6.236   3.967  14.491  0.00  0.00    +0.000 C 
ATOM      9  C   UNL     1       4.970   3.404  15.140  0.00  0.00    +0.000 C 
ATOM     10  C   UNL     1       4.719   3.850  16.570  0.00  0.00    +0.000 C 
ATOM     11  C   UNL     1       3.527   3.537  17.132  0.00  0.00    +0.000 C 
ENDROOT
BRANCH  11  12
ATOM     12  C   UNL     1       3.005   3.981  18.431  0.00  0.00    +0.000 A 
ATOM     13  C   UNL     1       2.563   5.289  18.610  0.00  0.00    +0.000 A 
ATOM     14  C   UNL     1       2.216   5.691  19.889  0.00  0.00    +0.000 A 
ATOM     15  N   UNL     1       2.280   4.891  20.977  0.00  0.00    +0.000 NA
ATOM     16  C   UNL     1       2.686   3.622  20.770  0.00  0.00    +0.000 A 
ATOM     17  C   UNL     1       3.027   3.116  19.527  0.00  0.00    +0.000 A 
ENDBRANCH  11  12
BRANCH   1  19
ATOM     18  C   UNL     1       8.322   8.836  18.132  0.00  0.00    +0.000 C 
ATOM     19  O   UNL     1       8.426   7.561  18.760  0.00  0.00    +0.000 OA
ENDBRANCH   1  19
TORSDOF 2
ENDMDL
MODEL 8
REMARK VINA RESULT:      -6.7      3.419      6.227
REMARK  Name = 
REMARK  3 active torsions:
REMARK  status: ('A' for Active; 'I' for Inactive)
REMARK    1  A    between atoms: C_1  and  O_2
REMARK    2  A    between atoms: O_2  and  C_3
REMARK    3  A    between atoms: C_13  and  C_14
REMARK                            x       y       z     vdW  Elec       q    Type
REMARK                         _______ _______ _______ _____ _____    ______ ____
ROOT
ATOM      1  C   UNL     1       6.149   4.268  14.635  0.00  0.00    +0.000 A 
ATOM      2  C   UNL     1       4.874   4.564  15.095  0.00  0.00    +0.000 A 
ATOM      3  C   UNL     1       4.670   4.862  16.442  0.00  0.00    +0.000 A 
ATOM      4  C   UNL     1       5.701   4.808  17.383  0.00  0.00    +0.000 A 
ATOM      5  C   UNL     1       7.006   4.605  16.899  0.00  0.00    +0.000 A 
ATOM      6  C   UNL     1       7.216   4.312  15.536  0.00  0.00    +0.000 A 
ATOM      7  C   UNL     1       8.177   4.695  17.841  0.00  0.00    +0.000 C 
ATOM      8  C   UNL     1       7.913   5.796  18.861  0.00  0.00    +0.000 C 
ATOM      9  C   UNL     1       6.634   5.524  19.656  0.00  0.00    +0.000 C 
ATOM     10  C   UNL     1       5.472   4.973  18.848  0.00  0.00    +0.000 C 
ATOM     11  C   UNL     1       4.380   4.540  19.522  0.00  0.00    +0.000 C 
ENDROOT
BRANCH  11  12
ATOM     12  C   UNL     1       3.209   3.841  18.976  0.00  0.00    +0.000 A 
ATOM     13  C   UNL     1       2.069   4.547  18.604  0.00  0.00    +0.000 A 
ATOM     14  C   UNL     1       0.947   3.826  18.230  0.00  0.00    +0.000 A 
ATOM     15  N   UNL     1       0.891   2.475  18.204  0.00  0.00    +0.000 NA
ATOM     16  C   UNL     1       2.018   1.817  18.545  0.00  0.00    +0.000 A 
ATOM     17  C   UNL     1       3.198   2.446  18.904  0.00  0.00    +0.000 A 
ENDBRANCH  11  12
BRANCH   1  19
ATOM     18  C   UNL     1       5.439   3.301  12.597  0.00  0.00    +0.000 C 
ATOM     19  O   UNL     1       6.461   3.955  13.344  0.00  0.00    +0.000 OA
ENDBRANCH   1  19
TORSDOF 2
ENDMDL
MODEL 9
REMARK VINA RESULT:      -6.5      3.364      6.211
REMARK  Name = 
REMARK  3 active torsions:
REMARK  status: ('A' for Active; 'I' for Inactive)
REMARK    1  A    between atoms: C_1  and  O_2
REMARK    2  A    between atoms: O_2  and  C_3
REMARK    3  A    between atoms: C_13  and  C_14
REMARK                            x       y       z     vdW  Elec       q    Type
REMARK                         _______ _______ _______ _____ _____    ______ ____
ROOT
ATOM      1  C   UNL     1       6.038   4.052  14.718  0.00  0.00    +0.000 A 
ATOM      2  C   UNL     1       4.781   4.391  15.196  0.00  0.00    +0.000 A 
ATOM      3  C   UNL     1       4.622   4.783  16.526  0.00  0.00    +0.000 A 
ATOM      4  C   UNL     1       5.683   4.784  17.435  0.00  0.00    +0.000 A 
ATOM      5  C   UNL     1       6.969   4.536  16.924  0.00  0.00    +0.000 A 
ATOM      6  C   UNL     1       7.133   4.148  15.579  0.00  0.00    +0.000 A 
ATOM      7  C   UNL     1       8.171   4.679  17.820  0.00  0.00    +0.000 C 
ATOM      8  C   UNL     1       7.948   5.851  18.770  0.00  0.00    +0.000 C 
ATOM      9  C   UNL     1       6.694   5.646  19.622  0.00  0.00    +0.000 C 
ATOM     10  C   UNL     1       5.502   5.051  18.891  0.00  0.00    +0.000 C 
ATOM     11  C   UNL     1       4.430   4.676  19.628  0.00  0.00    +0.000 C 
ENDROOT
BRANCH  11  12
ATOM     12  C   UNL     1       3.237   3.952  19.169  0.00  0.00    +0.000 A 
ATOM     13  C   UNL     1       3.225   2.561  19.119  0.00  0.00    +0.000 A 
ATOM     14  C   UNL     1       2.129   1.938  18.546  0.00  0.00    +0.000 A 
ATOM     15  N   UNL     1       1.068   2.598  18.030  0.00  0.00    +0.000 NA
ATOM     16  C   UNL     1       1.095   3.944  18.115  0.00  0.00    +0.000 A 
ATOM     17  C   UNL     1       2.129   4.658  18.695  0.00  0.00    +0.000 A 
ENDBRANCH  11  12
BRANCH   1  19
ATOM     18  C   UNL     1       5.183   3.557  12.569  0.00  0.00    +0.000 C 
ATOM     19  O   UNL     1       6.306   3.648  13.442  0.00  0.00    +0.000 OA
ENDBRANCH   1  19
TORSDOF 2
ENDMDL
