MODEL 1
REMARK VINA RESULT:      -6.7      0.000      0.000
REMARK  Name = 
REMARK  6 active torsions:
REMARK  status: ('A' for Active; 'I' for Inactive)
REMARK    1  A    between atoms: C_1  and  O_2
REMARK    2  A    between atoms: O_2  and  C_3
REMARK    3  A    between atoms: C_5  and  O_6
REMARK    4  A    between atoms: O_6  and  C_7
REMARK    5  A    between atoms: C_9  and  C_10
REMARK    6  A    between atoms: N_12  and  N_13
REMARK                            x       y       z     vdW  Elec       q    Type
REMARK                         _______ _______ _______ _____ _____    ______ ____
ROOT
ATOM      1  C   UNL     1       6.247   4.252  14.196  0.00  0.00    +0.000 A 
ATOM      2  C   UNL     1       7.068   5.226  14.772  0.00  0.00    +0.000 A 
ATOM      3  C   UNL     1       6.821   5.705  16.064  0.00  0.00    +0.000 A 
ATOM      4  C   UNL     1       5.728   5.213  16.773  0.00  0.00    +0.000 A 
ATOM      5  C   UNL     1       4.910   4.220  16.215  0.00  0.00    +0.000 A 
ATOM      6  C   UNL     1       5.160   3.754  14.919  0.00  0.00    +0.000 A 
ENDROOT
BRANCH   5   7
ATOM      7  C   UNL     1       3.789   3.704  17.052  0.00  0.00    +0.000 C 
ATOM      8  O   UNL     1       2.743   3.364  16.503  0.00  0.00    +0.000 OA
ATOM      9  N   UNL     1       4.019   3.688  18.422  0.00  0.00    +0.000 N 
ATOM     10  H   UNL     1       4.857   4.092  18.819  0.00  0.00    +0.000 HD
BRANCH   9  11
ATOM     11  N   UNL     1       2.997   3.260  19.288  0.00  0.00    +0.000 NA
ATOM     12  C   UNL     1       3.548   2.708  20.530  0.00  0.00    +0.000 C 
ATOM     13  C   UNL     1       2.438   2.126  21.404  0.00  0.00    +0.000 C 
ATOM     14  C   UNL     1       1.356   3.161  21.692  0.00  0.00    +0.000 C 
ATOM     15  C   UNL     1       0.860   3.803  20.400  0.00  0.00    +0.000 C 
ATOM     16  C   UNL     1       2.021   4.326  19.551  0.00  0.00    +0.000 C 
ENDBRANCH   9  11
ENDBRANCH   5   7
BRANCH   1  18
ATOM     17  C   UNL     1       5.650   3.154  12.165  0.00  0.00    +0.000 C 
ATOM     18  O   UNL     1       6.615   3.857  12.939  0.00  0.00    +0.000 OA
ENDBRANCH   1  18
BRANCH   3  19
ATOM     19  O   UNL     1       7.724   6.623  16.527  0.00  0.00    +0.000 OA
ATOM     20  C   UNL     1       7.657   6.939  17.914  0.00  0.00    +0.000 C 
ENDBRANCH   3  19
TORSDOF 4
ENDMDL
MODEL 2
REMARK VINA RESULT:      -6.7      0.250      2.973
REMARK  Name = 
REMARK  6 active torsions:
REMARK  status: ('A' for Active; 'I' for Inactive)
REMARK    1  A    between atoms: C_1  and  O_2
REMARK    2  A    between atoms: O_2  and  C_3
REMARK    3  A    between atoms: C_5  and  O_6
REMARK    4  A    between atoms: O_6  and  C_7
REMARK    5  A    between atoms: C_9  and  C_10
REMARK    6  A    between atoms: N_12  and  N_13
REMARK                            x       y       z     vdW  Elec       q    Type
REMARK                         _______ _______ _______ _____ _____    ______ ____
ROOT
ATOM      1  C   UNL     1       6.924   5.654  16.035  0.00  0.00    +0.000 A 
ATOM      2  C   UNL     1       7.120   5.086  14.772  0.00  0.00    +0.000 A 
ATOM      3  C   UNL     1       6.293   4.056  14.309  0.00  0.00    +0.000 A 
ATOM      4  C   UNL     1       5.274   3.582  15.130  0.00  0.00    +0.000 A 
ATOM      5  C   UNL     1       5.053   4.158  16.389  0.00  0.00    +0.000 A 
ATOM      6  C   UNL     1       5.891   5.181  16.848  0.00  0.00    +0.000 A 
ENDROOT
BRANCH   5   7
ATOM      7  C   UNL     1       3.911   3.633  17.193  0.00  0.00    +0.000 C 
ATOM      8  O   UNL     1       2.890   3.272  16.611  0.00  0.00    +0.000 OA
ATOM      9  N   UNL     1       4.093   3.633  18.569  0.00  0.00    +0.000 N 
ATOM     10  H   UNL     1       4.912   4.053  18.991  0.00  0.00    +0.000 HD
BRANCH   9  11
ATOM     11  N   UNL     1       3.049   3.198  19.404  0.00  0.00    +0.000 NA
ATOM     12  C   UNL     1       3.565   2.658  20.666  0.00  0.00    +0.000 C 
ATOM     13  C   UNL     1       2.434   2.068  21.506  0.00  0.00    +0.000 C 
ATOM     14  C   UNL     1       1.332   3.093  21.755  0.00  0.00    +0.000 C 
ATOM     15  C   UNL     1       0.872   3.723  20.444  0.00  0.00    +0.000 C 
ATOM     16  C   UNL     1       2.054   4.255  19.630  0.00  0.00    +0.000 C 
ENDBRANCH   9  11
ENDBRANCH   5   7
BRANCH   1  18
ATOM     17  C   UNL     1       7.455   7.483  17.469  0.00  0.00    +0.000 C 
ATOM     18  O   UNL     1       7.787   6.667  16.353  0.00  0.00    +0.000 OA
ENDBRANCH   1  18
BRANCH   3  19
ATOM     19  O   UNL     1       6.563   3.620  13.040  0.00  0.00    +0.000 OA
ATOM     20  C   UNL     1       5.440   3.349  12.207  0.00  0.00    +0.000 C 
ENDBRANCH   3  19
TORSDOF 4
ENDMDL
MODEL 3
REMARK VINA RESULT:      -6.4      0.806      1.388
REMARK  Name = 
REMARK  6 active torsions:
REMARK  status: ('A' for Active; 'I' for Inactive)
REMARK    1  A    between atoms: C_1  and  O_2
REMARK    2  A    between atoms: O_2  and  C_3
REMARK    3  A    between atoms: C_5  and  O_6
REMARK    4  A    between atoms: O_6  and  C_7
REMARK    5  A    between atoms: C_9  and  C_10
REMARK    6  A    between atoms: N_12  and  N_13
REMARK                            x       y       z     vdW  Elec       q    Type
REMARK                         _______ _______ _______ _____ _____    ______ ____
ROOT
ATOM      1  C   UNL     1       6.110   4.206  14.508  0.00  0.00    +0.000 A 
ATOM      2  C   UNL     1       6.964   5.256  14.862  0.00  0.00    +0.000 A 
ATOM      3  C   UNL     1       6.911   5.830  16.136  0.00  0.00    +0.000 A 
ATOM      4  C   UNL     1       5.979   5.357  17.056  0.00  0.00    +0.000 A 
ATOM      5  C   UNL     1       5.133   4.290  16.722  0.00  0.00    +0.000 A 
ATOM      6  C   UNL     1       5.187   3.728  15.441  0.00  0.00    +0.000 A 
ENDROOT
BRANCH   5   7
ATOM      7  C   UNL     1       4.195   3.802  17.774  0.00  0.00    +0.000 C 
ATOM      8  O   UNL     1       3.580   2.755  17.585  0.00  0.00    +0.000 OA
ATOM      9  N   UNL     1       4.068   4.617  18.892  0.00  0.00    +0.000 N 
ATOM     10  H   UNL     1       4.513   5.525  18.933  0.00  0.00    +0.000 HD
BRANCH   9  11
ATOM     11  N   UNL     1       3.169   4.256  19.911  0.00  0.00    +0.000 NA
ATOM     12  C   UNL     1       1.779   4.335  19.449  0.00  0.00    +0.000 C 
ATOM     13  C   UNL     1       0.810   4.070  20.599  0.00  0.00    +0.000 C 
ATOM     14  C   UNL     1       1.093   2.730  21.269  0.00  0.00    +0.000 C 
ATOM     15  C   UNL     1       2.564   2.616  21.656  0.00  0.00    +0.000 C 
ATOM     16  C   UNL     1       3.482   2.935  20.473  0.00  0.00    +0.000 C 
ENDBRANCH   9  11
ENDBRANCH   5   7
BRANCH   1  18
ATOM     17  C   UNL     1       7.244   4.374  12.418  0.00  0.00    +0.000 C 
ATOM     18  O   UNL     1       6.284   3.722  13.240  0.00  0.00    +0.000 OA
ENDBRANCH   1  18
BRANCH   3  19
ATOM     19  O   UNL     1       7.830   6.818  16.368  0.00  0.00    +0.000 OA
ATOM     20  C   UNL     1       7.627   7.616  17.530  0.00  0.00    +0.000 C 
ENDBRANCH   3  19
TORSDOF 4
ENDMDL
MODEL 4
REMARK VINA RESULT:      -6.3      0.745      3.242
REMARK  Name = 
REMARK  6 active torsions:
REMARK  status: ('A' for Active; 'I' for Inactive)
REMARK    1  A    between atoms: C_1  and  O_2
REMARK    2  A    between atoms: O_2  and  C_3
REMARK    3  A    between atoms: C_5  and  O_6
REMARK    4  A    between atoms: O_6  and  C_7
REMARK    5  A    between atoms: C_9  and  C_10
REMARK    6  A    between atoms: N_12  and  N_13
REMARK                            x       y       z     vdW  Elec       q    Type
REMARK                         _______ _______ _______ _____ _____    ______ ____
ROOT
ATOM      1  C   UNL     1       7.103   6.003  16.266  0.00  0.00    +0.000 A 
ATOM      2  C   UNL     1       7.232   5.329  15.047  0.00  0.00    +0.000 A 
ATOM      3  C   UNL     1       6.414   4.237  14.736  0.00  0.00    +0.000 A 
ATOM      4  C   UNL     1       5.471   3.809  15.668  0.00  0.00    +0.000 A 
ATOM      5  C   UNL     1       5.317   4.489  16.884  0.00  0.00    +0.000 A 
ATOM      6  C   UNL     1       6.147   5.575  17.189  0.00  0.00    +0.000 A 
ENDROOT
BRANCH   5   7
ATOM      7  C   UNL     1       4.253   4.005  17.810  0.00  0.00    +0.000 C 
ATOM      8  O   UNL     1       3.446   3.170  17.407  0.00  0.00    +0.000 OA
ATOM      9  N   UNL     1       4.245   4.585  19.073  0.00  0.00    +0.000 N 
ATOM     10  H   UNL     1       4.864   5.352  19.302  0.00  0.00    +0.000 HD
BRANCH   9  11
ATOM     11  N   UNL     1       3.247   4.220  19.993  0.00  0.00    +0.000 NA
ATOM     12  C   UNL     1       1.906   4.414  19.430  0.00  0.00    +0.000 C 
ATOM     13  C   UNL     1       0.832   4.143  20.481  0.00  0.00    +0.000 C 
ATOM     14  C   UNL     1       0.981   2.750  21.083  0.00  0.00    +0.000 C 
ATOM     15  C   UNL     1       2.407   2.521  21.575  0.00  0.00    +0.000 C 
ATOM     16  C   UNL     1       3.435   2.852  20.491  0.00  0.00    +0.000 C 
ENDBRANCH   9  11
ENDBRANCH   5   7
BRANCH   1  18
ATOM     17  C   UNL     1       7.764   7.876  17.584  0.00  0.00    +0.000 C 
ATOM     18  O   UNL     1       7.950   7.065  16.430  0.00  0.00    +0.000 OA
ENDBRANCH   1  18
BRANCH   3  19
ATOM     19  O   UNL     1       6.611   3.697  13.494  0.00  0.00    +0.000 OA
ATOM     20  C   UNL     1       5.444   3.436  12.721  0.00  0.00    +0.000 C 
ENDBRANCH   3  19
TORSDOF 4
ENDMDL
MODEL 5
REMARK VINA RESULT:      -6.2      4.730      6.008
REMARK  Name = 
REMARK  6 active torsions:
REMARK  status: ('A' for Active; 'I' for Inactive)
REMARK    1  A    between atoms: C_1  and  O_2
REMARK    2  A    between atoms: O_2  and  C_3
REMARK    3  A    between atoms: C_5  and  O_6
REMARK    4  A    between atoms: O_6  and  C_7
REMARK    5  A    between atoms: C_9  and  C_10
REMARK    6  A    between atoms: N_12  and  N_13
REMARK                            x       y       z     vdW  Elec       q    Type
REMARK                         _______ _______ _______ _____ _____    ______ ____
ROOT
ATOM      1  C   UNL     1       2.866   4.192  17.390  0.00  0.00    +0.000 A 
ATOM      2  C   UNL     1       4.132   4.365  16.822  0.00  0.00    +0.000 A 
ATOM      3  C   UNL     1       4.789   5.599  16.887  0.00  0.00    +0.000 A 
ATOM      4  C   UNL     1       4.158   6.672  17.512  0.00  0.00    +0.000 A 
ATOM      5  C   UNL     1       2.898   6.505  18.104  0.00  0.00    +0.000 A 
ATOM      6  C   UNL     1       2.245   5.269  18.026  0.00  0.00    +0.000 A 
ENDROOT
BRANCH   5   7
ATOM      7  C   UNL     1       2.306   7.684  18.801  0.00  0.00    +0.000 C 
ATOM      8  O   UNL     1       2.134   7.633  20.017  0.00  0.00    +0.000 OA
ATOM      9  N   UNL     1       1.957   8.752  17.984  0.00  0.00    +0.000 N 
ATOM     10  H   UNL     1       2.016   8.684  16.976  0.00  0.00    +0.000 HD
BRANCH   9  11
ATOM     11  N   UNL     1       1.349   9.886  18.553  0.00  0.00    +0.000 NA
ATOM     12  C   UNL     1       2.069  11.112  18.194  0.00  0.00    +0.000 C 
ATOM     13  C   UNL     1       1.480  12.319  18.924  0.00  0.00    +0.000 C 
ATOM     14  C   UNL     1      -0.015  12.457  18.656  0.00  0.00    +0.000 C 
ATOM     15  C   UNL     1      -0.740  11.145  18.936  0.00  0.00    +0.000 C 
ATOM     16  C   UNL     1      -0.077   9.970  18.212  0.00  0.00    +0.000 C 
ENDBRANCH   9  11
ENDBRANCH   5   7
BRANCH   1  18
ATOM     17  C   UNL     1       2.946   1.906  18.060  0.00  0.00    +0.000 C 
ATOM     18  O   UNL     1       2.350   2.930  17.274  0.00  0.00    +0.000 OA
ENDBRANCH   1  18
BRANCH   3  19
ATOM     19  O   UNL     1       6.040   5.623  16.333  0.00  0.00    +0.000 OA
ATOM     20  C   UNL     1       6.788   4.412  16.397  0.00  0.00    +0.000 C 
ENDBRANCH   3  19
TORSDOF 4
ENDMDL
MODEL 6
REMARK VINA RESULT:      -6.2      4.694      6.049
REMARK  Name = 
REMARK  6 active torsions:
REMARK  status: ('A' for Active; 'I' for Inactive)
REMARK    1  A    between atoms: C_1  and  O_2
REMARK    2  A    between atoms: O_2  and  C_3
REMARK    3  A    between atoms: C_5  and  O_6
REMARK    4  A    between atoms: O_6  and  C_7
REMARK    5  A    between atoms: C_9  and  C_10
REMARK    6  A    between atoms: N_12  and  N_13
REMARK                            x       y       z     vdW  Elec       q    Type
REMARK                         _______ _______ _______ _____ _____    ______ ____
ROOT
ATOM      1  C   UNL     1       5.029   5.953  16.627  0.00  0.00    +0.000 A 
ATOM      2  C   UNL     1       4.546   4.642  16.698  0.00  0.00    +0.000 A 
ATOM      3  C   UNL     1       3.387   4.339  17.422  0.00  0.00    +0.000 A 
ATOM      4  C   UNL     1       2.719   5.360  18.093  0.00  0.00    +0.000 A 
ATOM      5  C   UNL     1       3.180   6.682  18.011  0.00  0.00    +0.000 A 
ATOM      6  C   UNL     1       4.346   6.973  17.292  0.00  0.00    +0.000 A 
ENDROOT
BRANCH   5   7
ATOM      7  C   UNL     1       2.386   7.730  18.713  0.00  0.00    +0.000 C 
ATOM      8  O   UNL     1       2.107   7.571  19.900  0.00  0.00    +0.000 OA
ATOM      9  N   UNL     1       1.988   8.808  17.933  0.00  0.00    +0.000 N 
ATOM     10  H   UNL     1       2.151   8.821  16.934  0.00  0.00    +0.000 HD
BRANCH   9  11
ATOM     11  N   UNL     1       1.196   9.820  18.505  0.00  0.00    +0.000 NA
ATOM     12  C   UNL     1       1.838  11.133  18.380  0.00  0.00    +0.000 C 
ATOM     13  C   UNL     1       1.034  12.201  19.120  0.00  0.00    +0.000 C 
ATOM     14  C   UNL     1      -0.412  12.245  18.637  0.00  0.00    +0.000 C 
ATOM     15  C   UNL     1      -1.039  10.855  18.675  0.00  0.00    +0.000 C 
ATOM     16  C   UNL     1      -0.166   9.824  17.955  0.00  0.00    +0.000 C 
ENDBRANCH   9  11
ENDBRANCH   5   7
BRANCH   1  18
ATOM     17  C   UNL     1       6.682   4.955  15.229  0.00  0.00    +0.000 C 
ATOM     18  O   UNL     1       6.156   6.112  15.868  0.00  0.00    +0.000 OA
ENDBRANCH   1  18
BRANCH   3  19
ATOM     19  O   UNL     1       2.997   3.028  17.374  0.00  0.00    +0.000 OA
ATOM     20  C   UNL     1       1.885   2.664  18.186  0.00  0.00    +0.000 C 
ENDBRANCH   3  19
TORSDOF 4
ENDMDL
MODEL 7
REMARK VINA RESULT:      -6.1      1.836      3.493
REMARK  Name = 
REMARK  6 active torsions:
REMARK  status: ('A' for Active; 'I' for Inactive)
REMARK    1  A    between atoms: C_1  and  O_2
REMARK    2  A    between atoms: O_2  and  C_3
REMARK    3  A    between atoms: C_5  and  O_6
REMARK    4  A    between atoms: O_6  and  C_7
REMARK    5  A    between atoms: C_9  and  C_10
REMARK    6  A    between atoms: N_12  and  N_13
REMARK                            x       y       z     vdW  Elec       q    Type
REMARK                         _______ _______ _______ _____ _____    ______ ____
ROOT
ATOM      1  C   UNL     1       7.506   5.081  13.768  0.00  0.00    +0.000 A 
ATOM      2  C   UNL     1       6.941   4.308  12.749  0.00  0.00    +0.000 A 
ATOM      3  C   UNL     1       5.831   3.492  12.994  0.00  0.00    +0.000 A 
ATOM      4  C   UNL     1       5.298   3.438  14.280  0.00  0.00    +0.000 A 
ATOM      5  C   UNL     1       5.842   4.225  15.305  0.00  0.00    +0.000 A 
ATOM      6  C   UNL     1       6.958   5.032  15.052  0.00  0.00    +0.000 A 
ENDROOT
BRANCH   5   7
ATOM      7  C   UNL     1       5.187   4.156  16.643  0.00  0.00    +0.000 C 
ATOM      8  O   UNL     1       5.829   4.489  17.637  0.00  0.00    +0.000 OA
ATOM      9  N   UNL     1       3.886   3.671  16.653  0.00  0.00    +0.000 N 
ATOM     10  H   UNL     1       3.457   3.303  15.813  0.00  0.00    +0.000 HD
BRANCH   9  11
ATOM     11  N   UNL     1       3.211   3.529  17.878  0.00  0.00    +0.000 NA
ATOM     12  C   UNL     1       2.452   4.739  18.212  0.00  0.00    +0.000 C 
ATOM     13  C   UNL     1       1.833   4.624  19.603  0.00  0.00    +0.000 C 
ATOM     14  C   UNL     1       0.965   3.376  19.726  0.00  0.00    +0.000 C 
ATOM     15  C   UNL     1       1.732   2.135  19.280  0.00  0.00    +0.000 C 
ATOM     16  C   UNL     1       2.363   2.330  17.900  0.00  0.00    +0.000 C 
ENDBRANCH   9  11
ENDBRANCH   5   7
BRANCH   1  18
ATOM     17  C   UNL     1       8.557   6.376  12.064  0.00  0.00    +0.000 C 
ATOM     18  O   UNL     1       8.571   5.850  13.386  0.00  0.00    +0.000 OA
ENDBRANCH   1  18
BRANCH   3  19
ATOM     19  O   UNL     1       5.348   2.823  11.902  0.00  0.00    +0.000 OA
ATOM     20  C   UNL     1       4.100   3.271  11.381  0.00  0.00    +0.000 C 
ENDBRANCH   3  19
TORSDOF 4
ENDMDL
MODEL 8
REMARK VINA RESULT:      -6.1      3.434      4.822
REMARK  Name = 
REMARK  6 active torsions:
REMARK  status: ('A' for Active; 'I' for Inactive)
REMARK    1  A    between atoms: C_1  and  O_2
REMARK    2  A    between atoms: O_2  and  C_3
REMARK    3  A    between atoms: C_5  and  O_6
REMARK    4  A    between atoms: O_6  and  C_7
REMARK    5  A    between atoms: C_9  and  C_10
REMARK    6  A    between atoms: N_12  and  N_13
REMARK                            x       y       z     vdW  Elec       q    Type
REMARK                         _______ _______ _______ _____ _____    ______ ____
ROOT
ATOM      1  C   UNL     1       6.640   6.652  16.838  0.00  0.00    +0.000 A 
ATOM      2  C   UNL     1       6.687   5.455  16.116  0.00  0.00    +0.000 A 
ATOM      3  C   UNL     1       5.570   4.615  16.039  0.00  0.00    +0.000 A 
ATOM      4  C   UNL     1       4.403   4.974  16.708  0.00  0.00    +0.000 A 
ATOM      5  C   UNL     1       4.336   6.182  17.416  0.00  0.00    +0.000 A 
ATOM      6  C   UNL     1       5.461   7.011  17.496  0.00  0.00    +0.000 A 
ENDROOT
BRANCH   5   7
ATOM      7  C   UNL     1       3.037   6.525  18.066  0.00  0.00    +0.000 C 
ATOM      8  O   UNL     1       2.192   5.644  18.209  0.00  0.00    +0.000 OA
ATOM      9  N   UNL     1       2.879   7.856  18.428  0.00  0.00    +0.000 N 
ATOM     10  H   UNL     1       3.566   8.555  18.175  0.00  0.00    +0.000 HD
BRANCH   9  11
ATOM     11  N   UNL     1       1.666   8.276  19.004  0.00  0.00    +0.000 NA
ATOM     12  C   UNL     1       1.721   8.210  20.468  0.00  0.00    +0.000 C 
ATOM     13  C   UNL     1       0.359   8.539  21.077  0.00  0.00    +0.000 C 
ATOM     14  C   UNL     1      -0.149   9.896  20.603  0.00  0.00    +0.000 C 
ATOM     15  C   UNL     1      -0.107   9.991  19.082  0.00  0.00    +0.000 C 
ATOM     16  C   UNL     1       1.269   9.608  18.532  0.00  0.00    +0.000 C 
ENDBRANCH   9  11
ENDBRANCH   5   7
BRANCH   1  18
ATOM     17  C   UNL     1       7.977   8.352  17.841  0.00  0.00    +0.000 C 
ATOM     18  O   UNL     1       7.793   7.387  16.812  0.00  0.00    +0.000 OA
ENDBRANCH   1  18
BRANCH   3  19
ATOM     19  O   UNL     1       5.734   3.499  15.264  0.00  0.00    +0.000 OA
ATOM     20  C   UNL     1       6.192   3.709  13.932  0.00  0.00    +0.000 C 
ENDBRANCH   3  19
TORSDOF 4
ENDMDL
MODEL 9
REMARK VINA RESULT:      -6.1      4.719      7.598
REMARK  Name = 
REMARK  6 active torsions:
REMARK  status: ('A' for Active; 'I' for Inactive)
REMARK    1  A    between atoms: C_1  and  O_2
REMARK    2  A    between atoms: O_2  and  C_3
REMARK    3  A    between atoms: C_5  and  O_6
REMARK    4  A    between atoms: O_6  and  C_7
REMARK    5  A    between atoms: C_9  and  C_10
REMARK    6  A    between atoms: N_12  and  N_13
REMARK                            x       y       z     vdW  Elec       q    Type
REMARK                         _______ _______ _______ _____ _____    ______ ____
ROOT
ATOM      1  C   UNL     1       1.054  10.062  18.946  0.00  0.00    +0.000 A 
ATOM      2  C   UNL     1       0.816   9.916  20.317  0.00  0.00    +0.000 A 
ATOM      3  C   UNL     1       1.206   8.756  20.997  0.00  0.00    +0.000 A 
ATOM      4  C   UNL     1       1.822   7.728  20.288  0.00  0.00    +0.000 A 
ATOM      5  C   UNL     1       2.086   7.872  18.918  0.00  0.00    +0.000 A 
ATOM      6  C   UNL     1       1.684   9.032  18.245  0.00  0.00    +0.000 A 
ENDROOT
BRANCH   5   7
ATOM      7  C   UNL     1       2.795   6.751  18.235  0.00  0.00    +0.000 C 
ATOM      8  O   UNL     1       2.258   5.647  18.190  0.00  0.00    +0.000 OA
ATOM      9  N   UNL     1       4.052   7.055  17.728  0.00  0.00    +0.000 N 
ATOM     10  H   UNL     1       4.486   7.952  17.902  0.00  0.00    +0.000 HD
BRANCH   9  11
ATOM     11  N   UNL     1       4.809   6.044  17.110  0.00  0.00    +0.000 NA
ATOM     12  C   UNL     1       5.111   6.382  15.715  0.00  0.00    +0.000 C 
ATOM     13  C   UNL     1       5.817   5.222  15.016  0.00  0.00    +0.000 C 
ATOM     14  C   UNL     1       7.076   4.802  15.767  0.00  0.00    +0.000 C 
ATOM     15  C   UNL     1       6.771   4.550  17.240  0.00  0.00    +0.000 C 
ATOM     16  C   UNL     1       6.026   5.729  17.870  0.00  0.00    +0.000 C 
ENDBRANCH   9  11
ENDBRANCH   5   7
BRANCH   1  18
ATOM     17  C   UNL     1      -0.445  11.913  19.049  0.00  0.00    +0.000 C 
ATOM     18  O   UNL     1       0.643  11.254  18.413  0.00  0.00    +0.000 OA
ENDBRANCH   1  18
BRANCH   3  19
ATOM     19  O   UNL     1       0.956   8.759  22.342  0.00  0.00    +0.000 OA
ATOM     20  C   UNL     1      -0.227   9.427  22.769  0.00  0.00    +0.000 C 
ENDBRANCH   3  19
TORSDOF 4
ENDMDL
