MODEL 1
REMARK VINA RESULT:      -8.5      0.000      0.000
REMARK  Name = 
REMARK  9 active torsions:
REMARK  status: ('A' for Active; 'I' for Inactive)
REMARK    1  A    between atoms: C_1  and  O_2
REMARK    2  A    between atoms: O_2  and  C_3
REMARK    3  A    between atoms: C_3  and  C_5
REMARK    4  A    between atoms: C_6  and  C_7
REMARK    5  A    between atoms: C_9  and  C_10
REMARK    6  A    between atoms: N_12  and  C_13
REMARK    7  A    between atoms: C_16  and  C_17
REMARK    8  A    between atoms: C_23  and  C_24
REMARK    9  A    between atoms: C_29  and  C_30
REMARK                            x       y       z     vdW  Elec       q    Type
REMARK                         _______ _______ _______ _____ _____    ______ ____
ROOT
ATOM      1  C   UNL     1      -0.657  10.972  22.683  0.00  0.00    +0.000 C 
ATOM      2  O   UNL     1      -0.047  10.296  23.505  0.00  0.00    +0.000 OA
ATOM      3  N   UNL     1      -0.443  10.939  21.316  0.00  0.00    +0.000 N 
ATOM      4  H   UNL     1      -0.800  11.722  20.786  0.00  0.00    +0.000 HD
ENDROOT
BRANCH   1   9
ATOM      5  C   UNL     1      -2.873  13.781  23.735  0.00  0.00    +0.000 A 
ATOM      6  C   UNL     1      -3.625  12.633  23.952  0.00  0.00    +0.000 A 
ATOM      7  C   UNL     1      -5.013  12.410  24.441  0.00  0.00    +0.000 C 
ATOM      8  N   UNL     1      -2.862  11.564  23.560  0.00  0.00    +0.000 N 
ATOM      9  C   UNL     1      -1.615  11.966  23.135  0.00  0.00    +0.000 A 
ATOM     10  C   UNL     1      -1.606  13.356  23.179  0.00  0.00    +0.000 A 
ATOM     11  C   UNL     1      -0.536  14.292  22.721  0.00  0.00    +0.000 C 
ATOM     12  H   UNL     1      -3.155  10.593  23.566  0.00  0.00    +0.000 HD
BRANCH   5  13
ATOM     13  C   UNL     1      -3.277  15.171  23.970  0.00  0.00    +0.000 C 
ATOM     14  O   UNL     1      -3.210  15.709  25.070  0.00  0.00    +0.000 OA
BRANCH  13  16
ATOM     15  C   UNL     1      -5.215  15.906  22.892  0.00  0.00    +0.000 C 
ATOM     16  O   UNL     1      -3.795  15.775  22.862  0.00  0.00    +0.000 OA
ENDBRANCH  13  16
ENDBRANCH   5  13
ENDBRANCH   1   9
BRANCH   3  17
ATOM     17  C   UNL     1       0.340   9.995  20.617  0.00  0.00    +0.000 A 
ATOM     18  C   UNL     1       0.773   8.805  21.198  0.00  0.00    +0.000 A 
ATOM     19  C   UNL     1       1.551   7.897  20.476  0.00  0.00    +0.000 A 
ATOM     20  C   UNL     1       1.912   8.147  19.148  0.00  0.00    +0.000 A 
ATOM     21  C   UNL     1       1.460   9.335  18.557  0.00  0.00    +0.000 A 
ATOM     22  C   UNL     1       0.671  10.246  19.281  0.00  0.00    +0.000 A 
BRANCH  20  23
ATOM     23  C   UNL     1       2.726   7.200  18.398  0.00  0.00    +0.000 A 
ATOM     24  C   UNL     1       3.769   7.528  17.555  0.00  0.00    +0.000 A 
ATOM     25  N   UNL     1       4.250   6.340  17.074  0.00  0.00    +0.000 N 
ATOM     26  C   UNL     1       5.298   6.118  16.189  0.00  0.00    +0.000 A 
ATOM     27  C   UNL     1       5.602   4.856  15.848  0.00  0.00    +0.000 A 
ATOM     28  C   UNL     1       4.821   3.769  16.419  0.00  0.00    +0.000 A 
ATOM     29  C   UNL     1       3.797   3.974  17.285  0.00  0.00    +0.000 A 
ATOM     30  C   UNL     1       3.031   2.803  17.842  0.00  0.00    +0.000 C 
ATOM     31  C   UNL     1       3.481   5.334  17.640  0.00  0.00    +0.000 A 
ATOM     32  N   UNL     1       2.558   5.832  18.441  0.00  0.00    +0.000 NA
ENDBRANCH  20  23
ENDBRANCH   3  17
TORSDOF 5
ENDMDL
MODEL 2
REMARK VINA RESULT:      -8.3      3.361     11.261
REMARK  Name = 
REMARK  9 active torsions:
REMARK  status: ('A' for Active; 'I' for Inactive)
REMARK    1  A    between atoms: C_1  and  O_2
REMARK    2  A    between atoms: O_2  and  C_3
REMARK    3  A    between atoms: C_3  and  C_5
REMARK    4  A    between atoms: C_6  and  C_7
REMARK    5  A    between atoms: C_9  and  C_10
REMARK    6  A    between atoms: N_12  and  C_13
REMARK    7  A    between atoms: C_16  and  C_17
REMARK    8  A    between atoms: C_23  and  C_24
REMARK    9  A    between atoms: C_29  and  C_30
REMARK                            x       y       z     vdW  Elec       q    Type
REMARK                         _______ _______ _______ _____ _____    ______ ____
ROOT
ATOM      1  C   UNL     1       2.113   7.495  19.658  0.00  0.00    +0.000 C 
ATOM      2  O   UNL     1       2.011   8.250  18.697  0.00  0.00    +0.000 OA
ATOM      3  N   UNL     1       1.666   7.776  20.938  0.00  0.00    +0.000 N 
ATOM      4  H   UNL     1       2.048   7.208  21.682  0.00  0.00    +0.000 HD
ENDROOT
BRANCH   1   9
ATOM      5  C   UNL     1       3.683   4.117  19.471  0.00  0.00    +0.000 A 
ATOM      6  C   UNL     1       4.540   4.948  18.761  0.00  0.00    +0.000 A 
ATOM      7  C   UNL     1       5.800   4.698  18.008  0.00  0.00    +0.000 C 
ATOM      8  N   UNL     1       3.997   6.207  18.779  0.00  0.00    +0.000 N 
ATOM      9  C   UNL     1       2.835   6.242  19.517  0.00  0.00    +0.000 A 
ATOM     10  C   UNL     1       2.578   4.937  19.921  0.00  0.00    +0.000 A 
ATOM     11  C   UNL     1       1.388   4.409  20.652  0.00  0.00    +0.000 C 
ATOM     12  H   UNL     1       4.378   7.023  18.312  0.00  0.00    +0.000 HD
BRANCH   5  13
ATOM     13  C   UNL     1       3.823   2.675  19.698  0.00  0.00    +0.000 C 
ATOM     14  O   UNL     1       4.788   2.179  20.270  0.00  0.00    +0.000 OA
BRANCH  13  16
ATOM     15  C   UNL     1       2.705   2.080  17.735  0.00  0.00    +0.000 C 
ATOM     16  O   UNL     1       2.809   1.944  19.151  0.00  0.00    +0.000 OA
ENDBRANCH  13  16
ENDBRANCH   5  13
ENDBRANCH   1   9
BRANCH   3  17
ATOM     17  C   UNL     1       0.843   8.858  21.315  0.00  0.00    +0.000 A 
ATOM     18  C   UNL     1       0.324   9.762  20.389  0.00  0.00    +0.000 A 
ATOM     19  C   UNL     1      -0.484  10.825  20.800  0.00  0.00    +0.000 A 
ATOM     20  C   UNL     1      -0.803  11.012  22.149  0.00  0.00    +0.000 A 
ATOM     21  C   UNL     1      -0.298  10.093  23.078  0.00  0.00    +0.000 A 
ATOM     22  C   UNL     1       0.509   9.018  22.664  0.00  0.00    +0.000 A 
BRANCH  20  23
ATOM     23  C   UNL     1      -1.643  12.123  22.576  0.00  0.00    +0.000 A 
ATOM     24  C   UNL     1      -2.885  12.435  22.061  0.00  0.00    +0.000 A 
ATOM     25  N   UNL     1      -3.311  13.537  22.752  0.00  0.00    +0.000 N 
ATOM     26  C   UNL     1      -4.500  14.246  22.617  0.00  0.00    +0.000 A 
ATOM     27  C   UNL     1      -4.713  15.310  23.408  0.00  0.00    +0.000 A 
ATOM     28  C   UNL     1      -3.691  15.680  24.375  0.00  0.00    +0.000 A 
ATOM     29  C   UNL     1      -2.528  14.994  24.516  0.00  0.00    +0.000 A 
ATOM     30  C   UNL     1      -1.514  15.429  25.540  0.00  0.00    +0.000 C 
ATOM     31  C   UNL     1      -2.312  13.856  23.660  0.00  0.00    +0.000 A 
ATOM     32  N   UNL     1      -1.300  13.015  23.570  0.00  0.00    +0.000 NA
ENDBRANCH  20  23
ENDBRANCH   3  17
TORSDOF 5
ENDMDL
MODEL 3
REMARK VINA RESULT:      -8.3      3.255     11.182
REMARK  Name = 
REMARK  9 active torsions:
REMARK  status: ('A' for Active; 'I' for Inactive)
REMARK    1  A    between atoms: C_1  and  O_2
REMARK    2  A    between atoms: O_2  and  C_3
REMARK    3  A    between atoms: C_3  and  C_5
REMARK    4  A    between atoms: C_6  and  C_7
REMARK    5  A    between atoms: C_9  and  C_10
REMARK    6  A    between atoms: N_12  and  C_13
REMARK    7  A    between atoms: C_16  and  C_17
REMARK    8  A    between atoms: C_23  and  C_24
REMARK    9  A    between atoms: C_29  and  C_30
REMARK                            x       y       z     vdW  Elec       q    Type
REMARK                         _______ _______ _______ _____ _____    ______ ____
ROOT
ATOM      1  C   UNL     1       2.313   7.495  19.276  0.00  0.00    +0.000 C 
ATOM      2  O   UNL     1       2.269   8.351  18.398  0.00  0.00    +0.000 OA
ATOM      3  N   UNL     1       1.863   7.668  20.574  0.00  0.00    +0.000 N 
ATOM      4  H   UNL     1       2.200   7.006  21.259  0.00  0.00    +0.000 HD
ENDROOT
BRANCH   1   9
ATOM      5  C   UNL     1       3.814   4.102  18.903  0.00  0.00    +0.000 A 
ATOM      6  C   UNL     1       4.226   4.800  17.774  0.00  0.00    +0.000 A 
ATOM      7  C   UNL     1       5.036   4.416  16.586  0.00  0.00    +0.000 C 
ATOM      8  N   UNL     1       3.682   6.056  17.849  0.00  0.00    +0.000 N 
ATOM      9  C   UNL     1       2.963   6.223  19.012  0.00  0.00    +0.000 A 
ATOM     10  C   UNL     1       2.979   5.000  19.672  0.00  0.00    +0.000 A 
ATOM     11  C   UNL     1       2.262   4.610  20.922  0.00  0.00    +0.000 C 
ATOM     12  H   UNL     1       3.774   6.785  17.150  0.00  0.00    +0.000 HD
BRANCH   5  13
ATOM     13  C   UNL     1       4.115   2.709  19.249  0.00  0.00    +0.000 C 
ATOM     14  O   UNL     1       4.880   2.396  20.155  0.00  0.00    +0.000 OA
BRANCH  13  16
ATOM     15  C   UNL     1       2.087   1.841  18.480  0.00  0.00    +0.000 C 
ATOM     16  O   UNL     1       3.511   1.808  18.421  0.00  0.00    +0.000 OA
ENDBRANCH  13  16
ENDBRANCH   5  13
ENDBRANCH   1   9
BRANCH   3  17
ATOM     17  C   UNL     1       1.099   8.753  21.054  0.00  0.00    +0.000 A 
ATOM     18  C   UNL     1       0.690   9.803  20.232  0.00  0.00    +0.000 A 
ATOM     19  C   UNL     1      -0.062  10.862  20.745  0.00  0.00    +0.000 A 
ATOM     20  C   UNL     1      -0.435  10.901  22.092  0.00  0.00    +0.000 A 
ATOM     21  C   UNL     1      -0.042   9.837  22.914  0.00  0.00    +0.000 A 
ATOM     22  C   UNL     1       0.710   8.766  22.398  0.00  0.00    +0.000 A 
BRANCH  20  23
ATOM     23  C   UNL     1      -1.217  12.009  22.625  0.00  0.00    +0.000 A 
ATOM     24  C   UNL     1      -0.817  13.330  22.661  0.00  0.00    +0.000 A 
ATOM     25  N   UNL     1      -1.852  14.020  23.231  0.00  0.00    +0.000 N 
ATOM     26  C   UNL     1      -1.954  15.381  23.495  0.00  0.00    +0.000 A 
ATOM     27  C   UNL     1      -3.074  15.849  24.068  0.00  0.00    +0.000 A 
ATOM     28  C   UNL     1      -4.139  14.911  24.390  0.00  0.00    +0.000 A 
ATOM     29  C   UNL     1      -4.052  13.581  24.135  0.00  0.00    +0.000 A 
ATOM     30  C   UNL     1      -5.194  12.666  24.492  0.00  0.00    +0.000 C 
ATOM     31  C   UNL     1      -2.844  13.093  23.522  0.00  0.00    +0.000 A 
ATOM     32  N   UNL     1      -2.479  11.877  23.164  0.00  0.00    +0.000 NA
ENDBRANCH  20  23
ENDBRANCH   3  17
TORSDOF 5
ENDMDL
MODEL 4
REMARK VINA RESULT:      -8.3      3.282     11.296
REMARK  Name = 
REMARK  9 active torsions:
REMARK  status: ('A' for Active; 'I' for Inactive)
REMARK    1  A    between atoms: C_1  and  O_2
REMARK    2  A    between atoms: O_2  and  C_3
REMARK    3  A    between atoms: C_3  and  C_5
REMARK    4  A    between atoms: C_6  and  C_7
REMARK    5  A    between atoms: C_9  and  C_10
REMARK    6  A    between atoms: N_12  and  C_13
REMARK    7  A    between atoms: C_16  and  C_17
REMARK    8  A    between atoms: C_23  and  C_24
REMARK    9  A    between atoms: C_29  and  C_30
REMARK                            x       y       z     vdW  Elec       q    Type
REMARK                         _______ _______ _______ _____ _____    ______ ____
ROOT
ATOM      1  C   UNL     1       1.849   7.943  19.748  0.00  0.00    +0.000 C 
ATOM      2  O   UNL     1       1.681   8.708  18.804  0.00  0.00    +0.000 OA
ATOM      3  N   UNL     1       1.515   8.222  21.062  0.00  0.00    +0.000 N 
ATOM      4  H   UNL     1       1.947   7.643  21.769  0.00  0.00    +0.000 HD
ENDROOT
BRANCH   1   9
ATOM      5  C   UNL     1       3.792   4.866  18.935  0.00  0.00    +0.000 A 
ATOM      6  C   UNL     1       3.056   4.534  20.066  0.00  0.00    +0.000 A 
ATOM      7  C   UNL     1       2.982   3.304  20.901  0.00  0.00    +0.000 C 
ATOM      8  N   UNL     1       2.334   5.643  20.424  0.00  0.00    +0.000 N 
ATOM      9  C   UNL     1       2.535   6.680  19.540  0.00  0.00    +0.000 A 
ATOM     10  C   UNL     1       3.486   6.245  18.623  0.00  0.00    +0.000 A 
ATOM     11  C   UNL     1       4.136   7.019  17.523  0.00  0.00    +0.000 C 
ATOM     12  H   UNL     1       1.729   5.720  21.234  0.00  0.00    +0.000 HD
BRANCH   5  13
ATOM     13  C   UNL     1       4.738   4.015  18.205  0.00  0.00    +0.000 C 
ATOM     14  O   UNL     1       4.412   3.321  17.248  0.00  0.00    +0.000 OA
BRANCH  13  16
ATOM     15  C   UNL     1       6.957   4.688  17.924  0.00  0.00    +0.000 C 
ATOM     16  O   UNL     1       5.993   4.027  18.740  0.00  0.00    +0.000 OA
ENDBRANCH  13  16
ENDBRANCH   5  13
ENDBRANCH   1   9
BRANCH   3  17
ATOM     17  C   UNL     1       0.744   9.315  21.513  0.00  0.00    +0.000 A 
ATOM     18  C   UNL     1       0.631  10.501  20.787  0.00  0.00    +0.000 A 
ATOM     19  C   UNL     1      -0.137  11.564  21.268  0.00  0.00    +0.000 A 
ATOM     20  C   UNL     1      -0.821  11.472  22.485  0.00  0.00    +0.000 A 
ATOM     21  C   UNL     1      -0.723  10.274  23.205  0.00  0.00    +0.000 A 
ATOM     22  C   UNL     1       0.044   9.200  22.718  0.00  0.00    +0.000 A 
BRANCH  20  23
ATOM     23  C   UNL     1      -1.618  12.584  22.986  0.00  0.00    +0.000 A 
ATOM     24  C   UNL     1      -2.916  12.873  22.614  0.00  0.00    +0.000 A 
ATOM     25  N   UNL     1      -3.271  13.984  23.328  0.00  0.00    +0.000 N 
ATOM     26  C   UNL     1      -4.476  14.678  23.321  0.00  0.00    +0.000 A 
ATOM     27  C   UNL     1      -4.608  15.756  24.109  0.00  0.00    +0.000 A 
ATOM     28  C   UNL     1      -3.484  16.157  24.942  0.00  0.00    +0.000 A 
ATOM     29  C   UNL     1      -2.305  15.486  24.959  0.00  0.00    +0.000 A 
ATOM     30  C   UNL     1      -1.182  15.952  25.848  0.00  0.00    +0.000 C 
ATOM     31  C   UNL     1      -2.177  14.332  24.106  0.00  0.00    +0.000 A 
ATOM     32  N   UNL     1      -1.171  13.500  23.914  0.00  0.00    +0.000 NA
ENDBRANCH  20  23
ENDBRANCH   3  17
TORSDOF 5
ENDMDL
MODEL 5
REMARK VINA RESULT:      -8.3      3.506     11.150
REMARK  Name = 
REMARK  9 active torsions:
REMARK  status: ('A' for Active; 'I' for Inactive)
REMARK    1  A    between atoms: C_1  and  O_2
REMARK    2  A    between atoms: O_2  and  C_3
REMARK    3  A    between atoms: C_3  and  C_5
REMARK    4  A    between atoms: C_6  and  C_7
REMARK    5  A    between atoms: C_9  and  C_10
REMARK    6  A    between atoms: N_12  and  C_13
REMARK    7  A    between atoms: C_16  and  C_17
REMARK    8  A    between atoms: C_23  and  C_24
REMARK    9  A    between atoms: C_29  and  C_30
REMARK                            x       y       z     vdW  Elec       q    Type
REMARK                         _______ _______ _______ _____ _____    ______ ____
ROOT
ATOM      1  C   UNL     1       1.824   7.680  20.091  0.00  0.00    +0.000 C 
ATOM      2  O   UNL     1       1.870   8.392  19.093  0.00  0.00    +0.000 OA
ATOM      3  N   UNL     1       1.396   8.094  21.340  0.00  0.00    +0.000 N 
ATOM      4  H   UNL     1       1.661   7.512  22.122  0.00  0.00    +0.000 HD
ENDROOT
BRANCH   1   9
ATOM      5  C   UNL     1       3.366   4.310  19.669  0.00  0.00    +0.000 A 
ATOM      6  C   UNL     1       2.499   4.173  20.747  0.00  0.00    +0.000 A 
ATOM      7  C   UNL     1       2.181   3.035  21.652  0.00  0.00    +0.000 C 
ATOM      8  N   UNL     1       1.917   5.396  20.961  0.00  0.00    +0.000 N 
ATOM      9  C   UNL     1       2.336   6.321  20.032  0.00  0.00    +0.000 A 
ATOM     10  C   UNL     1       3.287   5.690  19.238  0.00  0.00    +0.000 A 
ATOM     11  C   UNL     1       4.130   6.277  18.154  0.00  0.00    +0.000 C 
ATOM     12  H   UNL     1       1.264   5.619  21.705  0.00  0.00    +0.000 HD
BRANCH   5  13
ATOM     13  C   UNL     1       4.237   3.283  19.089  0.00  0.00    +0.000 C 
ATOM     14  O   UNL     1       5.252   2.877  19.644  0.00  0.00    +0.000 OA
BRANCH  13  16
ATOM     15  C   UNL     1       2.572   2.227  17.837  0.00  0.00    +0.000 C 
ATOM     16  O   UNL     1       3.839   2.881  17.847  0.00  0.00    +0.000 OA
ENDBRANCH  13  16
ENDBRANCH   5  13
ENDBRANCH   1   9
BRANCH   3  17
ATOM     17  C   UNL     1       0.750   9.313  21.639  0.00  0.00    +0.000 A 
ATOM     18  C   UNL     1       0.872  10.442  20.831  0.00  0.00    +0.000 A 
ATOM     19  C   UNL     1       0.222  11.633  21.161  0.00  0.00    +0.000 A 
ATOM     20  C   UNL     1      -0.577  11.729  22.306  0.00  0.00    +0.000 A 
ATOM     21  C   UNL     1      -0.716  10.589  23.108  0.00  0.00    +0.000 A 
ATOM     22  C   UNL     1      -0.067   9.387  22.772  0.00  0.00    +0.000 A 
BRANCH  20  23
ATOM     23  C   UNL     1      -1.252  12.974  22.650  0.00  0.00    +0.000 A 
ATOM     24  C   UNL     1      -2.169  13.635  21.859  0.00  0.00    +0.000 A 
ATOM     25  N   UNL     1      -2.548  14.742  22.569  0.00  0.00    +0.000 N 
ATOM     26  C   UNL     1      -3.452  15.738  22.218  0.00  0.00    +0.000 A 
ATOM     27  C   UNL     1      -3.674  16.745  23.077  0.00  0.00    +0.000 A 
ATOM     28  C   UNL     1      -2.958  16.755  24.344  0.00  0.00    +0.000 A 
ATOM     29  C   UNL     1      -2.075  15.788  24.698  0.00  0.00    +0.000 A 
ATOM     30  C   UNL     1      -1.370  15.857  26.027  0.00  0.00    +0.000 C 
ATOM     31  C   UNL     1      -1.845  14.714  23.765  0.00  0.00    +0.000 A 
ATOM     32  N   UNL     1      -1.060  13.656  23.832  0.00  0.00    +0.000 NA
ENDBRANCH  20  23
ENDBRANCH   3  17
TORSDOF 5
ENDMDL
MODEL 6
REMARK VINA RESULT:      -8.2      3.195     11.188
REMARK  Name = 
REMARK  9 active torsions:
REMARK  status: ('A' for Active; 'I' for Inactive)
REMARK    1  A    between atoms: C_1  and  O_2
REMARK    2  A    between atoms: O_2  and  C_3
REMARK    3  A    between atoms: C_3  and  C_5
REMARK    4  A    between atoms: C_6  and  C_7
REMARK    5  A    between atoms: C_9  and  C_10
REMARK    6  A    between atoms: N_12  and  C_13
REMARK    7  A    between atoms: C_16  and  C_17
REMARK    8  A    between atoms: C_23  and  C_24
REMARK    9  A    between atoms: C_29  and  C_30
REMARK                            x       y       z     vdW  Elec       q    Type
REMARK                         _______ _______ _______ _____ _____    ______ ____
ROOT
ATOM      1  C   UNL     1       1.783   7.972  19.798  0.00  0.00    +0.000 C 
ATOM      2  O   UNL     1       1.582   8.752  18.872  0.00  0.00    +0.000 OA
ATOM      3  N   UNL     1       1.475   8.221  21.124  0.00  0.00    +0.000 N 
ATOM      4  H   UNL     1       1.931   7.634  21.809  0.00  0.00    +0.000 HD
ENDROOT
BRANCH   1   9
ATOM      5  C   UNL     1       3.746   4.937  18.878  0.00  0.00    +0.000 A 
ATOM      6  C   UNL     1       3.045   4.575  20.023  0.00  0.00    +0.000 A 
ATOM      7  C   UNL     1       3.010   3.330  20.837  0.00  0.00    +0.000 C 
ATOM      8  N   UNL     1       2.318   5.668  20.419  0.00  0.00    +0.000 N 
ATOM      9  C   UNL     1       2.481   6.722  19.548  0.00  0.00    +0.000 A 
ATOM     10  C   UNL     1       3.412   6.318  18.599  0.00  0.00    +0.000 A 
ATOM     11  C   UNL     1       4.022   7.119  17.497  0.00  0.00    +0.000 C 
ATOM     12  H   UNL     1       1.733   5.722  21.246  0.00  0.00    +0.000 HD
BRANCH   5  13
ATOM     13  C   UNL     1       4.684   4.114  18.109  0.00  0.00    +0.000 C 
ATOM     14  O   UNL     1       4.360   3.498  17.099  0.00  0.00    +0.000 OA
BRANCH  13  16
ATOM     15  C   UNL     1       6.929   4.727  17.912  0.00  0.00    +0.000 C 
ATOM     16  O   UNL     1       5.927   4.051  18.668  0.00  0.00    +0.000 OA
ENDBRANCH  13  16
ENDBRANCH   5  13
ENDBRANCH   1   9
BRANCH   3  17
ATOM     17  C   UNL     1       0.701   9.294  21.614  0.00  0.00    +0.000 A 
ATOM     18  C   UNL     1      -0.156   9.162  22.705  0.00  0.00    +0.000 A 
ATOM     19  C   UNL     1      -0.910  10.246  23.159  0.00  0.00    +0.000 A 
ATOM     20  C   UNL     1      -0.825  11.498  22.540  0.00  0.00    +0.000 A 
ATOM     21  C   UNL     1       0.050  11.636  21.455  0.00  0.00    +0.000 A 
ATOM     22  C   UNL     1       0.816  10.547  21.002  0.00  0.00    +0.000 A 
BRANCH  20  23
ATOM     23  C   UNL     1      -1.616  12.626  23.013  0.00  0.00    +0.000 A 
ATOM     24  C   UNL     1      -1.113  13.846  23.420  0.00  0.00    +0.000 A 
ATOM     25  N   UNL     1      -2.198  14.601  23.772  0.00  0.00    +0.000 N 
ATOM     26  C   UNL     1      -2.235  15.907  24.248  0.00  0.00    +0.000 A 
ATOM     27  C   UNL     1      -3.425  16.459  24.534  0.00  0.00    +0.000 A 
ATOM     28  C   UNL     1      -4.630  15.667  24.335  0.00  0.00    +0.000 A 
ATOM     29  C   UNL     1      -4.605  14.393  23.869  0.00  0.00    +0.000 A 
ATOM     30  C   UNL     1      -5.891  13.631  23.683  0.00  0.00    +0.000 C 
ATOM     31  C   UNL     1      -3.322  13.813  23.568  0.00  0.00    +0.000 A 
ATOM     32  N   UNL     1      -2.991  12.620  23.111  0.00  0.00    +0.000 NA
ENDBRANCH  20  23
ENDBRANCH   3  17
TORSDOF 5
ENDMDL
MODEL 7
REMARK VINA RESULT:      -8.1      3.203     11.270
REMARK  Name = 
REMARK  9 active torsions:
REMARK  status: ('A' for Active; 'I' for Inactive)
REMARK    1  A    between atoms: C_1  and  O_2
REMARK    2  A    between atoms: O_2  and  C_3
REMARK    3  A    between atoms: C_3  and  C_5
REMARK    4  A    between atoms: C_6  and  C_7
REMARK    5  A    between atoms: C_9  and  C_10
REMARK    6  A    between atoms: N_12  and  C_13
REMARK    7  A    between atoms: C_16  and  C_17
REMARK    8  A    between atoms: C_23  and  C_24
REMARK    9  A    between atoms: C_29  and  C_30
REMARK                            x       y       z     vdW  Elec       q    Type
REMARK                         _______ _______ _______ _____ _____    ______ ____
ROOT
ATOM      1  C   UNL     1       1.926   8.132  18.940  0.00  0.00    +0.000 C 
ATOM      2  O   UNL     1       1.540   8.897  18.062  0.00  0.00    +0.000 OA
ATOM      3  N   UNL     1       1.738   8.323  20.297  0.00  0.00    +0.000 N 
ATOM      4  H   UNL     1       2.329   7.784  20.914  0.00  0.00    +0.000 HD
ENDROOT
BRANCH   1   9
ATOM      5  C   UNL     1       3.774   4.966  18.252  0.00  0.00    +0.000 A 
ATOM      6  C   UNL     1       4.360   5.909  17.417  0.00  0.00    +0.000 A 
ATOM      7  C   UNL     1       5.445   5.827  16.401  0.00  0.00    +0.000 C 
ATOM      8  N   UNL     1       3.702   7.095  17.615  0.00  0.00    +0.000 N 
ATOM      9  C   UNL     1       2.732   6.976  18.584  0.00  0.00    +0.000 A 
ATOM     10  C   UNL     1       2.712   5.640  18.968  0.00  0.00    +0.000 A 
ATOM     11  C   UNL     1       1.774   4.958  19.909  0.00  0.00    +0.000 C 
ATOM     12  H   UNL     1       3.881   7.962  17.119  0.00  0.00    +0.000 HD
BRANCH   5  13
ATOM     13  C   UNL     1       4.115   3.545  18.371  0.00  0.00    +0.000 C 
ATOM     14  O   UNL     1       3.682   2.687  17.610  0.00  0.00    +0.000 OA
BRANCH  13  16
ATOM     15  C   UNL     1       4.378   2.254  20.301  0.00  0.00    +0.000 C 
ATOM     16  O   UNL     1       4.904   3.271  19.450  0.00  0.00    +0.000 OA
ENDBRANCH  13  16
ENDBRANCH   5  13
ENDBRANCH   1   9
BRANCH   3  17
ATOM     17  C   UNL     1       0.904   9.292  20.895  0.00  0.00    +0.000 A 
ATOM     18  C   UNL     1       0.304   9.098  22.139  0.00  0.00    +0.000 A 
ATOM     19  C   UNL     1      -0.520  10.078  22.697  0.00  0.00    +0.000 A 
ATOM     20  C   UNL     1      -0.763  11.285  22.033  0.00  0.00    +0.000 A 
ATOM     21  C   UNL     1      -0.145  11.489  20.792  0.00  0.00    +0.000 A 
ATOM     22  C   UNL     1       0.690  10.506  20.232  0.00  0.00    +0.000 A 
BRANCH  20  23
ATOM     23  C   UNL     1      -1.626  12.305  22.616  0.00  0.00    +0.000 A 
ATOM     24  C   UNL     1      -2.949  12.521  22.287  0.00  0.00    +0.000 A 
ATOM     25  N   UNL     1      -3.366  13.559  23.075  0.00  0.00    +0.000 N 
ATOM     26  C   UNL     1      -4.616  14.164  23.132  0.00  0.00    +0.000 A 
ATOM     27  C   UNL     1      -4.807  15.180  23.989  0.00  0.00    +0.000 A 
ATOM     28  C   UNL     1      -3.695  15.609  24.824  0.00  0.00    +0.000 A 
ATOM     29  C   UNL     1      -2.471  15.025  24.778  0.00  0.00    +0.000 A 
ATOM     30  C   UNL     1      -1.365  15.516  25.673  0.00  0.00    +0.000 C 
ATOM     31  C   UNL     1      -2.281  13.937  23.853  0.00  0.00    +0.000 A 
ATOM     32  N   UNL     1      -1.224  13.192  23.591  0.00  0.00    +0.000 NA
ENDBRANCH  20  23
ENDBRANCH   3  17
TORSDOF 5
ENDMDL
MODEL 8
REMARK VINA RESULT:      -8.1      1.005      1.037
REMARK  Name = 
REMARK  9 active torsions:
REMARK  status: ('A' for Active; 'I' for Inactive)
REMARK    1  A    between atoms: C_1  and  O_2
REMARK    2  A    between atoms: O_2  and  C_3
REMARK    3  A    between atoms: C_3  and  C_5
REMARK    4  A    between atoms: C_6  and  C_7
REMARK    5  A    between atoms: C_9  and  C_10
REMARK    6  A    between atoms: N_12  and  C_13
REMARK    7  A    between atoms: C_16  and  C_17
REMARK    8  A    between atoms: C_23  and  C_24
REMARK    9  A    between atoms: C_29  and  C_30
REMARK                            x       y       z     vdW  Elec       q    Type
REMARK                         _______ _______ _______ _____ _____    ______ ____
ROOT
ATOM      1  C   UNL     1      -0.413  11.897  21.580  0.00  0.00    +0.000 C 
ATOM      2  O   UNL     1       0.733  12.306  21.738  0.00  0.00    +0.000 OA
ATOM      3  N   UNL     1      -0.770  10.838  20.764  0.00  0.00    +0.000 N 
ATOM      4  H   UNL     1      -1.745  10.778  20.506  0.00  0.00    +0.000 HD
ENDROOT
BRANCH   1   9
ATOM      5  C   UNL     1      -3.197  13.988  22.916  0.00  0.00    +0.000 A 
ATOM      6  C   UNL     1      -3.274  12.795  23.626  0.00  0.00    +0.000 A 
ATOM      7  C   UNL     1      -4.210  12.298  24.671  0.00  0.00    +0.000 C 
ATOM      8  N   UNL     1      -2.280  11.976  23.158  0.00  0.00    +0.000 N 
ATOM      9  C   UNL     1      -1.522  12.605  22.195  0.00  0.00    +0.000 A 
ATOM     10  C   UNL     1      -2.102  13.850  21.979  0.00  0.00    +0.000 A 
ATOM     11  C   UNL     1      -1.736  14.881  20.963  0.00  0.00    +0.000 C 
ATOM     12  H   UNL     1      -2.107  11.023  23.459  0.00  0.00    +0.000 HD
BRANCH   5  13
ATOM     13  C   UNL     1      -4.072  15.158  23.041  0.00  0.00    +0.000 C 
ATOM     14  O   UNL     1      -3.728  16.193  23.602  0.00  0.00    +0.000 OA
BRANCH  13  16
ATOM     15  C   UNL     1      -6.369  15.229  23.456  0.00  0.00    +0.000 C 
ATOM     16  O   UNL     1      -5.320  14.951  22.531  0.00  0.00    +0.000 OA
ENDBRANCH  13  16
ENDBRANCH   5  13
ENDBRANCH   1   9
BRANCH   3  17
ATOM     17  C   UNL     1       0.112   9.922  20.152  0.00  0.00    +0.000 A 
ATOM     18  C   UNL     1       0.721   8.884  20.856  0.00  0.00    +0.000 A 
ATOM     19  C   UNL     1       1.593   8.000  20.216  0.00  0.00    +0.000 A 
ATOM     20  C   UNL     1       1.876   8.122  18.852  0.00  0.00    +0.000 A 
ATOM     21  C   UNL     1       1.250   9.153  18.139  0.00  0.00    +0.000 A 
ATOM     22  C   UNL     1       0.366  10.039  18.781  0.00  0.00    +0.000 A 
BRANCH  20  23
ATOM     23  C   UNL     1       2.789   7.199  18.188  0.00  0.00    +0.000 A 
ATOM     24  C   UNL     1       3.882   7.561  17.426  0.00  0.00    +0.000 A 
ATOM     25  N   UNL     1       4.451   6.389  17.007  0.00  0.00    +0.000 N 
ATOM     26  C   UNL     1       5.577   6.199  16.214  0.00  0.00    +0.000 A 
ATOM     27  C   UNL     1       5.961   4.947  15.922  0.00  0.00    +0.000 A 
ATOM     28  C   UNL     1       5.183   3.835  16.448  0.00  0.00    +0.000 A 
ATOM     29  C   UNL     1       4.084   4.008  17.225  0.00  0.00    +0.000 A 
ATOM     30  C   UNL     1       3.326   2.813  17.740  0.00  0.00    +0.000 C 
ATOM     31  C   UNL     1       3.682   5.358  17.528  0.00  0.00    +0.000 A 
ATOM     32  N   UNL     1       2.677   5.827  18.243  0.00  0.00    +0.000 NA
ENDBRANCH  20  23
ENDBRANCH   3  17
TORSDOF 5
ENDMDL
MODEL 9
REMARK VINA RESULT:      -8.1      1.044      1.517
REMARK  Name = 
REMARK  9 active torsions:
REMARK  status: ('A' for Active; 'I' for Inactive)
REMARK    1  A    between atoms: C_1  and  O_2
REMARK    2  A    between atoms: O_2  and  C_3
REMARK    3  A    between atoms: C_3  and  C_5
REMARK    4  A    between atoms: C_6  and  C_7
REMARK    5  A    between atoms: C_9  and  C_10
REMARK    6  A    between atoms: N_12  and  C_13
REMARK    7  A    between atoms: C_16  and  C_17
REMARK    8  A    between atoms: C_23  and  C_24
REMARK    9  A    between atoms: C_29  and  C_30
REMARK                            x       y       z     vdW  Elec       q    Type
REMARK                         _______ _______ _______ _____ _____    ______ ____
ROOT
ATOM      1  C   UNL     1      -0.415  11.896  21.490  0.00  0.00    +0.000 C 
ATOM      2  O   UNL     1       0.733  12.253  21.736  0.00  0.00    +0.000 OA
ATOM      3  N   UNL     1      -0.761  10.910  20.582  0.00  0.00    +0.000 N 
ATOM      4  H   UNL     1      -1.722  10.902  20.271  0.00  0.00    +0.000 HD
ENDROOT
BRANCH   1   9
ATOM      5  C   UNL     1      -3.229  13.964  22.798  0.00  0.00    +0.000 A 
ATOM      6  C   UNL     1      -3.280  12.787  23.535  0.00  0.00    +0.000 A 
ATOM      7  C   UNL     1      -4.200  12.295  24.596  0.00  0.00    +0.000 C 
ATOM      8  N   UNL     1      -2.273  11.976  23.078  0.00  0.00    +0.000 N 
ATOM      9  C   UNL     1      -1.534  12.597  22.097  0.00  0.00    +0.000 A 
ATOM     10  C   UNL     1      -2.139  13.826  21.857  0.00  0.00    +0.000 A 
ATOM     11  C   UNL     1      -1.798  14.841  20.816  0.00  0.00    +0.000 C 
ATOM     12  H   UNL     1      -2.081  11.033  23.399  0.00  0.00    +0.000 HD
BRANCH   5  13
ATOM     13  C   UNL     1      -4.125  15.121  22.902  0.00  0.00    +0.000 C 
ATOM     14  O   UNL     1      -5.256  15.135  22.428  0.00  0.00    +0.000 OA
BRANCH  13  16
ATOM     15  C   UNL     1      -3.621  16.144  24.941  0.00  0.00    +0.000 C 
ATOM     16  O   UNL     1      -3.548  16.193  23.518  0.00  0.00    +0.000 OA
ENDBRANCH  13  16
ENDBRANCH   5  13
ENDBRANCH   1   9
BRANCH   3  17
ATOM     17  C   UNL     1       0.124  10.010  19.951  0.00  0.00    +0.000 A 
ATOM     18  C   UNL     1       0.459  10.112  18.602  0.00  0.00    +0.000 A 
ATOM     19  C   UNL     1       1.335   9.199  18.010  0.00  0.00    +0.000 A 
ATOM     20  C   UNL     1       1.909   8.161  18.751  0.00  0.00    +0.000 A 
ATOM     21  C   UNL     1       1.589   8.070  20.112  0.00  0.00    +0.000 A 
ATOM     22  C   UNL     1       0.712   8.993  20.711  0.00  0.00    +0.000 A 
BRANCH  20  23
ATOM     23  C   UNL     1       2.821   7.208  18.131  0.00  0.00    +0.000 A 
ATOM     24  C   UNL     1       3.971   7.530  17.439  0.00  0.00    +0.000 A 
ATOM     25  N   UNL     1       4.515   6.340  17.040  0.00  0.00    +0.000 N 
ATOM     26  C   UNL     1       5.677   6.111  16.312  0.00  0.00    +0.000 A 
ATOM     27  C   UNL     1       6.026   4.846  16.028  0.00  0.00    +0.000 A 
ATOM     28  C   UNL     1       5.172   3.763  16.494  0.00  0.00    +0.000 A 
ATOM     29  C   UNL     1       4.037   3.975  17.207  0.00  0.00    +0.000 A 
ATOM     30  C   UNL     1       3.201   2.808  17.661  0.00  0.00    +0.000 C 
ATOM     31  C   UNL     1       3.674   5.337  17.502  0.00  0.00    +0.000 A 
ATOM     32  N   UNL     1       2.649   5.841  18.162  0.00  0.00    +0.000 NA
ENDBRANCH  20  23
ENDBRANCH   3  17
TORSDOF 5
ENDMDL
