MODEL 1
REMARK VINA RESULT:      -7.0      0.000      0.000
REMARK  Name = 
REMARK  9 active torsions:
REMARK  status: ('A' for Active; 'I' for Inactive)
REMARK    1  A    between atoms: C_1  and  C_2
REMARK    2  A    between atoms: C_2  and  N_3
REMARK    3  A    between atoms: C_7  and  C_8
REMARK    4  A    between atoms: C_8  and  O_10
REMARK    5  A    between atoms: C_17  and  C_18
REMARK    6  A    between atoms: N_25  and  C_26
REMARK    7  A    between atoms: C_26  and  C_27
REMARK    8  A    between atoms: C_27  and  C_28
REMARK    9  A    between atoms: C_27  and  C_29
REMARK                            x       y       z     vdW  Elec       q    Type
REMARK                         _______ _______ _______ _____ _____    ______ ____
ROOT
ATOM      1  N   UNL     1       2.557   6.381  18.978  0.00  0.00    +0.000 N 
ATOM      2  C   UNL     1       3.799   5.939  18.455  0.00  0.00    +0.000 A 
ATOM      3  C   UNL     1       4.819   6.876  18.210  0.00  0.00    +0.000 A 
ATOM      4  C   UNL     1       5.997   6.520  17.551  0.00  0.00    +0.000 A 
ATOM      5  C   UNL     1       6.185   5.195  17.193  0.00  0.00    +0.000 A 
ATOM      6  C   UNL     1       5.171   4.300  17.509  0.00  0.00    +0.000 A 
ATOM      7  N   UNL     1       4.008   4.641  18.140  0.00  0.00    +0.000 NA
ATOM      8  C   UNL     1       1.984   7.672  18.803  0.00  0.00    +0.000 A 
ATOM      9  C   UNL     1       2.291   8.349  17.616  0.00  0.00    +0.000 A 
ATOM     10  C   UNL     1       2.108   9.713  17.520  0.00  0.00    +0.000 A 
ATOM     11  C   UNL     1       1.484  10.349  18.577  0.00  0.00    +0.000 A 
ATOM     12  C   UNL     1       1.184  11.777  18.570  0.00  0.00    +0.000 A 
ATOM     13  C   UNL     1      -0.141  11.886  18.400  0.00  0.00    +0.000 A 
ATOM     14  C   UNL     1      -0.865  11.240  19.586  0.00  0.00    +0.000 A 
ATOM     15  O   UNL     1      -1.978  11.679  19.798  0.00  0.00    +0.000 OA
ATOM     16  N   UNL     1      -0.187  10.244  20.301  0.00  0.00    +0.000 N 
ATOM     17  C   UNL     1       0.899   9.582  19.587  0.00  0.00    +0.000 A 
ATOM     18  N   UNL     1       1.217   8.273  19.760  0.00  0.00    +0.000 NA
ENDROOT
BRANCH  12  19
ATOM     19  C   UNL     1       1.847  12.608  19.653  0.00  0.00    +0.000 C 
ATOM     20  F   UNL     1       3.052  13.109  19.273  0.00  0.00    +0.000 F 
ATOM     21  F   UNL     1       1.083  13.662  20.023  0.00  0.00    +0.000 F 
ATOM     22  F   UNL     1       2.080  11.881  20.779  0.00  0.00    +0.000 F 
ENDBRANCH  12  19
BRANCH   1  24
ATOM     23  C   UNL     1       2.238   5.030  21.025  0.00  0.00    +0.000 C 
ATOM     24  C   UNL     1       1.714   5.381  19.638  0.00  0.00    +0.000 C 
ENDBRANCH   1  24
BRANCH   5  25
ATOM     25  C   UNL     1       7.371   4.715  16.455  0.00  0.00    +0.000 C 
ATOM     26  O   UNL     1       7.517   4.909  15.261  0.00  0.00    +0.000 OA
BRANCH  25  27
ATOM     27  O   UNL     1       8.267   4.038  17.204  0.00  0.00    +0.000 OA
ATOM     28  H   UNL     1       8.099   4.011  18.163  0.00  0.00    +0.000 HD
ENDBRANCH  25  27
ENDBRANCH   5  25
BRANCH  16  29
ATOM     29  C   UNL     1      -0.772   9.491  21.423  0.00  0.00    +0.000 C 
BRANCH  29  30
ATOM     30  C   UNL     1      -0.878   9.935  22.927  0.00  0.00    +0.000 C 
ATOM     31  C   UNL     1       0.282   9.494  23.837  0.00  0.00    +0.000 C 
ATOM     32  C   UNL     1      -1.313  11.338  23.338  0.00  0.00    +0.000 C 
ENDBRANCH  29  30
ENDBRANCH  16  29
TORSDOF 6
ENDMDL
MODEL 2
REMARK VINA RESULT:      -6.9      0.627      1.131
REMARK  Name = 
REMARK  9 active torsions:
REMARK  status: ('A' for Active; 'I' for Inactive)
REMARK    1  A    between atoms: C_1  and  C_2
REMARK    2  A    between atoms: C_2  and  N_3
REMARK    3  A    between atoms: C_7  and  C_8
REMARK    4  A    between atoms: C_8  and  O_10
REMARK    5  A    between atoms: C_17  and  C_18
REMARK    6  A    between atoms: N_25  and  C_26
REMARK    7  A    between atoms: C_26  and  C_27
REMARK    8  A    between atoms: C_27  and  C_28
REMARK    9  A    between atoms: C_27  and  C_29
REMARK                            x       y       z     vdW  Elec       q    Type
REMARK                         _______ _______ _______ _____ _____    ______ ____
ROOT
ATOM      1  N   UNL     1       2.774   6.126  19.522  0.00  0.00    +0.000 N 
ATOM      2  C   UNL     1       4.046   5.699  19.065  0.00  0.00    +0.000 A 
ATOM      3  C   UNL     1       5.003   6.657  18.685  0.00  0.00    +0.000 A 
ATOM      4  C   UNL     1       6.207   6.291  18.082  0.00  0.00    +0.000 A 
ATOM      5  C   UNL     1       6.485   4.943  17.916  0.00  0.00    +0.000 A 
ATOM      6  C   UNL     1       5.531   4.037  18.359  0.00  0.00    +0.000 A 
ATOM      7  N   UNL     1       4.344   4.386  18.938  0.00  0.00    +0.000 NA
ATOM      8  C   UNL     1       2.118   7.339  19.166  0.00  0.00    +0.000 A 
ATOM      9  C   UNL     1       2.388   7.858  17.893  0.00  0.00    +0.000 A 
ATOM     10  C   UNL     1       2.115   9.179  17.604  0.00  0.00    +0.000 A 
ATOM     11  C   UNL     1       1.442   9.916  18.560  0.00  0.00    +0.000 A 
ATOM     12  C   UNL     1       1.048  11.305  18.350  0.00  0.00    +0.000 A 
ATOM     13  C   UNL     1      -0.280  11.300  18.169  0.00  0.00    +0.000 A 
ATOM     14  C   UNL     1      -0.968  10.783  19.437  0.00  0.00    +0.000 A 
ATOM     15  O   UNL     1      -2.109  11.172  19.587  0.00  0.00    +0.000 OA
ATOM     16  N   UNL     1      -0.230   9.946  20.285  0.00  0.00    +0.000 N 
ATOM     17  C   UNL     1       0.903   9.264  19.671  0.00  0.00    +0.000 A 
ATOM     18  N   UNL     1       1.305   8.018  20.029  0.00  0.00    +0.000 NA
ENDROOT
BRANCH  12  19
ATOM     19  C   UNL     1       1.646  12.325  19.301  0.00  0.00    +0.000 C 
ATOM     20  F   UNL     1       1.807  11.843  20.562  0.00  0.00    +0.000 F 
ATOM     21  F   UNL     1       2.861  12.755  18.888  0.00  0.00    +0.000 F 
ATOM     22  F   UNL     1       0.861  13.430  19.419  0.00  0.00    +0.000 F 
ENDBRANCH  12  19
BRANCH   1  24
ATOM     23  C   UNL     1       1.226   4.201  19.439  0.00  0.00    +0.000 C 
ATOM     24  C   UNL     1       1.995   5.177  20.320  0.00  0.00    +0.000 C 
ENDBRANCH   1  24
BRANCH   5  25
ATOM     25  C   UNL     1       7.706   4.443  17.252  0.00  0.00    +0.000 C 
ATOM     26  O   UNL     1       8.663   4.024  17.879  0.00  0.00    +0.000 OA
BRANCH  25  27
ATOM     27  O   UNL     1       7.680   4.501  15.903  0.00  0.00    +0.000 OA
ATOM     28  H   UNL     1       7.857   3.667  15.430  0.00  0.00    +0.000 HD
ENDBRANCH  25  27
ENDBRANCH   5  25
BRANCH  16  29
ATOM     29  C   UNL     1      -0.772   9.324  21.505  0.00  0.00    +0.000 C 
BRANCH  29  30
ATOM     30  C   UNL     1      -0.824   9.933  22.953  0.00  0.00    +0.000 C 
ATOM     31  C   UNL     1       0.325   9.523  23.891  0.00  0.00    +0.000 C 
ATOM     32  C   UNL     1      -1.168  11.396  23.216  0.00  0.00    +0.000 C 
ENDBRANCH  29  30
ENDBRANCH  16  29
TORSDOF 6
ENDMDL
MODEL 3
REMARK VINA RESULT:      -6.8      7.129     10.739
REMARK  Name = 
REMARK  9 active torsions:
REMARK  status: ('A' for Active; 'I' for Inactive)
REMARK    1  A    between atoms: C_1  and  C_2
REMARK    2  A    between atoms: C_2  and  N_3
REMARK    3  A    between atoms: C_7  and  C_8
REMARK    4  A    between atoms: C_8  and  O_10
REMARK    5  A    between atoms: C_17  and  C_18
REMARK    6  A    between atoms: N_25  and  C_26
REMARK    7  A    between atoms: C_26  and  C_27
REMARK    8  A    between atoms: C_27  and  C_28
REMARK    9  A    between atoms: C_27  and  C_29
REMARK                            x       y       z     vdW  Elec       q    Type
REMARK                         _______ _______ _______ _____ _____    ______ ____
ROOT
ATOM      1  N   UNL     1       5.655  16.083  19.231  0.00  0.00    +0.000 N 
ATOM      2  C   UNL     1       4.274  15.762  19.180  0.00  0.00    +0.000 A 
ATOM      3  C   UNL     1       3.877  14.413  19.194  0.00  0.00    +0.000 A 
ATOM      4  C   UNL     1       2.548  14.040  18.988  0.00  0.00    +0.000 A 
ATOM      5  C   UNL     1       1.594  15.033  18.831  0.00  0.00    +0.000 A 
ATOM      6  C   UNL     1       2.032  16.350  18.881  0.00  0.00    +0.000 A 
ATOM      7  N   UNL     1       3.332  16.725  19.068  0.00  0.00    +0.000 NA
ATOM      8  C   UNL     1       6.724  15.267  18.764  0.00  0.00    +0.000 A 
ATOM      9  C   UNL     1       6.451  14.417  17.684  0.00  0.00    +0.000 A 
ATOM     10  C   UNL     1       7.276  13.345  17.411  0.00  0.00    +0.000 A 
ATOM     11  C   UNL     1       8.440  13.232  18.147  0.00  0.00    +0.000 A 
ATOM     12  C   UNL     1       9.418  12.174  17.915  0.00  0.00    +0.000 A 
ATOM     13  C   UNL     1      10.468  12.754  17.316  0.00  0.00    +0.000 A 
ATOM     14  C   UNL     1      11.087  13.793  18.257  0.00  0.00    +0.000 A 
ATOM     15  O   UNL     1      12.263  14.019  18.057  0.00  0.00    +0.000 OA
ATOM     16  N   UNL     1      10.261  14.357  19.239  0.00  0.00    +0.000 N 
ATOM     17  C   UNL     1       8.828  14.285  18.979  0.00  0.00    +0.000 A 
ATOM     18  N   UNL     1       7.952  15.248  19.363  0.00  0.00    +0.000 NA
ENDROOT
BRANCH  12  19
ATOM     19  C   UNL     1       9.675  11.230  19.074  0.00  0.00    +0.000 C 
ATOM     20  F   UNL     1       9.029  11.599  20.211  0.00  0.00    +0.000 F 
ATOM     21  F   UNL     1       9.286   9.964  18.795  0.00  0.00    +0.000 F 
ATOM     22  F   UNL     1      10.996  11.169  19.395  0.00  0.00    +0.000 F 
ENDBRANCH  12  19
BRANCH   1  24
ATOM     23  C   UNL     1       6.076  17.534  21.188  0.00  0.00    +0.000 C 
ATOM     24  C   UNL     1       6.013  17.434  19.669  0.00  0.00    +0.000 C 
ENDBRANCH   1  24
BRANCH   5  25
ATOM     25  C   UNL     1       0.169  14.752  18.563  0.00  0.00    +0.000 C 
ATOM     26  O   UNL     1      -0.243  13.627  18.342  0.00  0.00    +0.000 OA
BRANCH  25  27
ATOM     27  O   UNL     1      -0.633  15.839  18.571  0.00  0.00    +0.000 OA
ATOM     28  H   UNL     1      -0.600  16.396  19.370  0.00  0.00    +0.000 HD
ENDBRANCH  25  27
ENDBRANCH   5  25
BRANCH  16  29
ATOM     29  C   UNL     1      10.693  15.408  20.174  0.00  0.00    +0.000 C 
BRANCH  29  30
ATOM     30  C   UNL     1      10.451  15.474  21.727  0.00  0.00    +0.000 C 
ATOM     31  C   UNL     1      10.152  16.871  22.297  0.00  0.00    +0.000 C 
ATOM     32  C   UNL     1       9.593  14.452  22.466  0.00  0.00    +0.000 C 
ENDBRANCH  29  30
ENDBRANCH  16  29
TORSDOF 6
ENDMDL
MODEL 4
REMARK VINA RESULT:      -6.8      4.468      6.782
REMARK  Name = 
REMARK  9 active torsions:
REMARK  status: ('A' for Active; 'I' for Inactive)
REMARK    1  A    between atoms: C_1  and  C_2
REMARK    2  A    between atoms: C_2  and  N_3
REMARK    3  A    between atoms: C_7  and  C_8
REMARK    4  A    between atoms: C_8  and  O_10
REMARK    5  A    between atoms: C_17  and  C_18
REMARK    6  A    between atoms: N_25  and  C_26
REMARK    7  A    between atoms: C_26  and  C_27
REMARK    8  A    between atoms: C_27  and  C_28
REMARK    9  A    between atoms: C_27  and  C_29
REMARK                            x       y       z     vdW  Elec       q    Type
REMARK                         _______ _______ _______ _____ _____    ______ ____
ROOT
ATOM      1  N   UNL     1       5.725   5.487  16.611  0.00  0.00    +0.000 N 
ATOM      2  C   UNL     1       6.082   5.125  15.287  0.00  0.00    +0.000 A 
ATOM      3  C   UNL     1       5.253   4.250  14.562  0.00  0.00    +0.000 A 
ATOM      4  C   UNL     1       5.635   3.739  13.321  0.00  0.00    +0.000 A 
ATOM      5  C   UNL     1       6.833   4.162  12.768  0.00  0.00    +0.000 A 
ATOM      6  C   UNL     1       7.587   5.071  13.500  0.00  0.00    +0.000 A 
ATOM      7  N   UNL     1       7.228   5.565  14.721  0.00  0.00    +0.000 NA
ATOM      8  C   UNL     1       4.953   4.705  17.516  0.00  0.00    +0.000 A 
ATOM      9  C   UNL     1       5.040   3.312  17.388  0.00  0.00    +0.000 A 
ATOM     10  C   UNL     1       4.074   2.497  17.940  0.00  0.00    +0.000 A 
ATOM     11  C   UNL     1       3.112   3.094  18.733  0.00  0.00    +0.000 A 
ATOM     12  C   UNL     1       2.071   2.332  19.416  0.00  0.00    +0.000 A 
ATOM     13  C   UNL     1       2.396   2.328  20.716  0.00  0.00    +0.000 A 
ATOM     14  C   UNL     1       2.383   3.763  21.254  0.00  0.00    +0.000 A 
ATOM     15  O   UNL     1       2.179   3.854  22.447  0.00  0.00    +0.000 OA
ATOM     16  N   UNL     1       2.588   4.804  20.338  0.00  0.00    +0.000 N 
ATOM     17  C   UNL     1       3.263   4.433  19.099  0.00  0.00    +0.000 A 
ATOM     18  N   UNL     1       4.109   5.261  18.435  0.00  0.00    +0.000 NA
ENDROOT
BRANCH  12  19
ATOM     19  C   UNL     1       0.640   2.651  19.027  0.00  0.00    +0.000 C 
ATOM     20  F   UNL     1       0.013   1.613  18.413  0.00  0.00    +0.000 F 
ATOM     21  F   UNL     1      -0.115   2.987  20.099  0.00  0.00    +0.000 F 
ATOM     22  F   UNL     1       0.571   3.697  18.159  0.00  0.00    +0.000 F 
ENDBRANCH  12  19
BRANCH   1  24
ATOM     23  C   UNL     1       7.456   6.398  18.123  0.00  0.00    +0.000 C 
ATOM     24  C   UNL     1       6.322   6.709  17.155  0.00  0.00    +0.000 C 
ENDBRANCH   1  24
BRANCH   5  25
ATOM     25  C   UNL     1       7.357   3.655  11.483  0.00  0.00    +0.000 C 
ATOM     26  O   UNL     1       7.631   4.395  10.554  0.00  0.00    +0.000 OA
BRANCH  25  27
ATOM     27  O   UNL     1       7.493   2.314  11.418  0.00  0.00    +0.000 OA
ATOM     28  H   UNL     1       7.913   1.883  12.185  0.00  0.00    +0.000 HD
ENDBRANCH  25  27
ENDBRANCH   5  25
BRANCH  16  29
ATOM     29  C   UNL     1       2.663   6.226  20.711  0.00  0.00    +0.000 C 
BRANCH  29  30
ATOM     30  C   UNL     1       1.752   7.403  20.202  0.00  0.00    +0.000 C 
ATOM     31  C   UNL     1       1.280   8.395  21.279  0.00  0.00    +0.000 C 
ATOM     32  C   UNL     1       2.054   8.178  18.924  0.00  0.00    +0.000 C 
ENDBRANCH  29  30
ENDBRANCH  16  29
TORSDOF 6
ENDMDL
MODEL 5
REMARK VINA RESULT:      -6.7      7.012      8.454
REMARK  Name = 
REMARK  9 active torsions:
REMARK  status: ('A' for Active; 'I' for Inactive)
REMARK    1  A    between atoms: C_1  and  C_2
REMARK    2  A    between atoms: C_2  and  N_3
REMARK    3  A    between atoms: C_7  and  C_8
REMARK    4  A    between atoms: C_8  and  O_10
REMARK    5  A    between atoms: C_17  and  C_18
REMARK    6  A    between atoms: N_25  and  C_26
REMARK    7  A    between atoms: C_26  and  C_27
REMARK    8  A    between atoms: C_27  and  C_28
REMARK    9  A    between atoms: C_27  and  C_29
REMARK                            x       y       z     vdW  Elec       q    Type
REMARK                         _______ _______ _______ _____ _____    ______ ____
ROOT
ATOM      1  N   UNL     1      -1.383  13.064  21.437  0.00  0.00    +0.000 N 
ATOM      2  C   UNL     1      -0.182  13.528  20.842  0.00  0.00    +0.000 A 
ATOM      3  C   UNL     1      -0.217  14.074  19.547  0.00  0.00    +0.000 A 
ATOM      4  C   UNL     1       0.951  14.398  18.857  0.00  0.00    +0.000 A 
ATOM      5  C   UNL     1       2.170  14.235  19.497  0.00  0.00    +0.000 A 
ATOM      6  C   UNL     1       2.145  13.745  20.796  0.00  0.00    +0.000 A 
ATOM      7  N   UNL     1       1.008  13.411  21.475  0.00  0.00    +0.000 NA
ATOM      8  C   UNL     1      -2.527  12.575  20.746  0.00  0.00    +0.000 A 
ATOM      9  C   UNL     1      -2.305  11.941  19.516  0.00  0.00    +0.000 A 
ATOM     10  C   UNL     1      -3.338  11.779  18.616  0.00  0.00    +0.000 A 
ATOM     11  C   UNL     1      -4.608  12.132  19.031  0.00  0.00    +0.000 A 
ATOM     12  C   UNL     1      -5.788  11.956  18.191  0.00  0.00    +0.000 A 
ATOM     13  C   UNL     1      -6.471  10.924  18.707  0.00  0.00    +0.000 A 
ATOM     14  C   UNL     1      -6.929  11.270  20.128  0.00  0.00    +0.000 A 
ATOM     15  O   UNL     1      -7.917  10.670  20.500  0.00  0.00    +0.000 OA
ATOM     16  N   UNL     1      -6.193  12.231  20.835  0.00  0.00    +0.000 N 
ATOM     17  C   UNL     1      -4.826  12.444  20.375  0.00  0.00    +0.000 A 
ATOM     18  N   UNL     1      -3.800  12.756  21.208  0.00  0.00    +0.000 NA
ENDROOT
BRANCH  12  19
ATOM     19  C   UNL     1      -6.548  13.218  17.827  0.00  0.00    +0.000 C 
ATOM     20  F   UNL     1      -7.896  13.071  17.924  0.00  0.00    +0.000 F 
ATOM     21  F   UNL     1      -6.209  14.262  18.617  0.00  0.00    +0.000 F 
ATOM     22  F   UNL     1      -6.304  13.604  16.545  0.00  0.00    +0.000 F 
ENDBRANCH  12  19
BRANCH   1  24
ATOM     23  C   UNL     1      -1.638  14.282  23.573  0.00  0.00    +0.000 C 
ATOM     24  C   UNL     1      -1.403  12.938  22.896  0.00  0.00    +0.000 C 
ENDBRANCH   1  24
BRANCH   5  25
ATOM     25  C   UNL     1       3.469  14.504  18.848  0.00  0.00    +0.000 C 
ATOM     26  O   UNL     1       4.373  15.090  19.418  0.00  0.00    +0.000 OA
BRANCH  25  27
ATOM     27  O   UNL     1       3.569  14.061  17.577  0.00  0.00    +0.000 OA
ATOM     28  H   UNL     1       4.154  13.297  17.428  0.00  0.00    +0.000 HD
ENDBRANCH  25  27
ENDBRANCH   5  25
BRANCH  16  29
ATOM     29  C   UNL     1      -6.474  12.624  22.226  0.00  0.00    +0.000 C 
BRANCH  29  30
ATOM     30  C   UNL     1      -7.598  13.593  22.743  0.00  0.00    +0.000 C 
ATOM     31  C   UNL     1      -7.696  13.747  24.271  0.00  0.00    +0.000 C 
ATOM     32  C   UNL     1      -7.873  14.948  22.098  0.00  0.00    +0.000 C 
ENDBRANCH  29  30
ENDBRANCH  16  29
TORSDOF 6
ENDMDL
MODEL 6
REMARK VINA RESULT:      -6.7      6.875      8.211
REMARK  Name = 
REMARK  9 active torsions:
REMARK  status: ('A' for Active; 'I' for Inactive)
REMARK    1  A    between atoms: C_1  and  C_2
REMARK    2  A    between atoms: C_2  and  N_3
REMARK    3  A    between atoms: C_7  and  C_8
REMARK    4  A    between atoms: C_8  and  O_10
REMARK    5  A    between atoms: C_17  and  C_18
REMARK    6  A    between atoms: N_25  and  C_26
REMARK    7  A    between atoms: C_26  and  C_27
REMARK    8  A    between atoms: C_27  and  C_28
REMARK    9  A    between atoms: C_27  and  C_29
REMARK                            x       y       z     vdW  Elec       q    Type
REMARK                         _______ _______ _______ _____ _____    ______ ____
ROOT
ATOM      1  N   UNL     1      -1.290  12.954  21.319  0.00  0.00    +0.000 N 
ATOM      2  C   UNL     1      -0.102  13.428  20.706  0.00  0.00    +0.000 A 
ATOM      3  C   UNL     1      -0.172  14.040  19.441  0.00  0.00    +0.000 A 
ATOM      4  C   UNL     1       0.978  14.379  18.727  0.00  0.00    +0.000 A 
ATOM      5  C   UNL     1       2.214  14.164  19.316  0.00  0.00    +0.000 A 
ATOM      6  C   UNL     1       2.225  13.609  20.589  0.00  0.00    +0.000 A 
ATOM      7  N   UNL     1       1.106  13.261  21.290  0.00  0.00    +0.000 NA
ATOM      8  C   UNL     1      -2.466  12.519  20.645  0.00  0.00    +0.000 A 
ATOM      9  C   UNL     1      -2.298  11.945  19.378  0.00  0.00    +0.000 A 
ATOM     10  C   UNL     1      -3.364  11.845  18.508  0.00  0.00    +0.000 A 
ATOM     11  C   UNL     1      -4.612  12.197  18.984  0.00  0.00    +0.000 A 
ATOM     12  C   UNL     1      -5.823  12.083  18.179  0.00  0.00    +0.000 A 
ATOM     13  C   UNL     1      -6.506  11.037  18.666  0.00  0.00    +0.000 A 
ATOM     14  C   UNL     1      -6.909  11.319  20.118  0.00  0.00    +0.000 A 
ATOM     15  O   UNL     1      -7.894  10.717  20.494  0.00  0.00    +0.000 OA
ATOM     16  N   UNL     1      -6.133  12.231  20.845  0.00  0.00    +0.000 N 
ATOM     17  C   UNL     1      -4.778  12.445  20.349  0.00  0.00    +0.000 A 
ATOM     18  N   UNL     1      -3.719  12.698  21.159  0.00  0.00    +0.000 NA
ENDROOT
BRANCH  12  19
ATOM     19  C   UNL     1      -6.573  13.374  17.904  0.00  0.00    +0.000 C 
ATOM     20  F   UNL     1      -6.274  13.912  16.693  0.00  0.00    +0.000 F 
ATOM     21  F   UNL     1      -7.914  13.199  17.937  0.00  0.00    +0.000 F 
ATOM     22  F   UNL     1      -6.282  14.334  18.824  0.00  0.00    +0.000 F 
ENDBRANCH  12  19
BRANCH   1  24
ATOM     23  C   UNL     1      -1.141  11.281  23.133  0.00  0.00    +0.000 C 
ATOM     24  C   UNL     1      -1.262  12.756  22.769  0.00  0.00    +0.000 C 
ENDBRANCH   1  24
BRANCH   5  25
ATOM     25  C   UNL     1       3.495  14.444  18.635  0.00  0.00    +0.000 C 
ATOM     26  O   UNL     1       4.534  14.617  19.249  0.00  0.00    +0.000 OA
BRANCH  25  27
ATOM     27  O   UNL     1       3.419  14.505  17.289  0.00  0.00    +0.000 OA
ATOM     28  H   UNL     1       2.859  15.210  16.918  0.00  0.00    +0.000 HD
ENDBRANCH  25  27
ENDBRANCH   5  25
BRANCH  16  29
ATOM     29  C   UNL     1      -6.358  12.557  22.263  0.00  0.00    +0.000 C 
BRANCH  29  30
ATOM     30  C   UNL     1      -6.578  13.979  22.899  0.00  0.00    +0.000 C 
ATOM     31  C   UNL     1      -7.854  14.142  23.742  0.00  0.00    +0.000 C 
ATOM     32  C   UNL     1      -5.451  14.762  23.563  0.00  0.00    +0.000 C 
ENDBRANCH  29  30
ENDBRANCH  16  29
TORSDOF 6
ENDMDL
MODEL 7
REMARK VINA RESULT:      -6.6      7.145     10.913
REMARK  Name = 
REMARK  9 active torsions:
REMARK  status: ('A' for Active; 'I' for Inactive)
REMARK    1  A    between atoms: C_1  and  C_2
REMARK    2  A    between atoms: C_2  and  N_3
REMARK    3  A    between atoms: C_7  and  C_8
REMARK    4  A    between atoms: C_8  and  O_10
REMARK    5  A    between atoms: C_17  and  C_18
REMARK    6  A    between atoms: N_25  and  C_26
REMARK    7  A    between atoms: C_26  and  C_27
REMARK    8  A    between atoms: C_27  and  C_28
REMARK    9  A    between atoms: C_27  and  C_29
REMARK                            x       y       z     vdW  Elec       q    Type
REMARK                         _______ _______ _______ _____ _____    ______ ____
ROOT
ATOM      1  N   UNL     1       5.487  16.035  19.589  0.00  0.00    +0.000 N 
ATOM      2  C   UNL     1       4.112  15.711  19.458  0.00  0.00    +0.000 A 
ATOM      3  C   UNL     1       3.732  14.370  19.268  0.00  0.00    +0.000 A 
ATOM      4  C   UNL     1       2.414  14.018  18.978  0.00  0.00    +0.000 A 
ATOM      5  C   UNL     1       1.451  15.014  18.942  0.00  0.00    +0.000 A 
ATOM      6  C   UNL     1       1.870  16.314  19.192  0.00  0.00    +0.000 A 
ATOM      7  N   UNL     1       3.160  16.671  19.464  0.00  0.00    +0.000 NA
ATOM      8  C   UNL     1       6.577  15.305  19.035  0.00  0.00    +0.000 A 
ATOM      9  C   UNL     1       6.340  14.618  17.837  0.00  0.00    +0.000 A 
ATOM     10  C   UNL     1       7.185  13.604  17.433  0.00  0.00    +0.000 A 
ATOM     11  C   UNL     1       8.333  13.397  18.173  0.00  0.00    +0.000 A 
ATOM     12  C   UNL     1       9.330  12.394  17.815  0.00  0.00    +0.000 A 
ATOM     13  C   UNL     1      10.386  13.064  17.332  0.00  0.00    +0.000 A 
ATOM     14  C   UNL     1      10.969  13.962  18.428  0.00  0.00    +0.000 A 
ATOM     15  O   UNL     1      12.146  14.226  18.291  0.00  0.00    +0.000 OA
ATOM     16  N   UNL     1      10.114  14.370  19.461  0.00  0.00    +0.000 N 
ATOM     17  C   UNL     1       8.688  14.323  19.157  0.00  0.00    +0.000 A 
ATOM     18  N   UNL     1       7.791  15.211  19.655  0.00  0.00    +0.000 NA
ENDROOT
BRANCH  12  19
ATOM     19  C   UNL     1       9.573  11.294  18.832  0.00  0.00    +0.000 C 
ATOM     20  F   UNL     1      10.893  11.082  19.078  0.00  0.00    +0.000 F 
ATOM     21  F   UNL     1       8.990  11.565  20.023  0.00  0.00    +0.000 F 
ATOM     22  F   UNL     1       9.072  10.099  18.416  0.00  0.00    +0.000 F 
ENDBRANCH  12  19
BRANCH   1  24
ATOM     23  C   UNL     1       5.763  17.212  21.745  0.00  0.00    +0.000 C 
ATOM     24  C   UNL     1       5.817  17.311  20.226  0.00  0.00    +0.000 C 
ENDBRANCH   1  24
BRANCH   5  25
ATOM     25  C   UNL     1       0.035  14.761  18.602  0.00  0.00    +0.000 C 
ATOM     26  O   UNL     1      -0.374  13.654  18.301  0.00  0.00    +0.000 OA
BRANCH  25  27
ATOM     27  O   UNL     1      -0.759  15.852  18.640  0.00  0.00    +0.000 OA
ATOM     28  H   UNL     1      -1.525  15.852  18.038  0.00  0.00    +0.000 HD
ENDBRANCH  25  27
ENDBRANCH   5  25
BRANCH  16  29
ATOM     29  C   UNL     1      10.511  15.280  20.548  0.00  0.00    +0.000 C 
BRANCH  29  30
ATOM     30  C   UNL     1      10.903  16.798  20.435  0.00  0.00    +0.000 C 
ATOM     31  C   UNL     1      12.323  17.158  20.906  0.00  0.00    +0.000 C 
ATOM     32  C   UNL     1      10.567  17.643  19.210  0.00  0.00    +0.000 C 
ENDBRANCH  29  30
ENDBRANCH  16  29
TORSDOF 6
ENDMDL
MODEL 8
REMARK VINA RESULT:      -6.5      0.972      1.426
REMARK  Name = 
REMARK  9 active torsions:
REMARK  status: ('A' for Active; 'I' for Inactive)
REMARK    1  A    between atoms: C_1  and  C_2
REMARK    2  A    between atoms: C_2  and  N_3
REMARK    3  A    between atoms: C_7  and  C_8
REMARK    4  A    between atoms: C_8  and  O_10
REMARK    5  A    between atoms: C_17  and  C_18
REMARK    6  A    between atoms: N_25  and  C_26
REMARK    7  A    between atoms: C_26  and  C_27
REMARK    8  A    between atoms: C_27  and  C_28
REMARK    9  A    between atoms: C_27  and  C_29
REMARK                            x       y       z     vdW  Elec       q    Type
REMARK                         _______ _______ _______ _____ _____    ______ ____
ROOT
ATOM      1  N   UNL     1       2.484   6.723  19.794  0.00  0.00    +0.000 N 
ATOM      2  C   UNL     1       3.604   6.130  19.158  0.00  0.00    +0.000 A 
ATOM      3  C   UNL     1       4.468   6.930  18.388  0.00  0.00    +0.000 A 
ATOM      4  C   UNL     1       5.489   6.373  17.617  0.00  0.00    +0.000 A 
ATOM      5  C   UNL     1       5.690   5.003  17.669  0.00  0.00    +0.000 A 
ATOM      6  C   UNL     1       4.845   4.266  18.489  0.00  0.00    +0.000 A 
ATOM      7  N   UNL     1       3.834   4.799  19.236  0.00  0.00    +0.000 NA
ATOM      8  C   UNL     1       1.790   7.887  19.356  0.00  0.00    +0.000 A 
ATOM      9  C   UNL     1       1.767   8.134  17.977  0.00  0.00    +0.000 A 
ATOM     10  C   UNL     1       1.464   9.391  17.496  0.00  0.00    +0.000 A 
ATOM     11  C   UNL     1       1.051  10.341  18.409  0.00  0.00    +0.000 A 
ATOM     12  C   UNL     1       0.650  11.688  18.017  0.00  0.00    +0.000 A 
ATOM     13  C   UNL     1      -0.684  11.740  18.144  0.00  0.00    +0.000 A 
ATOM     14  C   UNL     1      -1.068  11.524  19.611  0.00  0.00    +0.000 A 
ATOM     15  O   UNL     1      -2.133  12.011  19.931  0.00  0.00    +0.000 OA
ATOM     16  N   UNL     1      -0.172  10.816  20.423  0.00  0.00    +0.000 N 
ATOM     17  C   UNL     1       0.771   9.952  19.721  0.00  0.00    +0.000 A 
ATOM     18  N   UNL     1       1.217   8.773  20.224  0.00  0.00    +0.000 NA
ENDROOT
BRANCH  12  19
ATOM     19  C   UNL     1       1.476  12.828  18.583  0.00  0.00    +0.000 C 
ATOM     20  F   UNL     1       0.717  13.864  19.025  0.00  0.00    +0.000 F 
ATOM     21  F   UNL     1       2.243  12.431  19.625  0.00  0.00    +0.000 F 
ATOM     22  F   UNL     1       2.322  13.351  17.655  0.00  0.00    +0.000 F 
ENDBRANCH  12  19
BRANCH   1  24
ATOM     23  C   UNL     1       1.047   4.823  20.451  0.00  0.00    +0.000 C 
ATOM     24  C   UNL     1       1.892   6.000  20.921  0.00  0.00    +0.000 C 
ENDBRANCH   1  24
BRANCH   5  25
ATOM     25  C   UNL     1       6.711   4.302  16.863  0.00  0.00    +0.000 C 
ATOM     26  O   UNL     1       7.904   4.491  17.017  0.00  0.00    +0.000 OA
BRANCH  25  27
ATOM     27  O   UNL     1       6.215   3.451  15.939  0.00  0.00    +0.000 OA
ATOM     28  H   UNL     1       6.183   3.778  15.022  0.00  0.00    +0.000 HD
ENDBRANCH  25  27
ENDBRANCH   5  25
BRANCH  16  29
ATOM     29  C   UNL     1      -0.428  10.477  21.833  0.00  0.00    +0.000 C 
BRANCH  29  30
ATOM     30  C   UNL     1      -0.990  11.418  22.961  0.00  0.00    +0.000 C 
ATOM     31  C   UNL     1      -0.580  12.897  22.862  0.00  0.00    +0.000 C 
ATOM     32  C   UNL     1      -2.435  11.344  23.444  0.00  0.00    +0.000 C 
ENDBRANCH  29  30
ENDBRANCH  16  29
TORSDOF 6
ENDMDL
MODEL 9
REMARK VINA RESULT:      -6.4      7.143     10.935
REMARK  Name = 
REMARK  9 active torsions:
REMARK  status: ('A' for Active; 'I' for Inactive)
REMARK    1  A    between atoms: C_1  and  C_2
REMARK    2  A    between atoms: C_2  and  N_3
REMARK    3  A    between atoms: C_7  and  C_8
REMARK    4  A    between atoms: C_8  and  O_10
REMARK    5  A    between atoms: C_17  and  C_18
REMARK    6  A    between atoms: N_25  and  C_26
REMARK    7  A    between atoms: C_26  and  C_27
REMARK    8  A    between atoms: C_27  and  C_28
REMARK    9  A    between atoms: C_27  and  C_29
REMARK                            x       y       z     vdW  Elec       q    Type
REMARK                         _______ _______ _______ _____ _____    ______ ____
ROOT
ATOM      1  N   UNL     1       5.712  15.896  20.030  0.00  0.00    +0.000 N 
ATOM      2  C   UNL     1       4.324  15.712  19.802  0.00  0.00    +0.000 A 
ATOM      3  C   UNL     1       3.856  14.461  19.358  0.00  0.00    +0.000 A 
ATOM      4  C   UNL     1       2.529  14.272  18.969  0.00  0.00    +0.000 A 
ATOM      5  C   UNL     1       1.644  15.332  19.089  0.00  0.00    +0.000 A 
ATOM      6  C   UNL     1       2.145  16.528  19.585  0.00  0.00    +0.000 A 
ATOM      7  N   UNL     1       3.445  16.727  19.955  0.00  0.00    +0.000 NA
ATOM      8  C   UNL     1       6.769  15.194  19.384  0.00  0.00    +0.000 A 
ATOM      9  C   UNL     1       6.535  14.755  18.075  0.00  0.00    +0.000 A 
ATOM     10  C   UNL     1       7.320  13.767  17.517  0.00  0.00    +0.000 A 
ATOM     11  C   UNL     1       8.418  13.339  18.240  0.00  0.00    +0.000 A 
ATOM     12  C   UNL     1       9.354  12.341  17.733  0.00  0.00    +0.000 A 
ATOM     13  C   UNL     1      10.475  13.001  17.412  0.00  0.00    +0.000 A 
ATOM     14  C   UNL     1      11.074  13.639  18.671  0.00  0.00    +0.000 A 
ATOM     15  O   UNL     1      12.272  13.828  18.620  0.00  0.00    +0.000 OA
ATOM     16  N   UNL     1      10.207  13.920  19.735  0.00  0.00    +0.000 N 
ATOM     17  C   UNL     1       8.796  14.041  19.387  0.00  0.00    +0.000 A 
ATOM     18  N   UNL     1       7.945  14.894  20.012  0.00  0.00    +0.000 NA
ENDROOT
BRANCH  12  19
ATOM     19  C   UNL     1       9.472  11.060  18.539  0.00  0.00    +0.000 C 
ATOM     20  F   UNL     1       8.935   9.985  17.904  0.00  0.00    +0.000 F 
ATOM     21  F   UNL     1      10.759  10.751  18.815  0.00  0.00    +0.000 F 
ATOM     22  F   UNL     1       8.828  11.152  19.734  0.00  0.00    +0.000 F 
ENDBRANCH  12  19
BRANCH   1  24
ATOM     23  C   UNL     1       6.854  18.087  20.128  0.00  0.00    +0.000 C 
ATOM     24  C   UNL     1       6.106  17.006  20.899  0.00  0.00    +0.000 C 
ENDBRANCH   1  24
BRANCH   5  25
ATOM     25  C   UNL     1       0.230  15.258  18.666  0.00  0.00    +0.000 C 
ATOM     26  O   UNL     1      -0.456  16.253  18.511  0.00  0.00    +0.000 OA
BRANCH  25  27
ATOM     27  O   UNL     1      -0.240  14.006  18.481  0.00  0.00    +0.000 OA
ATOM     28  H   UNL     1      -1.207  13.894  18.533  0.00  0.00    +0.000 HD
ENDBRANCH  25  27
ENDBRANCH   5  25
BRANCH  16  29
ATOM     29  C   UNL     1      10.621  14.584  20.982  0.00  0.00    +0.000 C 
BRANCH  29  30
ATOM     30  C   UNL     1      11.180  16.044  21.153  0.00  0.00    +0.000 C 
ATOM     31  C   UNL     1      10.871  17.016  20.002  0.00  0.00    +0.000 C 
ATOM     32  C   UNL     1      11.091  16.806  22.472  0.00  0.00    +0.000 C 
ENDBRANCH  29  30
ENDBRANCH  16  29
TORSDOF 6
ENDMDL
