MODEL 1
REMARK VINA RESULT:      -7.5      0.000      0.000
REMARK  Name = 
REMARK  3 active torsions:
REMARK  status: ('A' for Active; 'I' for Inactive)
REMARK    1  A    between atoms: C_1  and  C_2
REMARK    2  A    between atoms: C_2  and  N_3
REMARK    3  A    between atoms: C_10  and  C_11
REMARK                            x       y       z     vdW  Elec       q    Type
REMARK                         _______ _______ _______ _____ _____    ______ ____
ROOT
ATOM      1  N   UNL     1       3.148   3.202  19.214  0.00  0.00    +0.000 NA
ATOM      2  C   UNL     1       3.760   3.006  17.916  0.00  0.00    +0.000 C 
ATOM      3  C   UNL     1       3.771   4.386  17.244  0.00  0.00    +0.000 C 
ATOM      4  C   UNL     1       4.865   4.304  16.172  0.00  0.00    +0.000 C 
ATOM      5  C   UNL     1       5.310   5.672  15.749  0.00  0.00    +0.000 C 
ATOM      6  C   UNL     1       5.984   6.368  16.922  0.00  0.00    +0.000 C 
ATOM      7  C   UNL     1       5.359   6.121  18.316  0.00  0.00    +0.000 C 
ATOM      8  C   UNL     1       3.954   5.435  18.394  0.00  0.00    +0.000 C 
ATOM      9  C   UNL     1       3.746   4.482  19.658  0.00  0.00    +0.000 C 
ENDROOT
BRANCH   8  10
ATOM     10  C   UNL     1       2.909   6.556  18.646  0.00  0.00    +0.000 A 
ATOM     11  C   UNL     1       2.648   7.453  17.577  0.00  0.00    +0.000 A 
ATOM     12  C   UNL     1       2.054   8.692  17.767  0.00  0.00    +0.000 A 
ATOM     13  C   UNL     1       1.619   9.039  19.045  0.00  0.00    +0.000 A 
ATOM     14 CL   UNL     1       1.065  10.658  19.281  0.00  0.00    +0.000 Cl
ATOM     15  C   UNL     1       1.698   8.095  20.082  0.00  0.00    +0.000 A 
ATOM     16 CL   UNL     1       1.077   8.435  21.659  0.00  0.00    +0.000 Cl
ATOM     17  C   UNL     1       2.332   6.854  19.879  0.00  0.00    +0.000 A 
ENDBRANCH   8  10
BRANCH   1  19
ATOM     18  C   UNL     1       1.040   3.431  20.519  0.00  0.00    +0.000 C 
ATOM     19  C   UNL     1       1.670   3.211  19.145  0.00  0.00    +0.000 C 
ENDBRANCH   1  19
TORSDOF 2
ENDMDL
MODEL 2
REMARK VINA RESULT:      -7.4      1.456      3.739
REMARK  Name = 
REMARK  3 active torsions:
REMARK  status: ('A' for Active; 'I' for Inactive)
REMARK    1  A    between atoms: C_1  and  C_2
REMARK    2  A    between atoms: C_2  and  N_3
REMARK    3  A    between atoms: C_10  and  C_11
REMARK                            x       y       z     vdW  Elec       q    Type
REMARK                         _______ _______ _______ _____ _____    ______ ____
ROOT
ATOM      1  N   UNL     1       5.387   4.576  18.183  0.00  0.00    +0.000 NA
ATOM      2  C   UNL     1       4.907   3.378  18.842  0.00  0.00    +0.000 C 
ATOM      3  C   UNL     1       3.584   3.770  19.515  0.00  0.00    +0.000 C 
ATOM      4  C   UNL     1       2.830   2.451  19.721  0.00  0.00    +0.000 C 
ATOM      5  C   UNL     1       1.366   2.695  19.938  0.00  0.00    +0.000 C 
ATOM      6  C   UNL     1       0.759   3.282  18.672  0.00  0.00    +0.000 C 
ATOM      7  C   UNL     1       1.637   4.295  17.899  0.00  0.00    +0.000 C 
ATOM      8  C   UNL     1       2.924   4.853  18.594  0.00  0.00    +0.000 C 
ATOM      9  C   UNL     1       4.145   5.141  17.606  0.00  0.00    +0.000 C 
ENDROOT
BRANCH   8  10
ATOM     10  C   UNL     1       2.582   6.272  19.124  0.00  0.00    +0.000 A 
ATOM     11  C   UNL     1       2.035   6.364  20.431  0.00  0.00    +0.000 A 
ATOM     12  C   UNL     1       1.342   7.480  20.876  0.00  0.00    +0.000 A 
ATOM     13  C   UNL     1       1.250   8.592  20.040  0.00  0.00    +0.000 A 
ATOM     14 CL   UNL     1       0.220   9.882  20.547  0.00  0.00    +0.000 Cl
ATOM     15  C   UNL     1       1.939   8.594  18.816  0.00  0.00    +0.000 A 
ATOM     16 CL   UNL     1       1.946   9.984  17.789  0.00  0.00    +0.000 Cl
ATOM     17  C   UNL     1       2.612   7.441  18.365  0.00  0.00    +0.000 A 
ENDBRANCH   8  10
BRANCH   1  19
ATOM     18  C   UNL     1       7.576   5.614  18.754  0.00  0.00    +0.000 C 
ATOM     19  C   UNL     1       6.096   5.484  19.110  0.00  0.00    +0.000 C 
ENDBRANCH   1  19
TORSDOF 2
ENDMDL
MODEL 3
REMARK VINA RESULT:      -7.3      1.300      3.858
REMARK  Name = 
REMARK  3 active torsions:
REMARK  status: ('A' for Active; 'I' for Inactive)
REMARK    1  A    between atoms: C_1  and  C_2
REMARK    2  A    between atoms: C_2  and  N_3
REMARK    3  A    between atoms: C_10  and  C_11
REMARK                            x       y       z     vdW  Elec       q    Type
REMARK                         _______ _______ _______ _____ _____    ______ ____
ROOT
ATOM      1  N   UNL     1       4.170   4.296  17.312  0.00  0.00    +0.000 NA
ATOM      2  C   UNL     1       4.391   3.290  18.331  0.00  0.00    +0.000 C 
ATOM      3  C   UNL     1       3.716   3.824  19.602  0.00  0.00    +0.000 C 
ATOM      4  C   UNL     1       3.465   2.589  20.476  0.00  0.00    +0.000 C 
ATOM      5  C   UNL     1       2.426   2.869  21.519  0.00  0.00    +0.000 C 
ATOM      6  C   UNL     1       1.088   3.129  20.843  0.00  0.00    +0.000 C 
ATOM      7  C   UNL     1       1.135   3.930  19.520  0.00  0.00    +0.000 C 
ATOM      8  C   UNL     1       2.470   4.648  19.127  0.00  0.00    +0.000 C 
ATOM      9  C   UNL     1       2.765   4.697  17.559  0.00  0.00    +0.000 C 
ENDROOT
BRANCH   8  10
ATOM     10  C   UNL     1       2.305   6.151  19.482  0.00  0.00    +0.000 A 
ATOM     11  C   UNL     1       1.823   6.464  20.780  0.00  0.00    +0.000 A 
ATOM     12  C   UNL     1       1.274   7.697  21.099  0.00  0.00    +0.000 A 
ATOM     13  C   UNL     1       1.270   8.701  20.132  0.00  0.00    +0.000 A 
ATOM     14 CL   UNL     1       0.408  10.152  20.498  0.00  0.00    +0.000 Cl
ATOM     15  C   UNL     1       1.908   8.475  18.901  0.00  0.00    +0.000 A 
ATOM     16 CL   UNL     1       2.025   9.720  17.706  0.00  0.00    +0.000 Cl
ATOM     17  C   UNL     1       2.432   7.208  18.582  0.00  0.00    +0.000 A 
ENDBRANCH   8  10
BRANCH   1  19
ATOM     18  C   UNL     1       5.116   6.279  16.142  0.00  0.00    +0.000 C 
ATOM     19  C   UNL     1       5.144   5.405  17.395  0.00  0.00    +0.000 C 
ENDBRANCH   1  19
TORSDOF 2
ENDMDL
MODEL 4
REMARK VINA RESULT:      -7.1      3.701      5.733
REMARK  Name = 
REMARK  3 active torsions:
REMARK  status: ('A' for Active; 'I' for Inactive)
REMARK    1  A    between atoms: C_1  and  C_2
REMARK    2  A    between atoms: C_2  and  N_3
REMARK    3  A    between atoms: C_10  and  C_11
REMARK                            x       y       z     vdW  Elec       q    Type
REMARK                         _______ _______ _______ _____ _____    ______ ____
ROOT
ATOM      1  N   UNL     1       3.518   6.506  18.925  0.00  0.00    +0.000 NA
ATOM      2  C   UNL     1       2.300   5.722  18.911  0.00  0.00    +0.000 C 
ATOM      3  C   UNL     1       2.599   4.497  18.035  0.00  0.00    +0.000 C 
ATOM      4  C   UNL     1       1.568   3.441  18.454  0.00  0.00    +0.000 C 
ATOM      5  C   UNL     1       2.003   2.068  18.036  0.00  0.00    +0.000 C 
ATOM      6  C   UNL     1       3.264   1.685  18.795  0.00  0.00    +0.000 C 
ATOM      7  C   UNL     1       4.293   2.817  19.030  0.00  0.00    +0.000 C 
ATOM      8  C   UNL     1       4.115   4.162  18.248  0.00  0.00    +0.000 C 
ATOM      9  C   UNL     1       4.565   5.465  19.052  0.00  0.00    +0.000 C 
ENDROOT
BRANCH   8  10
ATOM     10  C   UNL     1       5.117   4.140  17.061  0.00  0.00    +0.000 A 
ATOM     11  C   UNL     1       6.409   4.681  17.291  0.00  0.00    +0.000 A 
ATOM     12  C   UNL     1       7.252   5.073  16.261  0.00  0.00    +0.000 A 
ATOM     13  C   UNL     1       6.851   4.851  14.945  0.00  0.00    +0.000 A 
ATOM     14 CL   UNL     1       7.832   5.525  13.693  0.00  0.00    +0.000 Cl
ATOM     15  C   UNL     1       5.660   4.150  14.694  0.00  0.00    +0.000 A 
ATOM     16 CL   UNL     1       5.169   3.755  13.084  0.00  0.00    +0.000 Cl
ATOM     17  C   UNL     1       4.801   3.787  15.750  0.00  0.00    +0.000 A 
ENDBRANCH   8  10
BRANCH   1  19
ATOM     18  C   UNL     1       2.514   8.377  17.627  0.00  0.00    +0.000 C 
ATOM     19  C   UNL     1       3.651   7.362  17.726  0.00  0.00    +0.000 C 
ENDBRANCH   1  19
TORSDOF 2
ENDMDL
MODEL 5
REMARK VINA RESULT:      -6.8      1.528      3.780
REMARK  Name = 
REMARK  3 active torsions:
REMARK  status: ('A' for Active; 'I' for Inactive)
REMARK    1  A    between atoms: C_1  and  C_2
REMARK    2  A    between atoms: C_2  and  N_3
REMARK    3  A    between atoms: C_10  and  C_11
REMARK                            x       y       z     vdW  Elec       q    Type
REMARK                         _______ _______ _______ _____ _____    ______ ____
ROOT
ATOM      1  N   UNL     1       5.929   5.543  17.289  0.00  0.00    +0.000 NA
ATOM      2  C   UNL     1       5.846   4.276  17.985  0.00  0.00    +0.000 C 
ATOM      3  C   UNL     1       4.603   4.368  18.880  0.00  0.00    +0.000 C 
ATOM      4  C   UNL     1       4.206   2.916  19.173  0.00  0.00    +0.000 C 
ATOM      5  C   UNL     1       2.784   2.828  19.637  0.00  0.00    +0.000 C 
ATOM      6  C   UNL     1       1.857   3.250  18.507  0.00  0.00    +0.000 C 
ATOM      7  C   UNL     1       2.343   4.426  17.626  0.00  0.00    +0.000 C 
ATOM      8  C   UNL     1       3.572   5.266  18.112  0.00  0.00    +0.000 C 
ATOM      9  C   UNL     1       4.514   5.809  16.942  0.00  0.00    +0.000 C 
ENDROOT
BRANCH   8  10
ATOM     10  C   UNL     1       3.017   6.578  18.730  0.00  0.00    +0.000 A 
ATOM     11  C   UNL     1       2.457   6.497  20.032  0.00  0.00    +0.000 A 
ATOM     12  C   UNL     1       1.603   7.464  20.541  0.00  0.00    +0.000 A 
ATOM     13  C   UNL     1       1.345   8.602  19.779  0.00  0.00    +0.000 A 
ATOM     14 CL   UNL     1       0.130   9.685  20.357  0.00  0.00    +0.000 Cl
ATOM     15  C   UNL     1       2.031   8.791  18.568  0.00  0.00    +0.000 A 
ATOM     16 CL   UNL     1       1.830  10.233  17.636  0.00  0.00    +0.000 Cl
ATOM     17  C   UNL     1       2.872   7.787  18.051  0.00  0.00    +0.000 A 
ENDBRANCH   8  10
BRANCH   1  19
ATOM     18  C   UNL     1       7.491   7.482  17.276  0.00  0.00    +0.000 C 
ATOM     19  C   UNL     1       6.565   6.597  18.109  0.00  0.00    +0.000 C 
ENDBRANCH   1  19
TORSDOF 2
ENDMDL
MODEL 6
REMARK VINA RESULT:      -6.7      3.082      5.048
REMARK  Name = 
REMARK  3 active torsions:
REMARK  status: ('A' for Active; 'I' for Inactive)
REMARK    1  A    between atoms: C_1  and  C_2
REMARK    2  A    between atoms: C_2  and  N_3
REMARK    3  A    between atoms: C_10  and  C_11
REMARK                            x       y       z     vdW  Elec       q    Type
REMARK                         _______ _______ _______ _____ _____    ______ ____
ROOT
ATOM      1  N   UNL     1       2.495   5.962  20.264  0.00  0.00    +0.000 NA
ATOM      2  C   UNL     1       1.500   4.939  20.017  0.00  0.00    +0.000 C 
ATOM      3  C   UNL     1       1.986   4.168  18.782  0.00  0.00    +0.000 C 
ATOM      4  C   UNL     1       1.280   2.808  18.850  0.00  0.00    +0.000 C 
ATOM      5  C   UNL     1       1.980   1.794  17.996  0.00  0.00    +0.000 C 
ATOM      6  C   UNL     1       3.367   1.527  18.563  0.00  0.00    +0.000 C 
ATOM      7  C   UNL     1       4.120   2.751  19.135  0.00  0.00    +0.000 C 
ATOM      8  C   UNL     1       3.553   4.182  18.842  0.00  0.00    +0.000 C 
ATOM      9  C   UNL     1       3.764   5.237  20.021  0.00  0.00    +0.000 C 
ENDROOT
BRANCH   8  10
ATOM     10  C   UNL     1       4.406   4.788  17.695  0.00  0.00    +0.000 A 
ATOM     11  C   UNL     1       4.310   4.173  16.419  0.00  0.00    +0.000 A 
ATOM     12  C   UNL     1       5.266   4.349  15.429  0.00  0.00    +0.000 A 
ATOM     13  C   UNL     1       6.321   5.228  15.663  0.00  0.00    +0.000 A 
ATOM     14 CL   UNL     1       7.590   5.272  14.492  0.00  0.00    +0.000 Cl
ATOM     15  C   UNL     1       6.339   5.987  16.844  0.00  0.00    +0.000 A 
ATOM     16 CL   UNL     1       7.566   7.169  17.138  0.00  0.00    +0.000 Cl
ATOM     17  C   UNL     1       5.377   5.775  17.852  0.00  0.00    +0.000 A 
ENDBRANCH   8  10
BRANCH   1  19
ATOM     18  C   UNL     1       1.588   8.278  20.161  0.00  0.00    +0.000 C 
ATOM     19  C   UNL     1       2.301   7.154  19.410  0.00  0.00    +0.000 C 
ENDBRANCH   1  19
TORSDOF 2
ENDMDL
MODEL 7
REMARK VINA RESULT:      -6.6      1.130      3.531
REMARK  Name = 
REMARK  3 active torsions:
REMARK  status: ('A' for Active; 'I' for Inactive)
REMARK    1  A    between atoms: C_1  and  C_2
REMARK    2  A    between atoms: C_2  and  N_3
REMARK    3  A    between atoms: C_10  and  C_11
REMARK                            x       y       z     vdW  Elec       q    Type
REMARK                         _______ _______ _______ _____ _____    ______ ____
ROOT
ATOM      1  N   UNL     1       5.013   4.607  17.935  0.00  0.00    +0.000 NA
ATOM      2  C   UNL     1       4.924   3.649  19.018  0.00  0.00    +0.000 C 
ATOM      3  C   UNL     1       3.675   4.038  19.822  0.00  0.00    +0.000 C 
ATOM      4  C   UNL     1       3.274   2.769  20.584  0.00  0.00    +0.000 C 
ATOM      5  C   UNL     1       1.848   2.843  21.042  0.00  0.00    +0.000 C 
ATOM      6  C   UNL     1       0.929   2.861  19.830  0.00  0.00    +0.000 C 
ATOM      7  C   UNL     1       1.423   3.670  18.607  0.00  0.00    +0.000 C 
ATOM      8  C   UNL     1       2.651   4.624  18.789  0.00  0.00    +0.000 C 
ATOM      9  C   UNL     1       3.600   4.741  17.511  0.00  0.00    +0.000 C 
ENDROOT
BRANCH   8  10
ATOM     10  C   UNL     1       2.095   6.068  18.926  0.00  0.00    +0.000 A 
ATOM     11  C   UNL     1       2.076   6.871  17.754  0.00  0.00    +0.000 A 
ATOM     12  C   UNL     1       1.977   8.253  17.795  0.00  0.00    +0.000 A 
ATOM     13  C   UNL     1       1.806   8.878  19.030  0.00  0.00    +0.000 A 
ATOM     14 CL   UNL     1       1.882  10.604  19.062  0.00  0.00    +0.000 Cl
ATOM     15  C   UNL     1       1.637   8.095  20.183  0.00  0.00    +0.000 A 
ATOM     16 CL   UNL     1       1.316   8.814  21.722  0.00  0.00    +0.000 Cl
ATOM     17  C   UNL     1       1.771   6.693  20.128  0.00  0.00    +0.000 A 
ENDBRANCH   8  10
BRANCH   1  19
ATOM     18  C   UNL     1       5.835   6.832  17.180  0.00  0.00    +0.000 C 
ATOM     19  C   UNL     1       5.647   5.875  18.356  0.00  0.00    +0.000 C 
ENDBRANCH   1  19
TORSDOF 2
ENDMDL
MODEL 8
REMARK VINA RESULT:      -6.6      0.938      1.727
REMARK  Name = 
REMARK  3 active torsions:
REMARK  status: ('A' for Active; 'I' for Inactive)
REMARK    1  A    between atoms: C_1  and  C_2
REMARK    2  A    between atoms: C_2  and  N_3
REMARK    3  A    between atoms: C_10  and  C_11
REMARK                            x       y       z     vdW  Elec       q    Type
REMARK                         _______ _______ _______ _____ _____    ______ ____
ROOT
ATOM      1  N   UNL     1       2.728   2.850  18.750  0.00  0.00    +0.000 NA
ATOM      2  C   UNL     1       3.348   2.801  17.441  0.00  0.00    +0.000 C 
ATOM      3  C   UNL     1       3.769   4.241  17.121  0.00  0.00    +0.000 C 
ATOM      4  C   UNL     1       4.868   4.114  16.058  0.00  0.00    +0.000 C 
ATOM      5  C   UNL     1       5.687   5.368  15.977  0.00  0.00    +0.000 C 
ATOM      6  C   UNL     1       6.446   5.561  17.281  0.00  0.00    +0.000 C 
ATOM      7  C   UNL     1       5.690   5.178  18.576  0.00  0.00    +0.000 C 
ATOM      8  C   UNL     1       4.150   4.904  18.490  0.00  0.00    +0.000 C 
ATOM      9  C   UNL     1       3.616   3.778  19.487  0.00  0.00    +0.000 C 
ENDROOT
BRANCH   8  10
ATOM     10  C   UNL     1       3.427   6.177  19.006  0.00  0.00    +0.000 A 
ATOM     11  C   UNL     1       2.850   6.117  20.302  0.00  0.00    +0.000 A 
ATOM     12  C   UNL     1       1.874   7.005  20.729  0.00  0.00    +0.000 A 
ATOM     13  C   UNL     1       1.500   8.050  19.885  0.00  0.00    +0.000 A 
ATOM     14 CL   UNL     1       0.151   9.014  20.367  0.00  0.00    +0.000 Cl
ATOM     15  C   UNL     1       2.187   8.239  18.675  0.00  0.00    +0.000 A 
ATOM     16 CL   UNL     1       1.838   9.580  17.642  0.00  0.00    +0.000 Cl
ATOM     17  C   UNL     1       3.155   7.311  18.243  0.00  0.00    +0.000 A 
ENDBRANCH   8  10
BRANCH   1  19
ATOM     18  C   UNL     1       0.664   3.287  20.070  0.00  0.00    +0.000 C 
ATOM     19  C   UNL     1       1.314   3.278  18.687  0.00  0.00    +0.000 C 
ENDBRANCH   1  19
TORSDOF 2
ENDMDL
MODEL 9
REMARK VINA RESULT:      -6.5      1.363      3.460
REMARK  Name = 
REMARK  3 active torsions:
REMARK  status: ('A' for Active; 'I' for Inactive)
REMARK    1  A    between atoms: C_1  and  C_2
REMARK    2  A    between atoms: C_2  and  N_3
REMARK    3  A    between atoms: C_10  and  C_11
REMARK                            x       y       z     vdW  Elec       q    Type
REMARK                         _______ _______ _______ _____ _____    ______ ____
ROOT
ATOM      1  N   UNL     1       5.632   5.555  17.208  0.00  0.00    +0.000 NA
ATOM      2  C   UNL     1       5.840   4.504  18.183  0.00  0.00    +0.000 C 
ATOM      3  C   UNL     1       4.614   4.538  19.106  0.00  0.00    +0.000 C 
ATOM      4  C   UNL     1       4.554   3.148  19.750  0.00  0.00    +0.000 C 
ATOM      5  C   UNL     1       3.190   2.870  20.308  0.00  0.00    +0.000 C 
ATOM      6  C   UNL     1       2.184   2.801  19.169  0.00  0.00    +0.000 C 
ATOM      7  C   UNL     1       2.389   3.808  18.012  0.00  0.00    +0.000 C 
ATOM      8  C   UNL     1       3.403   4.983  18.214  0.00  0.00    +0.000 C 
ATOM      9  C   UNL     1       4.191   5.420  16.896  0.00  0.00    +0.000 C 
ENDROOT
BRANCH   8  10
ATOM     10  C   UNL     1       2.574   6.254  18.544  0.00  0.00    +0.000 A 
ATOM     11  C   UNL     1       2.351   7.177  17.489  0.00  0.00    +0.000 A 
ATOM     12  C   UNL     1       1.977   8.494  17.712  0.00  0.00    +0.000 A 
ATOM     13  C   UNL     1       1.729   8.910  19.019  0.00  0.00    +0.000 A 
ATOM     14 CL   UNL     1       1.458  10.597  19.276  0.00  0.00    +0.000 Cl
ATOM     15  C   UNL     1       1.764   7.969  20.061  0.00  0.00    +0.000 A 
ATOM     16 CL   UNL     1       1.361   8.408  21.684  0.00  0.00    +0.000 Cl
ATOM     17  C   UNL     1       2.175   6.643  19.822  0.00  0.00    +0.000 A 
ENDBRANCH   8  10
BRANCH   1  19
ATOM     18  C   UNL     1       7.541   7.033  17.816  0.00  0.00    +0.000 C 
ATOM     19  C   UNL     1       6.023   6.885  17.722  0.00  0.00    +0.000 C 
ENDBRANCH   1  19
TORSDOF 2
ENDMDL
