MODEL 1
REMARK VINA RESULT:      -5.6      0.000      0.000
REMARK  Name = 
REMARK  4 active torsions:
REMARK  status: ('A' for Active; 'I' for Inactive)
REMARK    1  A    between atoms: C_4  and  C_6
REMARK    2  A    between atoms: C_6  and  C_7
REMARK    3  A    between atoms: C_7  and  S_8
REMARK    4  A    between atoms: S_8  and  C_9
REMARK                            x       y       z     vdW  Elec       q    Type
REMARK                         _______ _______ _______ _____ _____    ______ ____
ROOT
ATOM      1  C   UNL     1       3.459   3.926  17.813  0.00  0.00    +0.000 C 
ENDROOT
BRANCH   1   2
ATOM      2  C   UNL     1       1.974   4.045  18.164  0.00  0.00    +0.000 C 
BRANCH   2   6
ATOM      3  F   UNL     1       0.918   4.900  20.679  0.00  0.00    +0.000 F 
ATOM      4  C   UNL     1       1.098   3.579  20.464  0.00  0.00    +0.000 C 
ATOM      5  F   UNL     1       0.804   2.698  21.443  0.00  0.00    +0.000 F 
ATOM      6  C   UNL     1       1.579   3.142  19.294  0.00  0.00    +0.000 C 
ATOM      7  F   UNL     1       1.762   1.810  19.138  0.00  0.00    +0.000 F 
ENDBRANCH   2   6
ENDBRANCH   1   2
BRANCH   1   8
ATOM      8  S   UNL     1       4.415   4.027  19.359  0.00  0.00    +0.000 S 
BRANCH   8   9
ATOM      9  C   UNL     1       5.777   5.018  18.888  0.00  0.00    +0.000 A 
ATOM     10  N   UNL     1       6.826   5.206  19.653  0.00  0.00    +0.000 NA
ATOM     11  C   UNL     1       7.725   6.035  19.007  0.00  0.00    +0.000 A 
ATOM     12  C   UNL     1       7.345   6.466  17.752  0.00  0.00    +0.000 A 
ATOM     13  S   UNL     1       5.810   5.815  17.364  0.00  0.00    +0.000 S 
ENDBRANCH   8   9
ENDBRANCH   1   8
TORSDOF 4
ENDMDL
MODEL 2
REMARK VINA RESULT:      -5.5      1.155      1.193
REMARK  Name = 
REMARK  4 active torsions:
REMARK  status: ('A' for Active; 'I' for Inactive)
REMARK    1  A    between atoms: C_4  and  C_6
REMARK    2  A    between atoms: C_6  and  C_7
REMARK    3  A    between atoms: C_7  and  S_8
REMARK    4  A    between atoms: S_8  and  C_9
REMARK                            x       y       z     vdW  Elec       q    Type
REMARK                         _______ _______ _______ _____ _____    ______ ____
ROOT
ATOM      1  C   UNL     1       2.743   4.982  18.239  0.00  0.00    +0.000 C 
ENDROOT
BRANCH   1   2
ATOM      2  C   UNL     1       1.642   3.943  18.023  0.00  0.00    +0.000 C 
BRANCH   2   6
ATOM      3  F   UNL     1       0.696   4.850  20.563  0.00  0.00    +0.000 F 
ATOM      4  C   UNL     1       0.991   3.542  20.408  0.00  0.00    +0.000 C 
ATOM      5  F   UNL     1       0.861   2.701  21.455  0.00  0.00    +0.000 F 
ATOM      6  C   UNL     1       1.424   3.079  19.229  0.00  0.00    +0.000 C 
ATOM      7  F   UNL     1       1.727   1.763  19.133  0.00  0.00    +0.000 F 
ENDBRANCH   2   6
ENDBRANCH   1   2
BRANCH   1   8
ATOM      8  S   UNL     1       4.075   4.203  19.204  0.00  0.00    +0.000 S 
BRANCH   8   9
ATOM      9  C   UNL     1       5.453   4.375  18.141  0.00  0.00    +0.000 A 
ATOM     10  N   UNL     1       6.683   4.510  18.577  0.00  0.00    +0.000 NA
ATOM     11  C   UNL     1       7.542   4.626  17.500  0.00  0.00    +0.000 A 
ATOM     12  C   UNL     1       6.951   4.575  16.254  0.00  0.00    +0.000 A 
ATOM     13  S   UNL     1       5.260   4.376  16.432  0.00  0.00    +0.000 S 
ENDBRANCH   8   9
ENDBRANCH   1   8
TORSDOF 4
ENDMDL
MODEL 3
REMARK VINA RESULT:      -5.4      2.115      2.271
REMARK  Name = 
REMARK  4 active torsions:
REMARK  status: ('A' for Active; 'I' for Inactive)
REMARK    1  A    between atoms: C_4  and  C_6
REMARK    2  A    between atoms: C_6  and  C_7
REMARK    3  A    between atoms: C_7  and  S_8
REMARK    4  A    between atoms: S_8  and  C_9
REMARK                            x       y       z     vdW  Elec       q    Type
REMARK                         _______ _______ _______ _____ _____    ______ ____
ROOT
ATOM      1  C   UNL     1       2.787   3.454  17.437  0.00  0.00    +0.000 C 
ENDROOT
BRANCH   1   2
ATOM      2  C   UNL     1       1.658   4.166  18.184  0.00  0.00    +0.000 C 
BRANCH   2   6
ATOM      3  F   UNL     1       2.092   4.566  20.981  0.00  0.00    +0.000 F 
ATOM      4  C   UNL     1       1.315   3.536  20.584  0.00  0.00    +0.000 C 
ATOM      5  F   UNL     1       0.785   2.707  21.507  0.00  0.00    +0.000 F 
ATOM      6  C   UNL     1       1.079   3.326  19.283  0.00  0.00    +0.000 C 
ATOM      7  F   UNL     1       0.311   2.266  18.938  0.00  0.00    +0.000 F 
ENDBRANCH   2   6
ENDBRANCH   1   2
BRANCH   1   8
ATOM      8  S   UNL     1       4.362   3.908  18.228  0.00  0.00    +0.000 S 
BRANCH   8   9
ATOM      9  C   UNL     1       5.384   4.249  16.850  0.00  0.00    +0.000 A 
ATOM     10  N   UNL     1       4.959   4.190  15.610  0.00  0.00    +0.000 NA
ATOM     11  C   UNL     1       5.997   4.509  14.753  0.00  0.00    +0.000 A 
ATOM     12  C   UNL     1       7.201   4.809  15.356  0.00  0.00    +0.000 A 
ATOM     13  S   UNL     1       7.034   4.689  17.056  0.00  0.00    +0.000 S 
ENDBRANCH   8   9
ENDBRANCH   1   8
TORSDOF 4
ENDMDL
MODEL 4
REMARK VINA RESULT:      -5.4      1.343      1.460
REMARK  Name = 
REMARK  4 active torsions:
REMARK  status: ('A' for Active; 'I' for Inactive)
REMARK    1  A    between atoms: C_4  and  C_6
REMARK    2  A    between atoms: C_6  and  C_7
REMARK    3  A    between atoms: C_7  and  S_8
REMARK    4  A    between atoms: S_8  and  C_9
REMARK                            x       y       z     vdW  Elec       q    Type
REMARK                         _______ _______ _______ _____ _____    ______ ____
ROOT
ATOM      1  C   UNL     1       1.971   4.119  17.655  0.00  0.00    +0.000 C 
ENDROOT
BRANCH   1   2
ATOM      2  C   UNL     1       1.763   4.649  19.075  0.00  0.00    +0.000 C 
BRANCH   2   6
ATOM      3  F   UNL     1       2.450   4.363  21.835  0.00  0.00    +0.000 F 
ATOM      4  C   UNL     1       1.575   3.493  21.288  0.00  0.00    +0.000 C 
ATOM      5  F   UNL     1       1.067   2.497  22.044  0.00  0.00    +0.000 F 
ATOM      6  C   UNL     1       1.220   3.604  20.003  0.00  0.00    +0.000 C 
ATOM      7  F   UNL     1       0.357   2.691  19.499  0.00  0.00    +0.000 F 
ENDBRANCH   2   6
ENDBRANCH   1   2
BRANCH   1   8
ATOM      8  S   UNL     1       3.460   3.072  17.655  0.00  0.00    +0.000 S 
BRANCH   8   9
ATOM      9  C   UNL     1       4.726   4.228  18.002  0.00  0.00    +0.000 A 
ATOM     10  N   UNL     1       5.493   4.154  19.063  0.00  0.00    +0.000 NA
ATOM     11  C   UNL     1       6.389   5.207  19.057  0.00  0.00    +0.000 A 
ATOM     12  C   UNL     1       6.292   6.070  17.984  0.00  0.00    +0.000 A 
ATOM     13  S   UNL     1       5.035   5.550  16.945  0.00  0.00    +0.000 S 
ENDBRANCH   8   9
ENDBRANCH   1   8
TORSDOF 4
ENDMDL
MODEL 5
REMARK VINA RESULT:      -5.4      1.448      1.888
REMARK  Name = 
REMARK  4 active torsions:
REMARK  status: ('A' for Active; 'I' for Inactive)
REMARK    1  A    between atoms: C_4  and  C_6
REMARK    2  A    between atoms: C_6  and  C_7
REMARK    3  A    between atoms: C_7  and  S_8
REMARK    4  A    between atoms: S_8  and  C_9
REMARK                            x       y       z     vdW  Elec       q    Type
REMARK                         _______ _______ _______ _____ _____    ______ ____
ROOT
ATOM      1  C   UNL     1       2.834   4.295  18.214  0.00  0.00    +0.000 C 
ENDROOT
BRANCH   1   2
ATOM      2  C   UNL     1       1.911   5.022  19.194  0.00  0.00    +0.000 C 
BRANCH   2   6
ATOM      3  F   UNL     1       0.345   2.663  19.585  0.00  0.00    +0.000 F 
ATOM      4  C   UNL     1       1.005   3.188  20.639  0.00  0.00    +0.000 C 
ATOM      5  F   UNL     1       0.891   2.609  21.853  0.00  0.00    +0.000 F 
ATOM      6  C   UNL     1       1.758   4.284  20.491  0.00  0.00    +0.000 C 
ATOM      7  F   UNL     1       2.381   4.783  21.584  0.00  0.00    +0.000 F 
ENDBRANCH   2   6
ENDBRANCH   1   2
BRANCH   1   8
ATOM      8  S   UNL     1       4.318   3.762  19.123  0.00  0.00    +0.000 S 
BRANCH   8   9
ATOM      9  C   UNL     1       5.602   4.165  18.007  0.00  0.00    +0.000 A 
ATOM     10  N   UNL     1       6.828   4.434  18.390  0.00  0.00    +0.000 NA
ATOM     11  C   UNL     1       7.605   4.716  17.281  0.00  0.00    +0.000 A 
ATOM     12  C   UNL     1       6.957   4.655  16.065  0.00  0.00    +0.000 A 
ATOM     13  S   UNL     1       5.316   4.232  16.312  0.00  0.00    +0.000 S 
ENDBRANCH   8   9
ENDBRANCH   1   8
TORSDOF 4
ENDMDL
MODEL 6
REMARK VINA RESULT:      -5.4      1.584      1.685
REMARK  Name = 
REMARK  4 active torsions:
REMARK  status: ('A' for Active; 'I' for Inactive)
REMARK    1  A    between atoms: C_4  and  C_6
REMARK    2  A    between atoms: C_6  and  C_7
REMARK    3  A    between atoms: C_7  and  S_8
REMARK    4  A    between atoms: S_8  and  C_9
REMARK                            x       y       z     vdW  Elec       q    Type
REMARK                         _______ _______ _______ _____ _____    ______ ____
ROOT
ATOM      1  C   UNL     1       2.877   3.991  17.762  0.00  0.00    +0.000 C 
ENDROOT
BRANCH   1   2
ATOM      2  C   UNL     1       1.404   4.174  18.133  0.00  0.00    +0.000 C 
BRANCH   2   6
ATOM      3  F   UNL     1       1.882   4.669  20.908  0.00  0.00    +0.000 F 
ATOM      4  C   UNL     1       1.235   3.539  20.550  0.00  0.00    +0.000 C 
ATOM      5  F   UNL     1       0.853   2.660  21.500  0.00  0.00    +0.000 F 
ATOM      6  C   UNL     1       0.982   3.281  19.262  0.00  0.00    +0.000 C 
ATOM      7  F   UNL     1       0.351   2.124  18.955  0.00  0.00    +0.000 F 
ENDBRANCH   2   6
ENDBRANCH   1   2
BRANCH   1   8
ATOM      8  S   UNL     1       3.671   5.629  17.770  0.00  0.00    +0.000 S 
BRANCH   8   9
ATOM      9  C   UNL     1       5.363   5.222  17.605  0.00  0.00    +0.000 A 
ATOM     10  N   UNL     1       5.905   4.854  16.468  0.00  0.00    +0.000 NA
ATOM     11  C   UNL     1       7.250   4.598  16.660  0.00  0.00    +0.000 A 
ATOM     12  C   UNL     1       7.716   4.779  17.946  0.00  0.00    +0.000 A 
ATOM     13  S   UNL     1       6.427   5.285  18.955  0.00  0.00    +0.000 S 
ENDBRANCH   8   9
ENDBRANCH   1   8
TORSDOF 4
ENDMDL
MODEL 7
REMARK VINA RESULT:      -5.3      1.091      1.532
REMARK  Name = 
REMARK  4 active torsions:
REMARK  status: ('A' for Active; 'I' for Inactive)
REMARK    1  A    between atoms: C_4  and  C_6
REMARK    2  A    between atoms: C_6  and  C_7
REMARK    3  A    between atoms: C_7  and  S_8
REMARK    4  A    between atoms: S_8  and  C_9
REMARK                            x       y       z     vdW  Elec       q    Type
REMARK                         _______ _______ _______ _____ _____    ______ ____
ROOT
ATOM      1  C   UNL     1       3.549   2.735  17.757  0.00  0.00    +0.000 C 
ENDROOT
BRANCH   1   2
ATOM      2  C   UNL     1       2.081   2.598  18.166  0.00  0.00    +0.000 C 
BRANCH   2   6
ATOM      3  F   UNL     1       0.908   2.626  20.772  0.00  0.00    +0.000 F 
ATOM      4  C   UNL     1       1.013   3.788  20.093  0.00  0.00    +0.000 C 
ATOM      5  F   UNL     1       0.540   4.926  20.643  0.00  0.00    +0.000 F 
ATOM      6  C   UNL     1       1.568   3.815  18.876  0.00  0.00    +0.000 C 
ATOM      7  F   UNL     1       1.628   5.002  18.229  0.00  0.00    +0.000 F 
ENDBRANCH   2   6
ENDBRANCH   1   2
BRANCH   1   8
ATOM      8  S   UNL     1       4.501   3.233  19.226  0.00  0.00    +0.000 S 
BRANCH   8   9
ATOM      9  C   UNL     1       5.476   4.546  18.609  0.00  0.00    +0.000 A 
ATOM     10  N   UNL     1       6.684   4.812  19.048  0.00  0.00    +0.000 NA
ATOM     11  C   UNL     1       7.191   5.905  18.369  0.00  0.00    +0.000 A 
ATOM     12  C   UNL     1       6.359   6.456  17.416  0.00  0.00    +0.000 A 
ATOM     13  S   UNL     1       4.888   5.580  17.366  0.00  0.00    +0.000 S 
ENDBRANCH   8   9
ENDBRANCH   1   8
TORSDOF 4
ENDMDL
MODEL 8
REMARK VINA RESULT:      -5.3      4.953      6.612
REMARK  Name = 
REMARK  4 active torsions:
REMARK  status: ('A' for Active; 'I' for Inactive)
REMARK    1  A    between atoms: C_4  and  C_6
REMARK    2  A    between atoms: C_6  and  C_7
REMARK    3  A    between atoms: C_7  and  S_8
REMARK    4  A    between atoms: S_8  and  C_9
REMARK                            x       y       z     vdW  Elec       q    Type
REMARK                         _______ _______ _______ _____ _____    ______ ____
ROOT
ATOM      1  C   UNL     1       5.381   5.123  15.956  0.00  0.00    +0.000 C 
ENDROOT
BRANCH   1   2
ATOM      2  C   UNL     1       5.672   3.938  15.034  0.00  0.00    +0.000 C 
BRANCH   2   6
ATOM      3  F   UNL     1       5.492   2.913  12.371  0.00  0.00    +0.000 F 
ATOM      4  C   UNL     1       6.471   3.795  12.664  0.00  0.00    +0.000 C 
ATOM      5  F   UNL     1       7.354   4.152  11.709  0.00  0.00    +0.000 F 
ATOM      6  C   UNL     1       6.578   4.306  13.897  0.00  0.00    +0.000 C 
ATOM      7  F   UNL     1       7.591   5.169  14.144  0.00  0.00    +0.000 F 
ENDBRANCH   2   6
ENDBRANCH   1   2
BRANCH   1   8
ATOM      8  S   UNL     1       6.136   4.779  17.576  0.00  0.00    +0.000 S 
BRANCH   8   9
ATOM      9  C   UNL     1       4.823   4.013  18.441  0.00  0.00    +0.000 A 
ATOM     10  N   UNL     1       5.007   3.237  19.484  0.00  0.00    +0.000 NA
ATOM     11  C   UNL     1       3.783   2.784  19.941  0.00  0.00    +0.000 A 
ATOM     12  C   UNL     1       2.680   3.225  19.238  0.00  0.00    +0.000 A 
ATOM     13  S   UNL     1       3.188   4.242  17.958  0.00  0.00    +0.000 S 
ENDBRANCH   8   9
ENDBRANCH   1   8
TORSDOF 4
ENDMDL
MODEL 9
REMARK VINA RESULT:      -5.3      0.654      1.468
REMARK  Name = 
REMARK  4 active torsions:
REMARK  status: ('A' for Active; 'I' for Inactive)
REMARK    1  A    between atoms: C_4  and  C_6
REMARK    2  A    between atoms: C_6  and  C_7
REMARK    3  A    between atoms: C_7  and  S_8
REMARK    4  A    between atoms: S_8  and  C_9
REMARK                            x       y       z     vdW  Elec       q    Type
REMARK                         _______ _______ _______ _____ _____    ______ ____
ROOT
ATOM      1  C   UNL     1       3.558   3.690  17.582  0.00  0.00    +0.000 C 
ENDROOT
BRANCH   1   2
ATOM      2  C   UNL     1       2.259   4.447  17.866  0.00  0.00    +0.000 C 
BRANCH   2   6
ATOM      3  F   UNL     1       0.836   2.078  18.600  0.00  0.00    +0.000 F 
ATOM      4  C   UNL     1       1.036   3.033  19.532  0.00  0.00    +0.000 C 
ATOM      5  F   UNL     1       0.540   2.864  20.776  0.00  0.00    +0.000 F 
ATOM      6  C   UNL     1       1.708   4.149  19.229  0.00  0.00    +0.000 C 
ATOM      7  F   UNL     1       1.860   5.085  20.194  0.00  0.00    +0.000 F 
ENDBRANCH   2   6
ENDBRANCH   1   2
BRANCH   1   8
ATOM      8  S   UNL     1       4.591   3.760  19.079  0.00  0.00    +0.000 S 
BRANCH   8   9
ATOM      9  C   UNL     1       5.850   4.878  18.608  0.00  0.00    +0.000 A 
ATOM     10  N   UNL     1       6.846   5.211  19.395  0.00  0.00    +0.000 NA
ATOM     11  C   UNL     1       7.669   6.110  18.741  0.00  0.00    +0.000 A 
ATOM     12  C   UNL     1       7.287   6.449  17.460  0.00  0.00    +0.000 A 
ATOM     13  S   UNL     1       5.847   5.616  17.054  0.00  0.00    +0.000 S 
ENDBRANCH   8   9
ENDBRANCH   1   8
TORSDOF 4
ENDMDL
