MODEL 1
REMARK VINA RESULT:      -6.0      0.000      0.000
REMARK  Name = 
REMARK  4 active torsions:
REMARK  status: ('A' for Active; 'I' for Inactive)
REMARK    1  A    between atoms: C_2  and  C_3
REMARK    2  A    between atoms: C_2  and  P_9
REMARK    3  A    between atoms: P_9  and  O_11
REMARK    4  A    between atoms: P_9  and  O_12
REMARK                            x       y       z     vdW  Elec       q    Type
REMARK                         _______ _______ _______ _____ _____    ______ ____
ROOT
ATOM      1  C   UNL     1       6.120   5.302  19.115  0.00  0.00    +0.000 C 
ATOM      2  C   UNL     1       5.692   4.880  17.904  0.00  0.00    +0.000 C 
ENDROOT
BRANCH   2   3
ATOM      3  C   UNL     1       4.285   4.437  17.785  0.00  0.00    +0.000 A 
ATOM      4  C   UNL     1       3.252   5.379  18.009  0.00  0.00    +0.000 A 
ATOM      5  C   UNL     1       1.908   5.012  18.054  0.00  0.00    +0.000 A 
ATOM      6  C   UNL     1       1.548   3.690  17.841  0.00  0.00    +0.000 A 
ATOM      7  C   UNL     1       2.540   2.745  17.574  0.00  0.00    +0.000 A 
ATOM      8  C   UNL     1       3.899   3.112  17.550  0.00  0.00    +0.000 A 
ENDBRANCH   2   3
BRANCH   2   9
ATOM      9  P   UNL     1       6.871   4.897  16.607  0.00  0.00    +0.000 P 
ATOM     10  O   UNL     1       7.479   6.151  16.049  0.00  0.00    +0.000 OA
BRANCH   9  11
ATOM     11  O   UNL     1       8.117   4.080  17.238  0.00  0.00    +0.000 OA
ATOM     12  H   UNL     1       8.876   4.669  17.379  0.00  0.00    +0.000 HD
ENDBRANCH   9  11
BRANCH   9  13
ATOM     13  O   UNL     1       6.529   3.909  15.392  0.00  0.00    +0.000 OA
ATOM     14  H   UNL     1       7.153   4.039  14.652  0.00  0.00    +0.000 HD
ENDBRANCH   9  13
ENDBRANCH   2   9
TORSDOF 4
ENDMDL
MODEL 2
REMARK VINA RESULT:      -5.9      1.323      2.213
REMARK  Name = 
REMARK  4 active torsions:
REMARK  status: ('A' for Active; 'I' for Inactive)
REMARK    1  A    between atoms: C_2  and  C_3
REMARK    2  A    between atoms: C_2  and  P_9
REMARK    3  A    between atoms: P_9  and  O_11
REMARK    4  A    between atoms: P_9  and  O_12
REMARK                            x       y       z     vdW  Elec       q    Type
REMARK                         _______ _______ _______ _____ _____    ______ ____
ROOT
ATOM      1  C   UNL     1       5.823   4.637  15.465  0.00  0.00    +0.000 C 
ATOM      2  C   UNL     1       5.637   4.669  16.804  0.00  0.00    +0.000 C 
ENDROOT
BRANCH   2   3
ATOM      3  C   UNL     1       4.284   4.365  17.320  0.00  0.00    +0.000 A 
ATOM      4  C   UNL     1       3.874   3.013  17.402  0.00  0.00    +0.000 A 
ATOM      5  C   UNL     1       2.571   2.651  17.743  0.00  0.00    +0.000 A 
ATOM      6  C   UNL     1       1.641   3.634  18.049  0.00  0.00    +0.000 A 
ATOM      7  C   UNL     1       2.028   4.975  18.020  0.00  0.00    +0.000 A 
ATOM      8  C   UNL     1       3.337   5.341  17.654  0.00  0.00    +0.000 A 
ENDBRANCH   2   3
BRANCH   2   9
ATOM      9  P   UNL     1       7.035   5.083  17.779  0.00  0.00    +0.000 P 
ATOM     10  O   UNL     1       7.615   6.464  17.860  0.00  0.00    +0.000 OA
BRANCH   9  11
ATOM     11  O   UNL     1       6.537   4.756  19.283  0.00  0.00    +0.000 OA
ATOM     12  H   UNL     1       5.932   5.446  19.602  0.00  0.00    +0.000 HD
ENDBRANCH   9  11
BRANCH   9  13
ATOM     13  O   UNL     1       8.236   4.026  17.691  0.00  0.00    +0.000 OA
ATOM     14  H   UNL     1       7.976   3.170  18.082  0.00  0.00    +0.000 HD
ENDBRANCH   9  13
ENDBRANCH   2   9
TORSDOF 4
ENDMDL
MODEL 3
REMARK VINA RESULT:      -5.9      1.203      2.224
REMARK  Name = 
REMARK  4 active torsions:
REMARK  status: ('A' for Active; 'I' for Inactive)
REMARK    1  A    between atoms: C_2  and  C_3
REMARK    2  A    between atoms: C_2  and  P_9
REMARK    3  A    between atoms: P_9  and  O_11
REMARK    4  A    between atoms: P_9  and  O_12
REMARK                            x       y       z     vdW  Elec       q    Type
REMARK                         _______ _______ _______ _____ _____    ______ ____
ROOT
ATOM      1  C   UNL     1       5.716   4.123  15.313  0.00  0.00    +0.000 C 
ATOM      2  C   UNL     1       5.541   4.522  16.593  0.00  0.00    +0.000 C 
ENDROOT
BRANCH   2   3
ATOM      3  C   UNL     1       4.213   4.306  17.208  0.00  0.00    +0.000 A 
ATOM      4  C   UNL     1       3.709   2.986  17.296  0.00  0.00    +0.000 A 
ATOM      5  C   UNL     1       2.413   2.712  17.731  0.00  0.00    +0.000 A 
ATOM      6  C   UNL     1       1.586   3.753  18.128  0.00  0.00    +0.000 A 
ATOM      7  C   UNL     1       2.069   5.062  18.094  0.00  0.00    +0.000 A 
ATOM      8  C   UNL     1       3.370   5.340  17.634  0.00  0.00    +0.000 A 
ENDBRANCH   2   3
BRANCH   2   9
ATOM      9  P   UNL     1       6.921   5.268  17.376  0.00  0.00    +0.000 P 
ATOM     10  O   UNL     1       6.948   5.653  18.826  0.00  0.00    +0.000 OA
BRANCH   9  11
ATOM     11  O   UNL     1       8.074   4.143  17.227  0.00  0.00    +0.000 OA
ATOM     12  H   UNL     1       8.077   3.773  16.328  0.00  0.00    +0.000 HD
ENDBRANCH   9  11
BRANCH   9  13
ATOM     13  O   UNL     1       7.613   6.434  16.523  0.00  0.00    +0.000 OA
ATOM     14  H   UNL     1       8.156   7.009  17.096  0.00  0.00    +0.000 HD
ENDBRANCH   9  13
ENDBRANCH   2   9
TORSDOF 4
ENDMDL
MODEL 4
REMARK VINA RESULT:      -5.9      1.362      1.938
REMARK  Name = 
REMARK  4 active torsions:
REMARK  status: ('A' for Active; 'I' for Inactive)
REMARK    1  A    between atoms: C_2  and  C_3
REMARK    2  A    between atoms: C_2  and  P_9
REMARK    3  A    between atoms: P_9  and  O_11
REMARK    4  A    between atoms: P_9  and  O_12
REMARK                            x       y       z     vdW  Elec       q    Type
REMARK                         _______ _______ _______ _____ _____    ______ ____
ROOT
ATOM      1  C   UNL     1       6.225   4.288  15.574  0.00  0.00    +0.000 C 
ATOM      2  C   UNL     1       5.826   4.612  16.825  0.00  0.00    +0.000 C 
ENDROOT
BRANCH   2   3
ATOM      3  C   UNL     1       4.383   4.515  17.136  0.00  0.00    +0.000 A 
ATOM      4  C   UNL     1       3.712   5.662  17.624  0.00  0.00    +0.000 A 
ATOM      5  C   UNL     1       2.392   5.616  18.072  0.00  0.00    +0.000 A 
ATOM      6  C   UNL     1       1.686   4.424  18.014  0.00  0.00    +0.000 A 
ATOM      7  C   UNL     1       2.307   3.285  17.497  0.00  0.00    +0.000 A 
ATOM      8  C   UNL     1       3.646   3.326  17.065  0.00  0.00    +0.000 A 
ENDBRANCH   2   3
BRANCH   2   9
ATOM      9  P   UNL     1       7.079   5.126  17.939  0.00  0.00    +0.000 P 
ATOM     10  O   UNL     1       6.910   5.152  19.429  0.00  0.00    +0.000 OA
BRANCH   9  11
ATOM     11  O   UNL     1       8.260   4.052  17.677  0.00  0.00    +0.000 OA
ATOM     12  H   UNL     1       8.393   3.915  16.724  0.00  0.00    +0.000 HD
ENDBRANCH   9  11
BRANCH   9  13
ATOM     13  O   UNL     1       7.859   6.452  17.488  0.00  0.00    +0.000 OA
ATOM     14  H   UNL     1       7.504   7.237  17.948  0.00  0.00    +0.000 HD
ENDBRANCH   9  13
ENDBRANCH   2   9
TORSDOF 4
ENDMDL
MODEL 5
REMARK VINA RESULT:      -5.8      0.900      1.541
REMARK  Name = 
REMARK  4 active torsions:
REMARK  status: ('A' for Active; 'I' for Inactive)
REMARK    1  A    between atoms: C_2  and  C_3
REMARK    2  A    between atoms: C_2  and  P_9
REMARK    3  A    between atoms: P_9  and  O_11
REMARK    4  A    between atoms: P_9  and  O_12
REMARK                            x       y       z     vdW  Elec       q    Type
REMARK                         _______ _______ _______ _____ _____    ______ ____
ROOT
ATOM      1  C   UNL     1       4.882   6.734  17.260  0.00  0.00    +0.000 C 
ATOM      2  C   UNL     1       5.070   5.402  17.129  0.00  0.00    +0.000 C 
ENDROOT
BRANCH   2   3
ATOM      3  C   UNL     1       3.924   4.511  17.414  0.00  0.00    +0.000 A 
ATOM      4  C   UNL     1       2.697   5.088  17.821  0.00  0.00    +0.000 A 
ATOM      5  C   UNL     1       1.615   4.315  18.242  0.00  0.00    +0.000 A 
ATOM      6  C   UNL     1       1.715   2.932  18.237  0.00  0.00    +0.000 A 
ATOM      7  C   UNL     1       2.897   2.332  17.800  0.00  0.00    +0.000 A 
ATOM      8  C   UNL     1       3.996   3.113  17.396  0.00  0.00    +0.000 A 
ENDBRANCH   2   3
BRANCH   2   9
ATOM      9  P   UNL     1       6.672   4.881  16.642  0.00  0.00    +0.000 P 
ATOM     10  O   UNL     1       6.954   4.127  15.376  0.00  0.00    +0.000 OA
BRANCH   9  11
ATOM     11  O   UNL     1       7.473   6.277  16.478  0.00  0.00    +0.000 OA
ATOM     12  H   UNL     1       8.378   6.118  16.163  0.00  0.00    +0.000 HD
ENDBRANCH   9  11
BRANCH   9  13
ATOM     13  O   UNL     1       7.546   4.243  17.824  0.00  0.00    +0.000 OA
ATOM     14  H   UNL     1       7.168   4.469  18.696  0.00  0.00    +0.000 HD
ENDBRANCH   9  13
ENDBRANCH   2   9
TORSDOF 4
ENDMDL
MODEL 6
REMARK VINA RESULT:      -5.8      1.064      1.204
REMARK  Name = 
REMARK  4 active torsions:
REMARK  status: ('A' for Active; 'I' for Inactive)
REMARK    1  A    between atoms: C_2  and  C_3
REMARK    2  A    between atoms: C_2  and  P_9
REMARK    3  A    between atoms: P_9  and  O_11
REMARK    4  A    between atoms: P_9  and  O_12
REMARK                            x       y       z     vdW  Elec       q    Type
REMARK                         _______ _______ _______ _____ _____    ______ ____
ROOT
ATOM      1  C   UNL     1       4.561   6.402  17.313  0.00  0.00    +0.000 C 
ATOM      2  C   UNL     1       4.780   5.081  17.121  0.00  0.00    +0.000 C 
ENDROOT
BRANCH   2   3
ATOM      3  C   UNL     1       3.700   4.141  17.495  0.00  0.00    +0.000 A 
ATOM      4  C   UNL     1       2.396   4.650  17.708  0.00  0.00    +0.000 A 
ATOM      5  C   UNL     1       1.359   3.857  18.198  0.00  0.00    +0.000 A 
ATOM      6  C   UNL     1       1.585   2.513  18.458  0.00  0.00    +0.000 A 
ATOM      7  C   UNL     1       2.849   1.971  18.216  0.00  0.00    +0.000 A 
ATOM      8  C   UNL     1       3.901   2.778  17.743  0.00  0.00    +0.000 A 
ENDBRANCH   2   3
BRANCH   2   9
ATOM      9  P   UNL     1       6.339   4.634  16.455  0.00  0.00    +0.000 P 
ATOM     10  O   UNL     1       7.272   5.605  15.793  0.00  0.00    +0.000 OA
BRANCH   9  11
ATOM     11  O   UNL     1       7.148   4.103  17.751  0.00  0.00    +0.000 OA
ATOM     12  H   UNL     1       6.546   3.975  18.502  0.00  0.00    +0.000 HD
ENDBRANCH   9  11
BRANCH   9  13
ATOM     13  O   UNL     1       6.328   3.274  15.607  0.00  0.00    +0.000 OA
ATOM     14  H   UNL     1       5.485   2.796  15.728  0.00  0.00    +0.000 HD
ENDBRANCH   9  13
ENDBRANCH   2   9
TORSDOF 4
ENDMDL
MODEL 7
REMARK VINA RESULT:      -5.8      1.403      1.775
REMARK  Name = 
REMARK  4 active torsions:
REMARK  status: ('A' for Active; 'I' for Inactive)
REMARK    1  A    between atoms: C_2  and  C_3
REMARK    2  A    between atoms: C_2  and  P_9
REMARK    3  A    between atoms: P_9  and  O_11
REMARK    4  A    between atoms: P_9  and  O_12
REMARK                            x       y       z     vdW  Elec       q    Type
REMARK                         _______ _______ _______ _____ _____    ______ ____
ROOT
ATOM      1  C   UNL     1       5.882   5.391  15.360  0.00  0.00    +0.000 C 
ATOM      2  C   UNL     1       5.658   5.127  16.667  0.00  0.00    +0.000 C 
ENDROOT
BRANCH   2   3
ATOM      3  C   UNL     1       4.268   4.839  17.085  0.00  0.00    +0.000 A 
ATOM      4  C   UNL     1       3.510   5.871  17.687  0.00  0.00    +0.000 A 
ATOM      5  C   UNL     1       2.247   5.643  18.235  0.00  0.00    +0.000 A 
ATOM      6  C   UNL     1       1.686   4.377  18.166  0.00  0.00    +0.000 A 
ATOM      7  C   UNL     1       2.391   3.348  17.539  0.00  0.00    +0.000 A 
ATOM      8  C   UNL     1       3.675   3.573  17.006  0.00  0.00    +0.000 A 
ENDBRANCH   2   3
BRANCH   2   9
ATOM      9  P   UNL     1       7.056   5.169  17.725  0.00  0.00    +0.000 P 
ATOM     10  O   UNL     1       7.724   6.436  18.173  0.00  0.00    +0.000 OA
BRANCH   9  11
ATOM     11  O   UNL     1       6.502   4.492  19.085  0.00  0.00    +0.000 OA
ATOM     12  H   UNL     1       5.743   3.915  18.897  0.00  0.00    +0.000 HD
ENDBRANCH   9  11
BRANCH   9  13
ATOM     13  O   UNL     1       8.187   4.092  17.366  0.00  0.00    +0.000 OA
ATOM     14  H   UNL     1       8.883   4.491  16.809  0.00  0.00    +0.000 HD
ENDBRANCH   9  13
ENDBRANCH   2   9
TORSDOF 4
ENDMDL
MODEL 8
REMARK VINA RESULT:      -5.8      0.718      1.298
REMARK  Name = 
REMARK  4 active torsions:
REMARK  status: ('A' for Active; 'I' for Inactive)
REMARK    1  A    between atoms: C_2  and  C_3
REMARK    2  A    between atoms: C_2  and  P_9
REMARK    3  A    between atoms: P_9  and  O_11
REMARK    4  A    between atoms: P_9  and  O_12
REMARK                            x       y       z     vdW  Elec       q    Type
REMARK                         _______ _______ _______ _____ _____    ______ ____
ROOT
ATOM      1  C   UNL     1       5.804   5.373  19.164  0.00  0.00    +0.000 C 
ATOM      2  C   UNL     1       5.456   4.672  18.062  0.00  0.00    +0.000 C 
ENDROOT
BRANCH   2   3
ATOM      3  C   UNL     1       4.129   4.017  18.050  0.00  0.00    +0.000 A 
ATOM      4  C   UNL     1       2.995   4.783  17.688  0.00  0.00    +0.000 A 
ATOM      5  C   UNL     1       1.697   4.282  17.787  0.00  0.00    +0.000 A 
ATOM      6  C   UNL     1       1.494   2.980  18.221  0.00  0.00    +0.000 A 
ATOM      7  C   UNL     1       2.595   2.186  18.544  0.00  0.00    +0.000 A 
ATOM      8  C   UNL     1       3.903   2.699  18.464  0.00  0.00    +0.000 A 
ENDBRANCH   2   3
BRANCH   2   9
ATOM      9  P   UNL     1       6.638   4.610  16.768  0.00  0.00    +0.000 P 
ATOM     10  O   UNL     1       8.078   4.241  16.971  0.00  0.00    +0.000 OA
BRANCH   9  11
ATOM     11  O   UNL     1       6.051   3.458  15.796  0.00  0.00    +0.000 OA
ATOM     12  H   UNL     1       6.350   2.580  16.084  0.00  0.00    +0.000 HD
ENDBRANCH   9  11
BRANCH   9  13
ATOM     13  O   UNL     1       6.563   5.844  15.748  0.00  0.00    +0.000 OA
ATOM     14  H   UNL     1       6.389   6.678  16.224  0.00  0.00    +0.000 HD
ENDBRANCH   9  13
ENDBRANCH   2   9
TORSDOF 4
ENDMDL
MODEL 9
REMARK VINA RESULT:      -5.7      1.816      2.177
REMARK  Name = 
REMARK  4 active torsions:
REMARK  status: ('A' for Active; 'I' for Inactive)
REMARK    1  A    between atoms: C_2  and  C_3
REMARK    2  A    between atoms: C_2  and  P_9
REMARK    3  A    between atoms: P_9  and  O_11
REMARK    4  A    between atoms: P_9  and  O_12
REMARK                            x       y       z     vdW  Elec       q    Type
REMARK                         _______ _______ _______ _____ _____    ______ ____
ROOT
ATOM      1  C   UNL     1       3.812   6.584  17.633  0.00  0.00    +0.000 C 
ATOM      2  C   UNL     1       3.975   5.294  18.006  0.00  0.00    +0.000 C 
ENDROOT
BRANCH   2   3
ATOM      3  C   UNL     1       2.805   4.584  18.568  0.00  0.00    +0.000 A 
ATOM      4  C   UNL     1       2.354   4.933  19.864  0.00  0.00    +0.000 A 
ATOM      5  C   UNL     1       1.350   4.219  20.519  0.00  0.00    +0.000 A 
ATOM      6  C   UNL     1       0.739   3.149  19.882  0.00  0.00    +0.000 A 
ATOM      7  C   UNL     1       1.132   2.809  18.586  0.00  0.00    +0.000 A 
ATOM      8  C   UNL     1       2.160   3.516  17.934  0.00  0.00    +0.000 A 
ENDBRANCH   2   3
BRANCH   2   9
ATOM      9  P   UNL     1       5.576   4.613  17.788  0.00  0.00    +0.000 P 
ATOM     10  O   UNL     1       6.839   5.421  17.830  0.00  0.00    +0.000 OA
BRANCH   9  11
ATOM     11  O   UNL     1       5.704   3.582  19.029  0.00  0.00    +0.000 OA
ATOM     12  H   UNL     1       6.133   2.758  18.746  0.00  0.00    +0.000 HD
ENDBRANCH   9  11
BRANCH   9  13
ATOM     13  O   UNL     1       5.684   3.555  16.588  0.00  0.00    +0.000 OA
ATOM     14  H   UNL     1       6.618   3.356  16.383  0.00  0.00    +0.000 HD
ENDBRANCH   9  13
ENDBRANCH   2   9
TORSDOF 4
ENDMDL
