MODEL 1
REMARK VINA RESULT:      -7.1      0.000      0.000
REMARK  Name = 
REMARK  9 active torsions:
REMARK  status: ('A' for Active; 'I' for Inactive)
REMARK    1  A    between atoms: C_1  and  O_2
REMARK    2  A    between atoms: O_2  and  C_3
REMARK    3  A    between atoms: C_3  and  C_5
REMARK    4  A    between atoms: C_5  and  C_15
REMARK    5  A    between atoms: N_6  and  N_7
REMARK    6  A    between atoms: C_10  and  S_11
REMARK    7  A    between atoms: N_13  and  N_14
REMARK    8  A    between atoms: C_15  and  C_16
REMARK    9  A    between atoms: C_15  and  C_18
REMARK                            x       y       z     vdW  Elec       q    Type
REMARK                         _______ _______ _______ _____ _____    ______ ____
ROOT
ATOM      1  C   UNL     1       3.960   6.168  17.513  0.00  0.00    +0.000 C 
ATOM      2  N   UNL     1       2.931   6.806  17.999  0.00  0.00    +0.000 NA
ENDROOT
BRANCH   2   3
ATOM      3  N   UNL     1       2.763   8.138  17.752  0.00  0.00    +0.000 N 
ATOM      4  C   UNL     1       1.856   8.879  18.452  0.00  0.00    +0.000 A 
ATOM      5  N   UNL     1       1.163   9.916  18.036  0.00  0.00    +0.000 NA
ATOM      6  C   UNL     1       0.322  10.152  19.088  0.00  0.00    +0.000 A 
ATOM      7  N   UNL     1       0.467   9.358  20.146  0.00  0.00    +0.000 NA
ATOM      8  N   UNL     1       1.491   8.593  19.764  0.00  0.00    +0.000 N 
ATOM      9  H   UNL     1       3.060   8.538  16.855  0.00  0.00    +0.000 HD
BRANCH   8  10
ATOM     10  N   UNL     1       2.055   7.616  20.613  0.00  0.00    +0.000 N 
ATOM     11  H   UNL     1       2.694   7.044  20.072  0.00  0.00    +0.000 HD
ATOM     12  H   UNL     1       2.608   8.100  21.320  0.00  0.00    +0.000 HD
ENDBRANCH   8  10
BRANCH   6  13
ATOM     13  S   UNL     1      -0.913  11.377  19.047  0.00  0.00    +0.000 S 
ATOM     14  H   UNL     1      -0.090  12.412  18.844  0.00  0.00    +0.000 HD
ENDBRANCH   6  13
ENDBRANCH   2   3
BRANCH   1  15
ATOM     15  C   UNL     1       5.062   6.812  16.682  0.00  0.00    +0.000 C 
ATOM     16  O   UNL     1       5.203   6.585  15.495  0.00  0.00    +0.000 OA
BRANCH  15  18
ATOM     17  C   UNL     1       7.243   7.387  17.300  0.00  0.00    +0.000 C 
ATOM     18  O   UNL     1       5.838   7.592  17.460  0.00  0.00    +0.000 OA
ENDBRANCH  15  18
ENDBRANCH   1  15
BRANCH   1  19
ATOM     19  C   UNL     1       4.082   4.669  17.755  0.00  0.00    +0.000 C 
BRANCH  19  20
ATOM     20  C   UNL     1       2.922   4.181  18.623  0.00  0.00    +0.000 A 
ATOM     21  C   UNL     1       3.023   4.282  20.021  0.00  0.00    +0.000 A 
ATOM     22  C   UNL     1       2.026   3.763  20.850  0.00  0.00    +0.000 A 
ATOM     23  C   UNL     1       0.914   3.137  20.295  0.00  0.00    +0.000 A 
ATOM     24  C   UNL     1       0.792   3.036  18.912  0.00  0.00    +0.000 A 
ATOM     25  C   UNL     1       1.789   3.549  18.080  0.00  0.00    +0.000 A 
ENDBRANCH  19  20
BRANCH  19  26
ATOM     26  C   UNL     1       5.417   4.381  18.304  0.00  0.00    +0.000 C 
ATOM     27  N   UNL     1       6.473   4.176  18.743  0.00  0.00    +0.000 NA
ENDBRANCH  19  26
ENDBRANCH   1  19
TORSDOF 8
ENDMDL
MODEL 2
REMARK VINA RESULT:      -7.0      0.153      1.017
REMARK  Name = 
REMARK  9 active torsions:
REMARK  status: ('A' for Active; 'I' for Inactive)
REMARK    1  A    between atoms: C_1  and  O_2
REMARK    2  A    between atoms: O_2  and  C_3
REMARK    3  A    between atoms: C_3  and  C_5
REMARK    4  A    between atoms: C_5  and  C_15
REMARK    5  A    between atoms: N_6  and  N_7
REMARK    6  A    between atoms: C_10  and  S_11
REMARK    7  A    between atoms: N_13  and  N_14
REMARK    8  A    between atoms: C_15  and  C_16
REMARK    9  A    between atoms: C_15  and  C_18
REMARK                            x       y       z     vdW  Elec       q    Type
REMARK                         _______ _______ _______ _____ _____    ______ ____
ROOT
ATOM      1  C   UNL     1       4.078   6.153  17.483  0.00  0.00    +0.000 C 
ATOM      2  N   UNL     1       3.041   6.760  17.992  0.00  0.00    +0.000 NA
ENDROOT
BRANCH   2   3
ATOM      3  N   UNL     1       2.828   8.086  17.750  0.00  0.00    +0.000 N 
ATOM      4  C   UNL     1       1.899   8.794  18.455  0.00  0.00    +0.000 A 
ATOM      5  N   UNL     1       1.170   9.809  18.044  0.00  0.00    +0.000 NA
ATOM      6  C   UNL     1       0.325  10.014  19.099  0.00  0.00    +0.000 A 
ATOM      7  N   UNL     1       0.500   9.221  20.154  0.00  0.00    +0.000 NA
ATOM      8  N   UNL     1       1.547   8.492  19.767  0.00  0.00    +0.000 N 
ATOM      9  H   UNL     1       3.109   8.499  16.853  0.00  0.00    +0.000 HD
BRANCH   8  10
ATOM     10  N   UNL     1       2.146   7.531  20.611  0.00  0.00    +0.000 N 
ATOM     11  H   UNL     1       3.151   7.659  20.587  0.00  0.00    +0.000 HD
ATOM     12  H   UNL     1       1.839   7.721  21.565  0.00  0.00    +0.000 HD
ENDBRANCH   8  10
BRANCH   6  13
ATOM     13  S   UNL     1      -0.950  11.197  19.066  0.00  0.00    +0.000 S 
ATOM     14  H   UNL     1      -0.776  11.639  20.317  0.00  0.00    +0.000 HD
ENDBRANCH   6  13
ENDBRANCH   2   3
BRANCH   1  15
ATOM     15  C   UNL     1       5.142   6.830  16.629  0.00  0.00    +0.000 C 
ATOM     16  O   UNL     1       5.282   6.588  15.445  0.00  0.00    +0.000 OA
BRANCH  15  18
ATOM     17  C   UNL     1       7.300   7.444  17.291  0.00  0.00    +0.000 C 
ATOM     18  O   UNL     1       5.890   7.658  17.385  0.00  0.00    +0.000 OA
ENDBRANCH  15  18
ENDBRANCH   1  15
BRANCH   1  19
ATOM     19  C   UNL     1       4.250   4.658  17.721  0.00  0.00    +0.000 C 
BRANCH  19  20
ATOM     20  C   UNL     1       3.111   4.131  18.594  0.00  0.00    +0.000 A 
ATOM     21  C   UNL     1       1.971   3.586  17.977  0.00  0.00    +0.000 A 
ATOM     22  C   UNL     1       0.872   3.180  18.736  0.00  0.00    +0.000 A 
ATOM     23  C   UNL     1       0.895   3.311  20.122  0.00  0.00    +0.000 A 
ATOM     24  C   UNL     1       2.019   3.841  20.751  0.00  0.00    +0.000 A 
ATOM     25  C   UNL     1       3.118   4.252  19.995  0.00  0.00    +0.000 A 
ENDBRANCH  19  20
BRANCH  19  26
ATOM     26  C   UNL     1       5.596   4.413  18.262  0.00  0.00    +0.000 C 
ATOM     27  N   UNL     1       6.668   4.233  18.674  0.00  0.00    +0.000 NA
ENDBRANCH  19  26
ENDBRANCH   1  19
TORSDOF 8
ENDMDL
MODEL 3
REMARK VINA RESULT:      -6.7      0.667      1.463
REMARK  Name = 
REMARK  9 active torsions:
REMARK  status: ('A' for Active; 'I' for Inactive)
REMARK    1  A    between atoms: C_1  and  O_2
REMARK    2  A    between atoms: O_2  and  C_3
REMARK    3  A    between atoms: C_3  and  C_5
REMARK    4  A    between atoms: C_5  and  C_15
REMARK    5  A    between atoms: N_6  and  N_7
REMARK    6  A    between atoms: C_10  and  S_11
REMARK    7  A    between atoms: N_13  and  N_14
REMARK    8  A    between atoms: C_15  and  C_16
REMARK    9  A    between atoms: C_15  and  C_18
REMARK                            x       y       z     vdW  Elec       q    Type
REMARK                         _______ _______ _______ _____ _____    ______ ____
ROOT
ATOM      1  C   UNL     1       4.207   6.328  17.805  0.00  0.00    +0.000 C 
ATOM      2  N   UNL     1       3.108   6.917  18.190  0.00  0.00    +0.000 NA
ENDROOT
BRANCH   2   3
ATOM      3  N   UNL     1       2.809   8.177  17.757  0.00  0.00    +0.000 N 
ATOM      4  C   UNL     1       1.805   8.902  18.329  0.00  0.00    +0.000 A 
ATOM      5  N   UNL     1       1.021   9.791  17.758  0.00  0.00    +0.000 NA
ATOM      6  C   UNL     1       0.123  10.075  18.750  0.00  0.00    +0.000 A 
ATOM      7  N   UNL     1       0.314   9.451  19.911  0.00  0.00    +0.000 NA
ATOM      8  N   UNL     1       1.425   8.759  19.660  0.00  0.00    +0.000 N 
ATOM      9  H   UNL     1       3.094   8.482  16.819  0.00  0.00    +0.000 HD
BRANCH   8  10
ATOM     10  N   UNL     1       2.059   7.972  20.647  0.00  0.00    +0.000 N 
ATOM     11  H   UNL     1       1.624   7.057  20.664  0.00  0.00    +0.000 HD
ATOM     12  H   UNL     1       3.030   7.841  20.364  0.00  0.00    +0.000 HD
ENDBRANCH   8  10
BRANCH   6  13
ATOM     13  S   UNL     1      -1.231  11.140  18.515  0.00  0.00    +0.000 S 
ATOM     14  H   UNL     1      -0.711  12.189  19.162  0.00  0.00    +0.000 HD
ENDBRANCH   6  13
ENDBRANCH   2   3
BRANCH   1  15
ATOM     15  C   UNL     1       5.254   6.963  16.899  0.00  0.00    +0.000 C 
ATOM     16  O   UNL     1       6.170   7.637  17.332  0.00  0.00    +0.000 OA
BRANCH  15  18
ATOM     17  C   UNL     1       5.624   5.549  15.072  0.00  0.00    +0.000 C 
ATOM     18  O   UNL     1       4.973   6.704  15.607  0.00  0.00    +0.000 OA
ENDBRANCH  15  18
ENDBRANCH   1  15
BRANCH   1  19
ATOM     19  C   UNL     1       4.476   4.898  18.255  0.00  0.00    +0.000 C 
BRANCH  19  20
ATOM     20  C   UNL     1       3.225   4.307  18.903  0.00  0.00    +0.000 A 
ATOM     21  C   UNL     1       2.297   3.621  18.099  0.00  0.00    +0.000 A 
ATOM     22  C   UNL     1       1.099   3.147  18.635  0.00  0.00    +0.000 A 
ATOM     23  C   UNL     1       0.808   3.351  19.982  0.00  0.00    +0.000 A 
ATOM     24  C   UNL     1       1.718   4.021  20.794  0.00  0.00    +0.000 A 
ATOM     25  C   UNL     1       2.916   4.500  20.261  0.00  0.00    +0.000 A 
ENDBRANCH  19  20
BRANCH  19  26
ATOM     26  C   UNL     1       5.671   4.887  19.115  0.00  0.00    +0.000 C 
ATOM     27  N   UNL     1       6.601   4.883  19.811  0.00  0.00    +0.000 NA
ENDBRANCH  19  26
ENDBRANCH   1  19
TORSDOF 8
ENDMDL
MODEL 4
REMARK VINA RESULT:      -6.6      4.243      6.231
REMARK  Name = 
REMARK  9 active torsions:
REMARK  status: ('A' for Active; 'I' for Inactive)
REMARK    1  A    between atoms: C_1  and  O_2
REMARK    2  A    between atoms: O_2  and  C_3
REMARK    3  A    between atoms: C_3  and  C_5
REMARK    4  A    between atoms: C_5  and  C_15
REMARK    5  A    between atoms: N_6  and  N_7
REMARK    6  A    between atoms: C_10  and  S_11
REMARK    7  A    between atoms: N_13  and  N_14
REMARK    8  A    between atoms: C_15  and  C_16
REMARK    9  A    between atoms: C_15  and  C_18
REMARK                            x       y       z     vdW  Elec       q    Type
REMARK                         _______ _______ _______ _____ _____    ______ ____
ROOT
ATOM      1  C   UNL     1       5.917   4.530  16.984  0.00  0.00    +0.000 C 
ATOM      2  N   UNL     1       4.848   3.782  17.021  0.00  0.00    +0.000 NA
ENDROOT
BRANCH   2   3
ATOM      3  N   UNL     1       4.699   2.835  17.992  0.00  0.00    +0.000 N 
ATOM      4  C   UNL     1       3.611   2.829  18.814  0.00  0.00    +0.000 A 
ATOM      5  N   UNL     1       3.543   2.435  20.067  0.00  0.00    +0.000 NA
ATOM      6  C   UNL     1       2.271   2.792  20.423  0.00  0.00    +0.000 A 
ATOM      7  N   UNL     1       1.529   3.348  19.468  0.00  0.00    +0.000 NA
ATOM      8  N   UNL     1       2.362   3.307  18.427  0.00  0.00    +0.000 N 
ATOM      9  H   UNL     1       5.516   2.318  18.339  0.00  0.00    +0.000 HD
BRANCH   8  10
ATOM     10  N   UNL     1       1.978   3.744  17.141  0.00  0.00    +0.000 N 
ATOM     11  H   UNL     1       2.127   4.744  17.078  0.00  0.00    +0.000 HD
ATOM     12  H   UNL     1       2.600   3.301  16.464  0.00  0.00    +0.000 HD
ENDBRANCH   8  10
BRANCH   6  13
ATOM     13  S   UNL     1       1.656   2.593  22.037  0.00  0.00    +0.000 S 
ATOM     14  H   UNL     1       2.789   2.122  22.572  0.00  0.00    +0.000 HD
ENDBRANCH   6  13
ENDBRANCH   2   3
BRANCH   1  15
ATOM     15  C   UNL     1       7.085   4.413  17.954  0.00  0.00    +0.000 C 
ATOM     16  O   UNL     1       8.189   4.034  17.606  0.00  0.00    +0.000 OA
BRANCH  15  18
ATOM     17  C   UNL     1       7.566   5.625  19.896  0.00  0.00    +0.000 C 
ATOM     18  O   UNL     1       6.691   4.733  19.202  0.00  0.00    +0.000 OA
ENDBRANCH  15  18
ENDBRANCH   1  15
BRANCH   1  19
ATOM     19  C   UNL     1       6.020   5.620  15.925  0.00  0.00    +0.000 C 
BRANCH  19  20
ATOM     20  C   UNL     1       6.424   5.011  14.583  0.00  0.00    +0.000 A 
ATOM     21  C   UNL     1       7.540   5.531  13.903  0.00  0.00    +0.000 A 
ATOM     22  C   UNL     1       7.884   5.065  12.633  0.00  0.00    +0.000 A 
ATOM     23  C   UNL     1       7.121   4.073  12.023  0.00  0.00    +0.000 A 
ATOM     24  C   UNL     1       6.017   3.541  12.685  0.00  0.00    +0.000 A 
ATOM     25  C   UNL     1       5.667   4.008  13.953  0.00  0.00    +0.000 A 
ENDBRANCH  19  20
BRANCH  19  26
ATOM     26  C   UNL     1       6.924   6.674  16.413  0.00  0.00    +0.000 C 
ATOM     27  N   UNL     1       7.654   7.498  16.786  0.00  0.00    +0.000 NA
ENDBRANCH  19  26
ENDBRANCH   1  19
TORSDOF 8
ENDMDL
MODEL 5
REMARK VINA RESULT:      -6.6      2.595      4.622
REMARK  Name = 
REMARK  9 active torsions:
REMARK  status: ('A' for Active; 'I' for Inactive)
REMARK    1  A    between atoms: C_1  and  O_2
REMARK    2  A    between atoms: O_2  and  C_3
REMARK    3  A    between atoms: C_3  and  C_5
REMARK    4  A    between atoms: C_5  and  C_15
REMARK    5  A    between atoms: N_6  and  N_7
REMARK    6  A    between atoms: C_10  and  S_11
REMARK    7  A    between atoms: N_13  and  N_14
REMARK    8  A    between atoms: C_15  and  C_16
REMARK    9  A    between atoms: C_15  and  C_18
REMARK                            x       y       z     vdW  Elec       q    Type
REMARK                         _______ _______ _______ _____ _____    ______ ____
ROOT
ATOM      1  C   UNL     1       3.300   4.408  20.139  0.00  0.00    +0.000 C 
ATOM      2  N   UNL     1       3.126   5.692  19.980  0.00  0.00    +0.000 NA
ENDROOT
BRANCH   2   3
ATOM      3  N   UNL     1       2.122   6.340  20.637  0.00  0.00    +0.000 N 
ATOM      4  C   UNL     1       1.743   7.602  20.283  0.00  0.00    +0.000 A 
ATOM      5  N   UNL     1       1.273   8.555  21.057  0.00  0.00    +0.000 NA
ATOM      6  C   UNL     1       1.212   9.625  20.208  0.00  0.00    +0.000 A 
ATOM      7  N   UNL     1       1.579   9.397  18.948  0.00  0.00    +0.000 NA
ATOM      8  N   UNL     1       1.849   8.092  18.984  0.00  0.00    +0.000 N 
ATOM      9  H   UNL     1       1.852   6.049  21.584  0.00  0.00    +0.000 HD
BRANCH   8  10
ATOM     10  N   UNL     1       2.227   7.371  17.830  0.00  0.00    +0.000 N 
ATOM     11  H   UNL     1       2.638   8.016  17.164  0.00  0.00    +0.000 HD
ATOM     12  H   UNL     1       2.956   6.711  18.101  0.00  0.00    +0.000 HD
ENDBRANCH   8  10
BRANCH   6  13
ATOM     13  S   UNL     1       0.744  11.216  20.732  0.00  0.00    +0.000 S 
ATOM     14  H   UNL     1      -0.535  10.918  20.987  0.00  0.00    +0.000 HD
ENDBRANCH   6  13
ENDBRANCH   2   3
BRANCH   1  15
ATOM     15  C   UNL     1       2.420   3.519  21.007  0.00  0.00    +0.000 C 
ATOM     16  O   UNL     1       2.879   2.736  21.818  0.00  0.00    +0.000 OA
BRANCH  15  18
ATOM     17  C   UNL     1       0.638   2.895  19.626  0.00  0.00    +0.000 C 
ATOM     18  O   UNL     1       1.121   3.705  20.700  0.00  0.00    +0.000 OA
ENDBRANCH  15  18
ENDBRANCH   1  15
BRANCH   1  19
ATOM     19  C   UNL     1       4.470   3.728  19.439  0.00  0.00    +0.000 C 
BRANCH  19  20
ATOM     20  C   UNL     1       5.323   4.767  18.712  0.00  0.00    +0.000 A 
ATOM     21  C   UNL     1       4.988   5.127  17.395  0.00  0.00    +0.000 A 
ATOM     22  C   UNL     1       5.795   6.002  16.665  0.00  0.00    +0.000 A 
ATOM     23  C   UNL     1       6.947   6.531  17.240  0.00  0.00    +0.000 A 
ATOM     24  C   UNL     1       7.290   6.193  18.546  0.00  0.00    +0.000 A 
ATOM     25  C   UNL     1       6.488   5.314  19.277  0.00  0.00    +0.000 A 
ENDBRANCH  19  20
BRANCH  19  26
ATOM     26  C   UNL     1       3.952   2.653  18.578  0.00  0.00    +0.000 C 
ATOM     27  N   UNL     1       3.560   1.807  17.884  0.00  0.00    +0.000 NA
ENDBRANCH  19  26
ENDBRANCH   1  19
TORSDOF 8
ENDMDL
MODEL 6
REMARK VINA RESULT:      -6.6      3.656      5.513
REMARK  Name = 
REMARK  9 active torsions:
REMARK  status: ('A' for Active; 'I' for Inactive)
REMARK    1  A    between atoms: C_1  and  O_2
REMARK    2  A    between atoms: O_2  and  C_3
REMARK    3  A    between atoms: C_3  and  C_5
REMARK    4  A    between atoms: C_5  and  C_15
REMARK    5  A    between atoms: N_6  and  N_7
REMARK    6  A    between atoms: C_10  and  S_11
REMARK    7  A    between atoms: N_13  and  N_14
REMARK    8  A    between atoms: C_15  and  C_16
REMARK    9  A    between atoms: C_15  and  C_18
REMARK                            x       y       z     vdW  Elec       q    Type
REMARK                         _______ _______ _______ _____ _____    ______ ____
ROOT
ATOM      1  C   UNL     1       4.821   5.218  18.607  0.00  0.00    +0.000 C 
ATOM      2  N   UNL     1       4.537   4.417  17.617  0.00  0.00    +0.000 NA
ENDROOT
BRANCH   2   3
ATOM      3  N   UNL     1       5.532   3.768  16.945  0.00  0.00    +0.000 N 
ATOM      4  C   UNL     1       5.839   4.087  15.654  0.00  0.00    +0.000 A 
ATOM      5  N   UNL     1       6.290   3.292  14.709  0.00  0.00    +0.000 NA
ATOM      6  C   UNL     1       6.271   4.101  13.606  0.00  0.00    +0.000 A 
ATOM      7  N   UNL     1       5.873   5.356  13.806  0.00  0.00    +0.000 NA
ATOM      8  N   UNL     1       5.665   5.361  15.123  0.00  0.00    +0.000 N 
ATOM      9  H   UNL     1       5.848   2.842  17.257  0.00  0.00    +0.000 HD
BRANCH   8  10
ATOM     10  N   UNL     1       5.282   6.529  15.818  0.00  0.00    +0.000 N 
ATOM     11  H   UNL     1       5.990   6.743  16.511  0.00  0.00    +0.000 HD
ATOM     12  H   UNL     1       5.271   7.299  15.149  0.00  0.00    +0.000 HD
ENDBRANCH   8  10
BRANCH   6  13
ATOM     13  S   UNL     1       6.683   3.532  12.015  0.00  0.00    +0.000 S 
ATOM     14  H   UNL     1       6.959   4.733  11.494  0.00  0.00    +0.000 HD
ENDBRANCH   6  13
ENDBRANCH   2   3
BRANCH   1  15
ATOM     15  C   UNL     1       6.232   5.536  19.083  0.00  0.00    +0.000 C 
ATOM     16  O   UNL     1       6.679   5.113  20.134  0.00  0.00    +0.000 OA
BRANCH  15  18
ATOM     17  C   UNL     1       8.092   6.892  18.664  0.00  0.00    +0.000 C 
ATOM     18  O   UNL     1       6.844   6.361  18.211  0.00  0.00    +0.000 OA
ENDBRANCH  15  18
ENDBRANCH   1  15
BRANCH   1  19
ATOM     19  C   UNL     1       3.682   5.876  19.376  0.00  0.00    +0.000 C 
BRANCH  19  20
ATOM     20  C   UNL     1       2.717   4.811  19.897  0.00  0.00    +0.000 A 
ATOM     21  C   UNL     1       2.997   4.172  21.117  0.00  0.00    +0.000 A 
ATOM     22  C   UNL     1       2.191   3.131  21.581  0.00  0.00    +0.000 A 
ATOM     23  C   UNL     1       1.093   2.714  20.834  0.00  0.00    +0.000 A 
ATOM     24  C   UNL     1       0.795   3.341  19.628  0.00  0.00    +0.000 A 
ATOM     25  C   UNL     1       1.601   4.379  19.159  0.00  0.00    +0.000 A 
ENDBRANCH  19  20
BRANCH  19  26
ATOM     26  C   UNL     1       3.058   6.898  18.521  0.00  0.00    +0.000 C 
ATOM     27  N   UNL     1       2.582   7.703  17.831  0.00  0.00    +0.000 NA
ENDBRANCH  19  26
ENDBRANCH   1  19
TORSDOF 8
ENDMDL
MODEL 7
REMARK VINA RESULT:      -6.6      3.641      5.591
REMARK  Name = 
REMARK  9 active torsions:
REMARK  status: ('A' for Active; 'I' for Inactive)
REMARK    1  A    between atoms: C_1  and  O_2
REMARK    2  A    between atoms: O_2  and  C_3
REMARK    3  A    between atoms: C_3  and  C_5
REMARK    4  A    between atoms: C_5  and  C_15
REMARK    5  A    between atoms: N_6  and  N_7
REMARK    6  A    between atoms: C_10  and  S_11
REMARK    7  A    between atoms: N_13  and  N_14
REMARK    8  A    between atoms: C_15  and  C_16
REMARK    9  A    between atoms: C_15  and  C_18
REMARK                            x       y       z     vdW  Elec       q    Type
REMARK                         _______ _______ _______ _____ _____    ______ ____
ROOT
ATOM      1  C   UNL     1       4.864   5.205  18.627  0.00  0.00    +0.000 C 
ATOM      2  N   UNL     1       4.603   4.394  17.638  0.00  0.00    +0.000 NA
ENDROOT
BRANCH   2   3
ATOM      3  N   UNL     1       5.617   3.787  16.956  0.00  0.00    +0.000 N 
ATOM      4  C   UNL     1       5.897   4.117  15.662  0.00  0.00    +0.000 A 
ATOM      5  N   UNL     1       6.371   3.341  14.712  0.00  0.00    +0.000 NA
ATOM      6  C   UNL     1       6.307   4.148  13.610  0.00  0.00    +0.000 A 
ATOM      7  N   UNL     1       5.860   5.386  13.814  0.00  0.00    +0.000 NA
ATOM      8  N   UNL     1       5.666   5.383  15.133  0.00  0.00    +0.000 N 
ATOM      9  H   UNL     1       5.974   2.875  17.265  0.00  0.00    +0.000 HD
BRANCH   8  10
ATOM     10  N   UNL     1       5.242   6.535  15.831  0.00  0.00    +0.000 N 
ATOM     11  H   UNL     1       4.230   6.531  15.882  0.00  0.00    +0.000 HD
ATOM     12  H   UNL     1       5.594   6.465  16.786  0.00  0.00    +0.000 HD
ENDBRANCH   8  10
BRANCH   6  13
ATOM     13  S   UNL     1       6.725   3.596  12.015  0.00  0.00    +0.000 S 
ATOM     14  H   UNL     1       5.844   4.357  11.357  0.00  0.00    +0.000 HD
ENDBRANCH   6  13
ENDBRANCH   2   3
BRANCH   1  15
ATOM     15  C   UNL     1       6.266   5.579  19.090  0.00  0.00    +0.000 C 
ATOM     16  O   UNL     1       6.752   5.145  20.118  0.00  0.00    +0.000 OA
BRANCH  15  18
ATOM     17  C   UNL     1       8.121   6.920  18.609  0.00  0.00    +0.000 C 
ATOM     18  O   UNL     1       6.819   6.462  18.236  0.00  0.00    +0.000 OA
ENDBRANCH  15  18
ENDBRANCH   1  15
BRANCH   1  19
ATOM     19  C   UNL     1       3.706   5.816  19.407  0.00  0.00    +0.000 C 
BRANCH  19  20
ATOM     20  C   UNL     1       2.774   4.715  19.911  0.00  0.00    +0.000 A 
ATOM     21  C   UNL     1       1.691   4.314  19.109  0.00  0.00    +0.000 A 
ATOM     22  C   UNL     1       0.765   3.379  19.573  0.00  0.00    +0.000 A 
ATOM     23  C   UNL     1       0.905   2.830  20.844  0.00  0.00    +0.000 A 
ATOM     24  C   UNL     1       1.976   3.208  21.649  0.00  0.00    +0.000 A 
ATOM     25  C   UNL     1       2.902   4.147  21.190  0.00  0.00    +0.000 A 
ENDBRANCH  19  20
BRANCH  19  26
ATOM     26  C   UNL     1       3.052   6.834  18.570  0.00  0.00    +0.000 C 
ATOM     27  N   UNL     1       2.540   7.625  17.890  0.00  0.00    +0.000 NA
ENDBRANCH  19  26
ENDBRANCH   1  19
TORSDOF 8
ENDMDL
MODEL 8
REMARK VINA RESULT:      -6.6      2.519      4.664
REMARK  Name = 
REMARK  9 active torsions:
REMARK  status: ('A' for Active; 'I' for Inactive)
REMARK    1  A    between atoms: C_1  and  O_2
REMARK    2  A    between atoms: O_2  and  C_3
REMARK    3  A    between atoms: C_3  and  C_5
REMARK    4  A    between atoms: C_5  and  C_15
REMARK    5  A    between atoms: N_6  and  N_7
REMARK    6  A    between atoms: C_10  and  S_11
REMARK    7  A    between atoms: N_13  and  N_14
REMARK    8  A    between atoms: C_15  and  C_16
REMARK    9  A    between atoms: C_15  and  C_18
REMARK                            x       y       z     vdW  Elec       q    Type
REMARK                         _______ _______ _______ _____ _____    ______ ____
ROOT
ATOM      1  C   UNL     1       4.157   4.373  17.804  0.00  0.00    +0.000 C 
ATOM      2  N   UNL     1       3.920   5.327  18.662  0.00  0.00    +0.000 NA
ENDROOT
BRANCH   2   3
ATOM      3  N   UNL     1       2.752   5.350  19.367  0.00  0.00    +0.000 N 
ATOM      4  C   UNL     1       2.177   6.528  19.746  0.00  0.00    +0.000 A 
ATOM      5  N   UNL     1       1.461   6.771  20.822  0.00  0.00    +0.000 NA
ATOM      6  C   UNL     1       1.281   8.125  20.759  0.00  0.00    +0.000 A 
ATOM      7  N   UNL     1       1.804   8.739  19.700  0.00  0.00    +0.000 NA
ATOM      8  N   UNL     1       2.314   7.709  19.023  0.00  0.00    +0.000 N 
ATOM      9  H   UNL     1       2.451   4.523  19.896  0.00  0.00    +0.000 HD
BRANCH   8  10
ATOM     10  N   UNL     1       2.932   7.871  17.763  0.00  0.00    +0.000 N 
ATOM     11  H   UNL     1       2.319   7.494  17.049  0.00  0.00    +0.000 HD
ATOM     12  H   UNL     1       3.022   8.872  17.588  0.00  0.00    +0.000 HD
ENDBRANCH   8  10
BRANCH   6  13
ATOM     13  S   UNL     1       0.470   9.024  22.008  0.00  0.00    +0.000 S 
ATOM     14  H   UNL     1       1.541   9.187  22.794  0.00  0.00    +0.000 HD
ENDBRANCH   6  13
ENDBRANCH   2   3
BRANCH   1  15
ATOM     15  C   UNL     1       3.186   3.246  17.478  0.00  0.00    +0.000 C 
ATOM     16  O   UNL     1       2.093   3.448  16.982  0.00  0.00    +0.000 OA
BRANCH  15  18
ATOM     17  C   UNL     1       3.821   1.888  19.274  0.00  0.00    +0.000 C 
ATOM     18  O   UNL     1       3.701   2.061  17.860  0.00  0.00    +0.000 OA
ENDBRANCH  15  18
ENDBRANCH   1  15
BRANCH   1  19
ATOM     19  C   UNL     1       5.498   4.344  17.083  0.00  0.00    +0.000 C 
BRANCH  19  20
ATOM     20  C   UNL     1       6.404   5.455  17.613  0.00  0.00    +0.000 A 
ATOM     21  C   UNL     1       6.433   6.692  16.945  0.00  0.00    +0.000 A 
ATOM     22  C   UNL     1       7.314   7.699  17.342  0.00  0.00    +0.000 A 
ATOM     23  C   UNL     1       8.180   7.486  18.412  0.00  0.00    +0.000 A 
ATOM     24  C   UNL     1       8.160   6.270  19.090  0.00  0.00    +0.000 A 
ATOM     25  C   UNL     1       7.283   5.259  18.693  0.00  0.00    +0.000 A 
ENDBRANCH  19  20
BRANCH  19  26
ATOM     26  C   UNL     1       5.260   4.392  15.631  0.00  0.00    +0.000 C 
ATOM     27  N   UNL     1       5.094   4.426  14.482  0.00  0.00    +0.000 NA
ENDBRANCH  19  26
ENDBRANCH   1  19
TORSDOF 8
ENDMDL
MODEL 9
REMARK VINA RESULT:      -6.5      2.649      4.497
REMARK  Name = 
REMARK  9 active torsions:
REMARK  status: ('A' for Active; 'I' for Inactive)
REMARK    1  A    between atoms: C_1  and  O_2
REMARK    2  A    between atoms: O_2  and  C_3
REMARK    3  A    between atoms: C_3  and  C_5
REMARK    4  A    between atoms: C_5  and  C_15
REMARK    5  A    between atoms: N_6  and  N_7
REMARK    6  A    between atoms: C_10  and  S_11
REMARK    7  A    between atoms: N_13  and  N_14
REMARK    8  A    between atoms: C_15  and  C_16
REMARK    9  A    between atoms: C_15  and  C_18
REMARK                            x       y       z     vdW  Elec       q    Type
REMARK                         _______ _______ _______ _____ _____    ______ ____
ROOT
ATOM      1  C   UNL     1       3.259   4.277  20.210  0.00  0.00    +0.000 C 
ATOM      2  N   UNL     1       3.095   5.562  20.047  0.00  0.00    +0.000 NA
ENDROOT
BRANCH   2   3
ATOM      3  N   UNL     1       2.094   6.220  20.701  0.00  0.00    +0.000 N 
ATOM      4  C   UNL     1       1.729   7.485  20.346  0.00  0.00    +0.000 A 
ATOM      5  N   UNL     1       1.265   8.442  21.119  0.00  0.00    +0.000 NA
ATOM      6  C   UNL     1       1.219   9.514  20.271  0.00  0.00    +0.000 A 
ATOM      7  N   UNL     1       1.589   9.283  19.013  0.00  0.00    +0.000 NA
ATOM      8  N   UNL     1       1.847   7.976  19.048  0.00  0.00    +0.000 N 
ATOM      9  H   UNL     1       1.817   5.930  21.646  0.00  0.00    +0.000 HD
BRANCH   8  10
ATOM     10  N   UNL     1       2.223   7.253  17.895  0.00  0.00    +0.000 N 
ATOM     11  H   UNL     1       3.005   6.652  18.128  0.00  0.00    +0.000 HD
ATOM     12  H   UNL     1       1.442   6.649  17.639  0.00  0.00    +0.000 HD
ENDBRANCH   8  10
BRANCH   6  13
ATOM     13  S   UNL     1       0.764  11.109  20.795  0.00  0.00    +0.000 S 
ATOM     14  H   UNL     1       0.789  11.677  19.584  0.00  0.00    +0.000 HD
ENDBRANCH   6  13
ENDBRANCH   2   3
BRANCH   1  15
ATOM     15  C   UNL     1       2.370   3.397  21.079  0.00  0.00    +0.000 C 
ATOM     16  O   UNL     1       2.822   2.603  21.883  0.00  0.00    +0.000 OA
BRANCH  15  18
ATOM     17  C   UNL     1       0.608   2.911  19.619  0.00  0.00    +0.000 C 
ATOM     18  O   UNL     1       1.073   3.604  20.780  0.00  0.00    +0.000 OA
ENDBRANCH  15  18
ENDBRANCH   1  15
BRANCH   1  19
ATOM     19  C   UNL     1       4.425   3.587  19.515  0.00  0.00    +0.000 C 
BRANCH  19  20
ATOM     20  C   UNL     1       5.157   4.577  18.609  0.00  0.00    +0.000 A 
ATOM     21  C   UNL     1       6.261   5.284  19.118  0.00  0.00    +0.000 A 
ATOM     22  C   UNL     1       6.898   6.263  18.353  0.00  0.00    +0.000 A 
ATOM     23  C   UNL     1       6.442   6.550  17.069  0.00  0.00    +0.000 A 
ATOM     24  C   UNL     1       5.356   5.855  16.546  0.00  0.00    +0.000 A 
ATOM     25  C   UNL     1       4.714   4.878  17.309  0.00  0.00    +0.000 A 
ENDBRANCH  19  20
BRANCH  19  26
ATOM     26  C   UNL     1       3.927   2.385  18.827  0.00  0.00    +0.000 C 
ATOM     27  N   UNL     1       3.554   1.426  18.287  0.00  0.00    +0.000 NA
ENDBRANCH  19  26
ENDBRANCH   1  19
TORSDOF 8
ENDMDL
