MODEL 1
REMARK VINA RESULT:      -7.7      0.000      0.000
REMARK  Name = 
REMARK  9 active torsions:
REMARK  status: ('A' for Active; 'I' for Inactive)
REMARK    1  A    between atoms: C_1  and  N_2
REMARK    2  A    between atoms: N_2  and  C_3
REMARK    3  A    between atoms: N_2  and  C_4
REMARK    4  A    between atoms: C_4  and  C_5
REMARK    5  A    between atoms: C_5  and  O_6
REMARK    6  A    between atoms: O_6  and  C_7
REMARK    7  A    between atoms: C_9  and  C_10
REMARK    8  A    between atoms: C_17  and  N_18
REMARK    9  A    between atoms: C_19  and  C_21
REMARK                            x       y       z     vdW  Elec       q    Type
REMARK                         _______ _______ _______ _____ _____    ______ ____
ROOT
ATOM      1  C   UNL     1       0.488  10.057  19.234  0.00  0.00    +0.000 A 
ATOM      2  C   UNL     1       1.281   9.129  18.502  0.00  0.00    +0.000 A 
ATOM      3  C   UNL     1       1.911   8.038  19.123  0.00  0.00    +0.000 A 
ATOM      4  C   UNL     1       1.737   7.917  20.500  0.00  0.00    +0.000 A 
ATOM      5  C   UNL     1       0.958   8.830  21.236  0.00  0.00    +0.000 A 
ATOM      6  C   UNL     1       0.301   9.905  20.628  0.00  0.00    +0.000 A 
ENDROOT
BRANCH   3   7
ATOM      7  C   UNL     1       2.686   7.048  18.364  0.00  0.00    +0.000 A 
ATOM      8  C   UNL     1       2.563   5.638  18.252  0.00  0.00    +0.000 A 
ATOM      9  N   UNL     1       3.508   5.081  17.480  0.00  0.00    +0.000 NA
ATOM     10  N   UNL     1       4.253   6.146  17.097  0.00  0.00    +0.000 N 
ATOM     11  C   UNL     1       3.815   7.329  17.592  0.00  0.00    +0.000 A 
ATOM     12  H   UNL     1       5.057   5.965  16.507  0.00  0.00    +0.000 HD
ENDBRANCH   3   7
BRANCH   6  13
ATOM     13  N   UNL     1      -0.568  10.756  21.388  0.00  0.00    +0.000 N 
ATOM     14  C   UNL     1      -0.322  12.068  21.819  0.00  0.00    +0.000 C 
ATOM     15  O   UNL     1       0.697  12.718  21.608  0.00  0.00    +0.000 OA
ATOM     16  H   UNL     1      -1.474  10.365  21.599  0.00  0.00    +0.000 HD
BRANCH  14  17
ATOM     17  C   UNL     1      -1.494  12.685  22.585  0.00  0.00    +0.000 C 
ATOM     18  C   UNL     1      -2.386  11.695  23.351  0.00  0.00    +0.000 C 
ATOM     19  O   UNL     1      -3.428  12.484  24.035  0.00  0.00    +0.000 OA
ATOM     20  C   UNL     1      -4.308  12.970  23.084  0.00  0.00    +0.000 A 
ATOM     21  C   UNL     1      -5.660  13.066  23.360  0.00  0.00    +0.000 A 
ATOM     22  C   UNL     1      -6.542  12.789  22.321  0.00  0.00    +0.000 A 
ATOM     23  C   UNL     1      -6.023  12.402  21.081  0.00  0.00    +0.000 A 
ATOM     24 CL   UNL     1      -7.044  11.595  19.955  0.00  0.00    +0.000 Cl
ATOM     25  C   UNL     1      -4.671  12.604  20.778  0.00  0.00    +0.000 A 
ATOM     26  C   UNL     1      -3.833  13.068  21.779  0.00  0.00    +0.000 A 
ATOM     27  C   UNL     1      -2.398  13.506  21.656  0.00  0.00    +0.000 C 
ENDBRANCH  14  17
ENDBRANCH   6  13
BRANCH   1  28
ATOM     28  O   UNL     1      -0.094  11.002  18.417  0.00  0.00    +0.000 OA
BRANCH  28  29
ATOM     29  C   UNL     1      -1.520  10.987  18.295  0.00  0.00    +0.000 C 
BRANCH  29  30
ATOM     30  C   UNL     1      -1.927  10.171  17.050  0.00  0.00    +0.000 C 
BRANCH  30  32
ATOM     31  C   UNL     1      -2.943  10.161  14.830  0.00  0.00    +0.000 C 
ATOM     32  N   UNL     1      -2.732  10.923  16.062  0.00  0.00    +0.000 NA
ATOM     33  C   UNL     1      -4.024  11.288  16.653  0.00  0.00    +0.000 C 
ENDBRANCH  30  32
ENDBRANCH  29  30
ENDBRANCH  28  29
ENDBRANCH   1  28
TORSDOF 7
ENDMDL
MODEL 2
REMARK VINA RESULT:      -7.5      3.251      5.994
REMARK  Name = 
REMARK  9 active torsions:
REMARK  status: ('A' for Active; 'I' for Inactive)
REMARK    1  A    between atoms: C_1  and  N_2
REMARK    2  A    between atoms: N_2  and  C_3
REMARK    3  A    between atoms: N_2  and  C_4
REMARK    4  A    between atoms: C_4  and  C_5
REMARK    5  A    between atoms: C_5  and  O_6
REMARK    6  A    between atoms: O_6  and  C_7
REMARK    7  A    between atoms: C_9  and  C_10
REMARK    8  A    between atoms: C_17  and  N_18
REMARK    9  A    between atoms: C_19  and  C_21
REMARK                            x       y       z     vdW  Elec       q    Type
REMARK                         _______ _______ _______ _____ _____    ______ ____
ROOT
ATOM      1  C   UNL     1       3.217   6.315  18.841  0.00  0.00    +0.000 A 
ATOM      2  C   UNL     1       3.776   5.008  18.784  0.00  0.00    +0.000 A 
ATOM      3  C   UNL     1       3.384   3.993  19.673  0.00  0.00    +0.000 A 
ATOM      4  C   UNL     1       2.430   4.333  20.629  0.00  0.00    +0.000 A 
ATOM      5  C   UNL     1       1.872   5.624  20.698  0.00  0.00    +0.000 A 
ATOM      6  C   UNL     1       2.231   6.638  19.803  0.00  0.00    +0.000 A 
ENDROOT
BRANCH   3   7
ATOM      7  C   UNL     1       3.919   2.627  19.583  0.00  0.00    +0.000 A 
ATOM      8  C   UNL     1       4.800   1.901  20.426  0.00  0.00    +0.000 A 
ATOM      9  N   UNL     1       5.085   0.674  19.966  0.00  0.00    +0.000 NA
ATOM     10  N   UNL     1       4.386   0.614  18.808  0.00  0.00    +0.000 N 
ATOM     11  C   UNL     1       3.683   1.739  18.531  0.00  0.00    +0.000 A 
ATOM     12  H   UNL     1       4.462  -0.236  18.259  0.00  0.00    +0.000 HD
ENDBRANCH   3   7
BRANCH   6  13
ATOM     13  N   UNL     1       1.569   7.909  19.835  0.00  0.00    +0.000 N 
ATOM     14  C   UNL     1       1.397   8.761  20.937  0.00  0.00    +0.000 C 
ATOM     15  O   UNL     1       1.799   8.553  22.078  0.00  0.00    +0.000 OA
ATOM     16  H   UNL     1       1.223   8.235  18.944  0.00  0.00    +0.000 HD
BRANCH  14  17
ATOM     17  C   UNL     1       0.665  10.059  20.594  0.00  0.00    +0.000 C 
ATOM     18  C   UNL     1      -0.824  10.106  20.974  0.00  0.00    +0.000 C 
ATOM     19  O   UNL     1      -1.332  11.434  20.588  0.00  0.00    +0.000 OA
ATOM     20  C   UNL     1      -1.398  11.497  19.207  0.00  0.00    +0.000 A 
ATOM     21  C   UNL     1      -2.426  12.181  18.581  0.00  0.00    +0.000 A 
ATOM     22  C   UNL     1      -2.923  11.639  17.400  0.00  0.00    +0.000 A 
ATOM     23  C   UNL     1      -2.389  10.433  16.934  0.00  0.00    +0.000 A 
ATOM     24 CL   UNL     1      -3.279   9.502  15.792  0.00  0.00    +0.000 Cl
ATOM     25  C   UNL     1      -1.175   9.948  17.436  0.00  0.00    +0.000 A 
ATOM     26  C   UNL     1      -0.587  10.616  18.498  0.00  0.00    +0.000 A 
ATOM     27  C   UNL     1       0.775  10.383  19.098  0.00  0.00    +0.000 C 
ENDBRANCH  14  17
ENDBRANCH   6  13
BRANCH   1  28
ATOM     28  O   UNL     1       3.689   7.128  17.833  0.00  0.00    +0.000 OA
BRANCH  28  29
ATOM     29  C   UNL     1       5.041   6.940  17.405  0.00  0.00    +0.000 C 
BRANCH  29  30
ATOM     30  C   UNL     1       5.070   6.627  15.895  0.00  0.00    +0.000 C 
BRANCH  30  32
ATOM     31  C   UNL     1       7.000   5.311  16.605  0.00  0.00    +0.000 C 
ATOM     32  N   UNL     1       6.138   5.689  15.484  0.00  0.00    +0.000 NA
ATOM     33  C   UNL     1       5.540   4.491  14.886  0.00  0.00    +0.000 C 
ENDBRANCH  30  32
ENDBRANCH  29  30
ENDBRANCH  28  29
ENDBRANCH   1  28
TORSDOF 7
ENDMDL
MODEL 3
REMARK VINA RESULT:      -7.5      2.661      5.041
REMARK  Name = 
REMARK  9 active torsions:
REMARK  status: ('A' for Active; 'I' for Inactive)
REMARK    1  A    between atoms: C_1  and  N_2
REMARK    2  A    between atoms: N_2  and  C_3
REMARK    3  A    between atoms: N_2  and  C_4
REMARK    4  A    between atoms: C_4  and  C_5
REMARK    5  A    between atoms: C_5  and  O_6
REMARK    6  A    between atoms: O_6  and  C_7
REMARK    7  A    between atoms: C_9  and  C_10
REMARK    8  A    between atoms: C_17  and  N_18
REMARK    9  A    between atoms: C_19  and  C_21
REMARK                            x       y       z     vdW  Elec       q    Type
REMARK                         _______ _______ _______ _____ _____    ______ ____
ROOT
ATOM      1  C   UNL     1       2.410   6.403  19.649  0.00  0.00    +0.000 A 
ATOM      2  C   UNL     1       3.136   5.584  18.741  0.00  0.00    +0.000 A 
ATOM      3  C   UNL     1       3.756   6.112  17.595  0.00  0.00    +0.000 A 
ATOM      4  C   UNL     1       3.611   7.480  17.381  0.00  0.00    +0.000 A 
ATOM      5  C   UNL     1       2.892   8.302  18.271  0.00  0.00    +0.000 A 
ATOM      6  C   UNL     1       2.292   7.796  19.430  0.00  0.00    +0.000 A 
ENDROOT
BRANCH   3   7
ATOM      7  C   UNL     1       4.552   5.278  16.684  0.00  0.00    +0.000 A 
ATOM      8  C   UNL     1       4.861   3.893  16.700  0.00  0.00    +0.000 A 
ATOM      9  N   UNL     1       5.668   3.517  15.697  0.00  0.00    +0.000 NA
ATOM     10  N   UNL     1       5.888   4.677  15.033  0.00  0.00    +0.000 N 
ATOM     11  C   UNL     1       5.257   5.748  15.574  0.00  0.00    +0.000 A 
ATOM     12  H   UNL     1       6.501   4.645  14.226  0.00  0.00    +0.000 HD
ENDBRANCH   3   7
BRANCH   6  13
ATOM     13  N   UNL     1       1.657   8.675  20.367  0.00  0.00    +0.000 N 
ATOM     14  C   UNL     1       0.768   9.725  20.093  0.00  0.00    +0.000 C 
ATOM     15  O   UNL     1       0.377  10.068  18.981  0.00  0.00    +0.000 OA
ATOM     16  H   UNL     1       1.852   8.480  21.338  0.00  0.00    +0.000 HD
BRANCH  14  17
ATOM     17  C   UNL     1       0.259  10.434  21.349  0.00  0.00    +0.000 C 
ATOM     18  C   UNL     1      -0.866   9.716  22.112  0.00  0.00    +0.000 C 
ATOM     19  O   UNL     1      -1.191  10.540  23.290  0.00  0.00    +0.000 OA
ATOM     20  C   UNL     1      -1.837  11.686  22.862  0.00  0.00    +0.000 A 
ATOM     21  C   UNL     1      -2.860  12.240  23.612  0.00  0.00    +0.000 A 
ATOM     22  C   UNL     1      -3.926  12.800  22.916  0.00  0.00    +0.000 A 
ATOM     23  C   UNL     1      -3.924  12.744  21.519  0.00  0.00    +0.000 A 
ATOM     24 CL   UNL     1      -5.401  12.967  20.664  0.00  0.00    +0.000 Cl
ATOM     25  C   UNL     1      -2.749  12.443  20.818  0.00  0.00    +0.000 A 
ATOM     26  C   UNL     1      -1.628  12.069  21.540  0.00  0.00    +0.000 A 
ATOM     27  C   UNL     1      -0.228  11.854  21.030  0.00  0.00    +0.000 C 
ENDBRANCH  14  17
ENDBRANCH   6  13
BRANCH   1  28
ATOM     28  O   UNL     1       1.950   5.694  20.737  0.00  0.00    +0.000 OA
BRANCH  28  29
ATOM     29  C   UNL     1       1.202   4.500  20.485  0.00  0.00    +0.000 C 
BRANCH  29  30
ATOM     30  C   UNL     1       1.799   3.331  21.295  0.00  0.00    +0.000 C 
BRANCH  30  32
ATOM     31  C   UNL     1       1.688   2.144  19.164  0.00  0.00    +0.000 C 
ATOM     32  N   UNL     1       2.343   2.229  20.470  0.00  0.00    +0.000 NA
ATOM     33  C   UNL     1       3.788   2.411  20.296  0.00  0.00    +0.000 C 
ENDBRANCH  30  32
ENDBRANCH  29  30
ENDBRANCH  28  29
ENDBRANCH   1  28
TORSDOF 7
ENDMDL
MODEL 4
REMARK VINA RESULT:      -7.5      3.196      5.591
REMARK  Name = 
REMARK  9 active torsions:
REMARK  status: ('A' for Active; 'I' for Inactive)
REMARK    1  A    between atoms: C_1  and  N_2
REMARK    2  A    between atoms: N_2  and  C_3
REMARK    3  A    between atoms: N_2  and  C_4
REMARK    4  A    between atoms: C_4  and  C_5
REMARK    5  A    between atoms: C_5  and  O_6
REMARK    6  A    between atoms: O_6  and  C_7
REMARK    7  A    between atoms: C_9  and  C_10
REMARK    8  A    between atoms: C_17  and  N_18
REMARK    9  A    between atoms: C_19  and  C_21
REMARK                            x       y       z     vdW  Elec       q    Type
REMARK                         _______ _______ _______ _____ _____    ______ ____
ROOT
ATOM      1  C   UNL     1       2.684   6.633  19.388  0.00  0.00    +0.000 A 
ATOM      2  C   UNL     1       3.879   5.909  19.117  0.00  0.00    +0.000 A 
ATOM      3  C   UNL     1       4.697   6.212  18.016  0.00  0.00    +0.000 A 
ATOM      4  C   UNL     1       4.273   7.248  17.188  0.00  0.00    +0.000 A 
ATOM      5  C   UNL     1       3.091   7.970  17.443  0.00  0.00    +0.000 A 
ATOM      6  C   UNL     1       2.279   7.699  18.551  0.00  0.00    +0.000 A 
ENDROOT
BRANCH   3   7
ATOM      7  C   UNL     1       5.959   5.503  17.764  0.00  0.00    +0.000 A 
ATOM      8  C   UNL     1       6.592   5.104  16.558  0.00  0.00    +0.000 A 
ATOM      9  N   UNL     1       7.734   4.428  16.755  0.00  0.00    +0.000 NA
ATOM     10  N   UNL     1       7.831   4.384  18.105  0.00  0.00    +0.000 N 
ATOM     11  C   UNL     1       6.810   5.000  18.750  0.00  0.00    +0.000 A 
ATOM     12  H   UNL     1       8.626   3.895  18.500  0.00  0.00    +0.000 HD
ENDBRANCH   3   7
BRANCH   6  13
ATOM     13  N   UNL     1       1.139   8.519  18.840  0.00  0.00    +0.000 N 
ATOM     14  C   UNL     1       1.029   9.912  18.712  0.00  0.00    +0.000 C 
ATOM     15  O   UNL     1       1.909  10.672  18.318  0.00  0.00    +0.000 OA
ATOM     16  H   UNL     1       0.314   8.018  19.135  0.00  0.00    +0.000 HD
BRANCH  14  17
ATOM     17  C   UNL     1      -0.354  10.448  19.082  0.00  0.00    +0.000 C 
ATOM     18  C   UNL     1      -0.733  11.804  18.464  0.00  0.00    +0.000 C 
ATOM     19  O   UNL     1      -2.098  12.127  18.919  0.00  0.00    +0.000 OA
ATOM     20  C   UNL     1      -2.050  12.442  20.265  0.00  0.00    +0.000 A 
ATOM     21  C   UNL     1      -2.869  13.428  20.787  0.00  0.00    +0.000 A 
ATOM     22  C   UNL     1      -2.337  14.231  21.790  0.00  0.00    +0.000 A 
ATOM     23  C   UNL     1      -1.012  14.023  22.188  0.00  0.00    +0.000 A 
ATOM     24 CL   UNL     1      -0.182  15.269  23.039  0.00  0.00    +0.000 Cl
ATOM     25  C   UNL     1      -0.339  12.844  21.844  0.00  0.00    +0.000 A 
ATOM     26  C   UNL     1      -0.966  11.954  20.988  0.00  0.00    +0.000 A 
ATOM     27  C   UNL     1      -0.517  10.568  20.603  0.00  0.00    +0.000 C 
ENDBRANCH  14  17
ENDBRANCH   6  13
BRANCH   1  28
ATOM     28  O   UNL     1       2.077   6.219  20.554  0.00  0.00    +0.000 OA
BRANCH  28  29
ATOM     29  C   UNL     1       2.228   4.847  20.933  0.00  0.00    +0.000 C 
BRANCH  29  30
ATOM     30  C   UNL     1       1.042   4.024  20.390  0.00  0.00    +0.000 C 
BRANCH  30  32
ATOM     31  C   UNL     1       0.807   2.261  18.717  0.00  0.00    +0.000 C 
ATOM     32  N   UNL     1       1.385   2.635  20.009  0.00  0.00    +0.000 NA
ATOM     33  C   UNL     1       2.842   2.479  19.972  0.00  0.00    +0.000 C 
ENDBRANCH  30  32
ENDBRANCH  29  30
ENDBRANCH  28  29
ENDBRANCH   1  28
TORSDOF 7
ENDMDL
MODEL 5
REMARK VINA RESULT:      -7.5      3.373      5.754
REMARK  Name = 
REMARK  9 active torsions:
REMARK  status: ('A' for Active; 'I' for Inactive)
REMARK    1  A    between atoms: C_1  and  N_2
REMARK    2  A    between atoms: N_2  and  C_3
REMARK    3  A    between atoms: N_2  and  C_4
REMARK    4  A    between atoms: C_4  and  C_5
REMARK    5  A    between atoms: C_5  and  O_6
REMARK    6  A    between atoms: O_6  and  C_7
REMARK    7  A    between atoms: C_9  and  C_10
REMARK    8  A    between atoms: C_17  and  N_18
REMARK    9  A    between atoms: C_19  and  C_21
REMARK                            x       y       z     vdW  Elec       q    Type
REMARK                         _______ _______ _______ _____ _____    ______ ____
ROOT
ATOM      1  C   UNL     1       2.637   6.348  19.237  0.00  0.00    +0.000 A 
ATOM      2  C   UNL     1       3.809   5.641  18.849  0.00  0.00    +0.000 A 
ATOM      3  C   UNL     1       4.705   6.153  17.895  0.00  0.00    +0.000 A 
ATOM      4  C   UNL     1       4.381   7.385  17.333  0.00  0.00    +0.000 A 
ATOM      5  C   UNL     1       3.223   8.094  17.706  0.00  0.00    +0.000 A 
ATOM      6  C   UNL     1       2.336   7.611  18.674  0.00  0.00    +0.000 A 
ENDROOT
BRANCH   3   7
ATOM      7  C   UNL     1       5.943   5.451  17.531  0.00  0.00    +0.000 A 
ATOM      8  C   UNL     1       6.468   5.055  16.273  0.00  0.00    +0.000 A 
ATOM      9  N   UNL     1       7.626   4.385  16.367  0.00  0.00    +0.000 NA
ATOM     10  N   UNL     1       7.844   4.342  17.703  0.00  0.00    +0.000 N 
ATOM     11  C   UNL     1       6.881   4.953  18.437  0.00  0.00    +0.000 A 
ATOM     12  H   UNL     1       8.674   3.857  18.026  0.00  0.00    +0.000 HD
ENDBRANCH   3   7
BRANCH   6  13
ATOM     13  N   UNL     1       1.223   8.404  19.107  0.00  0.00    +0.000 N 
ATOM     14  C   UNL     1       0.986   8.925  20.388  0.00  0.00    +0.000 C 
ATOM     15  O   UNL     1       1.712   8.787  21.368  0.00  0.00    +0.000 OA
ATOM     16  H   UNL     1       0.556   8.638  18.386  0.00  0.00    +0.000 HD
BRANCH  14  17
ATOM     17  C   UNL     1      -0.295   9.755  20.480  0.00  0.00    +0.000 C 
ATOM     18  C   UNL     1      -0.607  10.638  19.260  0.00  0.00    +0.000 C 
ATOM     19  O   UNL     1      -1.880  11.328  19.534  0.00  0.00    +0.000 OA
ATOM     20  C   UNL     1      -1.664  12.279  20.515  0.00  0.00    +0.000 A 
ATOM     21  C   UNL     1      -2.329  13.493  20.477  0.00  0.00    +0.000 A 
ATOM     22  C   UNL     1      -1.622  14.617  20.892  0.00  0.00    +0.000 A 
ATOM     23  C   UNL     1      -0.288  14.467  21.287  0.00  0.00    +0.000 A 
ATOM     24 CL   UNL     1       0.738  15.848  21.329  0.00  0.00    +0.000 Cl
ATOM     25  C   UNL     1       0.231  13.201  21.582  0.00  0.00    +0.000 A 
ATOM     26  C   UNL     1      -0.561  12.091  21.342  0.00  0.00    +0.000 A 
ATOM     27  C   UNL     1      -0.287  10.659  21.719  0.00  0.00    +0.000 C 
ENDBRANCH  14  17
ENDBRANCH   6  13
BRANCH   1  28
ATOM     28  O   UNL     1       1.944   5.699  20.236  0.00  0.00    +0.000 OA
BRANCH  28  29
ATOM     29  C   UNL     1       2.553   4.548  20.829  0.00  0.00    +0.000 C 
BRANCH  29  30
ATOM     30  C   UNL     1       1.515   3.413  20.948  0.00  0.00    +0.000 C 
BRANCH  30  32
ATOM     31  C   UNL     1       0.828   2.554  18.768  0.00  0.00    +0.000 C 
ATOM     32  N   UNL     1       1.668   2.335  19.946  0.00  0.00    +0.000 NA
ATOM     33  C   UNL     1       3.075   2.230  19.546  0.00  0.00    +0.000 C 
ENDBRANCH  30  32
ENDBRANCH  29  30
ENDBRANCH  28  29
ENDBRANCH   1  28
TORSDOF 7
ENDMDL
MODEL 6
REMARK VINA RESULT:      -7.4      3.424      5.801
REMARK  Name = 
REMARK  9 active torsions:
REMARK  status: ('A' for Active; 'I' for Inactive)
REMARK    1  A    between atoms: C_1  and  N_2
REMARK    2  A    between atoms: N_2  and  C_3
REMARK    3  A    between atoms: N_2  and  C_4
REMARK    4  A    between atoms: C_4  and  C_5
REMARK    5  A    between atoms: C_5  and  O_6
REMARK    6  A    between atoms: O_6  and  C_7
REMARK    7  A    between atoms: C_9  and  C_10
REMARK    8  A    between atoms: C_17  and  N_18
REMARK    9  A    between atoms: C_19  and  C_21
REMARK                            x       y       z     vdW  Elec       q    Type
REMARK                         _______ _______ _______ _____ _____    ______ ____
ROOT
ATOM      1  C   UNL     1       2.639   6.405  19.479  0.00  0.00    +0.000 A 
ATOM      2  C   UNL     1       3.616   5.603  18.827  0.00  0.00    +0.000 A 
ATOM      3  C   UNL     1       4.304   6.052  17.686  0.00  0.00    +0.000 A 
ATOM      4  C   UNL     1       3.970   7.318  17.212  0.00  0.00    +0.000 A 
ATOM      5  C   UNL     1       3.002   8.120  17.847  0.00  0.00    +0.000 A 
ATOM      6  C   UNL     1       2.328   7.699  18.999  0.00  0.00    +0.000 A 
ENDROOT
BRANCH   3   7
ATOM      7  C   UNL     1       5.352   5.250  17.042  0.00  0.00    +0.000 A 
ATOM      8  C   UNL     1       6.753   5.445  16.927  0.00  0.00    +0.000 A 
ATOM      9  N   UNL     1       7.367   4.491  16.211  0.00  0.00    +0.000 NA
ATOM     10  N   UNL     1       6.346   3.677  15.852  0.00  0.00    +0.000 N 
ATOM     11  C   UNL     1       5.135   4.078  16.312  0.00  0.00    +0.000 A 
ATOM     12  H   UNL     1       6.569   2.874  15.275  0.00  0.00    +0.000 HD
ENDBRANCH   3   7
BRANCH   6  13
ATOM     13  N   UNL     1       1.425   8.580  19.681  0.00  0.00    +0.000 N 
ATOM     14  C   UNL     1       0.536   9.506  19.113  0.00  0.00    +0.000 C 
ATOM     15  O   UNL     1       0.382   9.715  17.914  0.00  0.00    +0.000 OA
ATOM     16  H   UNL     1       1.410   8.486  20.686  0.00  0.00    +0.000 HD
BRANCH  14  17
ATOM     17  C   UNL     1      -0.302  10.257  20.148  0.00  0.00    +0.000 C 
ATOM     18  C   UNL     1      -1.263  11.318  19.587  0.00  0.00    +0.000 C 
ATOM     19  O   UNL     1      -1.988  11.900  20.731  0.00  0.00    +0.000 OA
ATOM     20  C   UNL     1      -1.108  12.683  21.457  0.00  0.00    +0.000 A 
ATOM     21  C   UNL     1      -1.536  13.858  22.050  0.00  0.00    +0.000 A 
ATOM     22  C   UNL     1      -0.643  14.925  22.063  0.00  0.00    +0.000 A 
ATOM     23  C   UNL     1       0.607  14.765  21.455  0.00  0.00    +0.000 A 
ATOM     24 CL   UNL     1       1.517  16.160  21.022  0.00  0.00    +0.000 Cl
ATOM     25  C   UNL     1       1.090  13.490  21.139  0.00  0.00    +0.000 A 
ATOM     26  C   UNL     1       0.248  12.404  21.314  0.00  0.00    +0.000 A 
ATOM     27  C   UNL     1       0.586  10.941  21.196  0.00  0.00    +0.000 C 
ENDBRANCH  14  17
ENDBRANCH   6  13
BRANCH   1  28
ATOM     28  O   UNL     1       2.145   5.802  20.616  0.00  0.00    +0.000 OA
BRANCH  28  29
ATOM     29  C   UNL     1       1.129   4.807  20.453  0.00  0.00    +0.000 C 
BRANCH  29  30
ATOM     30  C   UNL     1       1.601   3.475  21.072  0.00  0.00    +0.000 C 
BRANCH  30  32
ATOM     31  C   UNL     1       0.962   2.559  18.901  0.00  0.00    +0.000 C 
ATOM     32  N   UNL     1       1.788   2.379  20.096  0.00  0.00    +0.000 NA
ATOM     33  C   UNL     1       3.203   2.289  19.719  0.00  0.00    +0.000 C 
ENDBRANCH  30  32
ENDBRANCH  29  30
ENDBRANCH  28  29
ENDBRANCH   1  28
TORSDOF 7
ENDMDL
MODEL 7
REMARK VINA RESULT:      -7.4      3.349      5.601
REMARK  Name = 
REMARK  9 active torsions:
REMARK  status: ('A' for Active; 'I' for Inactive)
REMARK    1  A    between atoms: C_1  and  N_2
REMARK    2  A    between atoms: N_2  and  C_3
REMARK    3  A    between atoms: N_2  and  C_4
REMARK    4  A    between atoms: C_4  and  C_5
REMARK    5  A    between atoms: C_5  and  O_6
REMARK    6  A    between atoms: O_6  and  C_7
REMARK    7  A    between atoms: C_9  and  C_10
REMARK    8  A    between atoms: C_17  and  N_18
REMARK    9  A    between atoms: C_19  and  C_21
REMARK                            x       y       z     vdW  Elec       q    Type
REMARK                         _______ _______ _______ _____ _____    ______ ____
ROOT
ATOM      1  C   UNL     1       2.312   6.940  19.427  0.00  0.00    +0.000 A 
ATOM      2  C   UNL     1       3.259   6.041  18.862  0.00  0.00    +0.000 A 
ATOM      3  C   UNL     1       4.033   6.384  17.741  0.00  0.00    +0.000 A 
ATOM      4  C   UNL     1       3.818   7.648  17.197  0.00  0.00    +0.000 A 
ATOM      5  C   UNL     1       2.882   8.546  17.745  0.00  0.00    +0.000 A 
ATOM      6  C   UNL     1       2.123   8.229  18.877  0.00  0.00    +0.000 A 
ENDROOT
BRANCH   3   7
ATOM      7  C   UNL     1       5.049   5.480  17.187  0.00  0.00    +0.000 A 
ATOM      8  C   UNL     1       5.207   4.917  15.894  0.00  0.00    +0.000 A 
ATOM      9  N   UNL     1       6.259   4.090  15.798  0.00  0.00    +0.000 NA
ATOM     10  N   UNL     1       6.778   4.114  17.049  0.00  0.00    +0.000 N 
ATOM     11  C   UNL     1       6.103   4.914  17.909  0.00  0.00    +0.000 A 
ATOM     12  H   UNL     1       7.591   3.535  17.228  0.00  0.00    +0.000 HD
ENDBRANCH   3   7
BRANCH   6  13
ATOM     13  N   UNL     1       1.256   9.204  19.472  0.00  0.00    +0.000 N 
ATOM     14  C   UNL     1       0.189   9.886  18.867  0.00  0.00    +0.000 C 
ATOM     15  O   UNL     1      -0.186   9.755  17.706  0.00  0.00    +0.000 OA
ATOM     16  H   UNL     1       1.419   9.383  20.452  0.00  0.00    +0.000 HD
BRANCH  14  17
ATOM     17  C   UNL     1      -0.542  10.836  19.818  0.00  0.00    +0.000 C 
ATOM     18  C   UNL     1      -1.826  11.476  19.266  0.00  0.00    +0.000 C 
ATOM     19  O   UNL     1      -2.385  12.325  20.334  0.00  0.00    +0.000 OA
ATOM     20  C   UNL     1      -1.569  13.432  20.490  0.00  0.00    +0.000 A 
ATOM     21  C   UNL     1      -2.112  14.670  20.788  0.00  0.00    +0.000 A 
ATOM     22  C   UNL     1      -1.513  15.783  20.207  0.00  0.00    +0.000 A 
ATOM     23  C   UNL     1      -0.433  15.591  19.339  0.00  0.00    +0.000 A 
ATOM     24 CL   UNL     1       0.003  16.848  18.247  0.00  0.00    +0.000 Cl
ATOM     25  C   UNL     1       0.248  14.368  19.305  0.00  0.00    +0.000 A 
ATOM     26  C   UNL     1      -0.255  13.313  20.047  0.00  0.00    +0.000 A 
ATOM     27  C   UNL     1       0.378  11.968  20.292  0.00  0.00    +0.000 C 
ENDBRANCH  14  17
ENDBRANCH   6  13
BRANCH   1  28
ATOM     28  O   UNL     1       1.720   6.428  20.561  0.00  0.00    +0.000 OA
BRANCH  28  29
ATOM     29  C   UNL     1       2.046   5.085  20.934  0.00  0.00    +0.000 C 
BRANCH  29  30
ATOM     30  C   UNL     1       0.925   4.130  20.476  0.00  0.00    +0.000 C 
BRANCH  30  32
ATOM     31  C   UNL     1       1.755   2.148  19.317  0.00  0.00    +0.000 C 
ATOM     32  N   UNL     1       1.263   2.693  20.583  0.00  0.00    +0.000 NA
ATOM     33  C   UNL     1       2.264   2.499  21.637  0.00  0.00    +0.000 C 
ENDBRANCH  30  32
ENDBRANCH  29  30
ENDBRANCH  28  29
ENDBRANCH   1  28
TORSDOF 7
ENDMDL
MODEL 8
REMARK VINA RESULT:      -7.3      3.070      5.596
REMARK  Name = 
REMARK  9 active torsions:
REMARK  status: ('A' for Active; 'I' for Inactive)
REMARK    1  A    between atoms: C_1  and  N_2
REMARK    2  A    between atoms: N_2  and  C_3
REMARK    3  A    between atoms: N_2  and  C_4
REMARK    4  A    between atoms: C_4  and  C_5
REMARK    5  A    between atoms: C_5  and  O_6
REMARK    6  A    between atoms: O_6  and  C_7
REMARK    7  A    between atoms: C_9  and  C_10
REMARK    8  A    between atoms: C_17  and  N_18
REMARK    9  A    between atoms: C_19  and  C_21
REMARK                            x       y       z     vdW  Elec       q    Type
REMARK                         _______ _______ _______ _____ _____    ______ ____
ROOT
ATOM      1  C   UNL     1       2.661   6.566  19.186  0.00  0.00    +0.000 A 
ATOM      2  C   UNL     1       3.879   5.840  19.069  0.00  0.00    +0.000 A 
ATOM      3  C   UNL     1       4.847   6.165  18.103  0.00  0.00    +0.000 A 
ATOM      4  C   UNL     1       4.550   7.226  17.252  0.00  0.00    +0.000 A 
ATOM      5  C   UNL     1       3.346   7.950  17.356  0.00  0.00    +0.000 A 
ATOM      6  C   UNL     1       2.384   7.657  18.329  0.00  0.00    +0.000 A 
ENDROOT
BRANCH   3   7
ATOM      7  C   UNL     1       6.129   5.453  18.014  0.00  0.00    +0.000 A 
ATOM      8  C   UNL     1       7.201   5.320  18.934  0.00  0.00    +0.000 A 
ATOM      9  N   UNL     1       8.233   4.612  18.451  0.00  0.00    +0.000 NA
ATOM     10  N   UNL     1       7.823   4.293  17.201  0.00  0.00    +0.000 N 
ATOM     11  C   UNL     1       6.591   4.766  16.889  0.00  0.00    +0.000 A 
ATOM     12  H   UNL     1       8.461   3.760  16.621  0.00  0.00    +0.000 HD
ENDBRANCH   3   7
BRANCH   6  13
ATOM     13  N   UNL     1       1.218   8.478  18.476  0.00  0.00    +0.000 N 
ATOM     14  C   UNL     1       1.141   9.878  18.413  0.00  0.00    +0.000 C 
ATOM     15  O   UNL     1       2.078  10.644  18.215  0.00  0.00    +0.000 OA
ATOM     16  H   UNL     1       0.352   7.975  18.602  0.00  0.00    +0.000 HD
BRANCH  14  17
ATOM     17  C   UNL     1      -0.281  10.416  18.584  0.00  0.00    +0.000 C 
ATOM     18  C   UNL     1      -0.472  11.909  18.270  0.00  0.00    +0.000 C 
ATOM     19  O   UNL     1      -1.900  12.218  18.468  0.00  0.00    +0.000 OA
ATOM     20  C   UNL     1      -2.175  12.184  19.824  0.00  0.00    +0.000 A 
ATOM     21  C   UNL     1      -3.077  13.072  20.382  0.00  0.00    +0.000 A 
ATOM     22  C   UNL     1      -2.788  13.554  21.655  0.00  0.00    +0.000 A 
ATOM     23  C   UNL     1      -1.604  13.148  22.278  0.00  0.00    +0.000 A 
ATOM     24 CL   UNL     1      -0.982  14.071  23.590  0.00  0.00    +0.000 Cl
ATOM     25  C   UNL     1      -0.890  12.041  21.802  0.00  0.00    +0.000 A 
ATOM     26  C   UNL     1      -1.307  11.445  20.623  0.00  0.00    +0.000 A 
ATOM     27  C   UNL     1      -0.806  10.167  20.004  0.00  0.00    +0.000 C 
ENDBRANCH  14  17
ENDBRANCH   6  13
BRANCH   1  28
ATOM     28  O   UNL     1       1.893   6.127  20.243  0.00  0.00    +0.000 OA
BRANCH  28  29
ATOM     29  C   UNL     1       2.310   4.936  20.919  0.00  0.00    +0.000 C 
BRANCH  29  30
ATOM     30  C   UNL     1       1.375   3.769  20.544  0.00  0.00    +0.000 C 
BRANCH  30  32
ATOM     31  C   UNL     1       2.931   2.248  19.435  0.00  0.00    +0.000 C 
ATOM     32  N   UNL     1       1.734   3.077  19.286  0.00  0.00    +0.000 NA
ATOM     33  C   UNL     1       0.606   2.253  18.837  0.00  0.00    +0.000 C 
ENDBRANCH  30  32
ENDBRANCH  29  30
ENDBRANCH  28  29
ENDBRANCH   1  28
TORSDOF 7
ENDMDL
MODEL 9
REMARK VINA RESULT:      -7.3      3.235      5.881
REMARK  Name = 
REMARK  9 active torsions:
REMARK  status: ('A' for Active; 'I' for Inactive)
REMARK    1  A    between atoms: C_1  and  N_2
REMARK    2  A    between atoms: N_2  and  C_3
REMARK    3  A    between atoms: N_2  and  C_4
REMARK    4  A    between atoms: C_4  and  C_5
REMARK    5  A    between atoms: C_5  and  O_6
REMARK    6  A    between atoms: O_6  and  C_7
REMARK    7  A    between atoms: C_9  and  C_10
REMARK    8  A    between atoms: C_17  and  N_18
REMARK    9  A    between atoms: C_19  and  C_21
REMARK                            x       y       z     vdW  Elec       q    Type
REMARK                         _______ _______ _______ _____ _____    ______ ____
ROOT
ATOM      1  C   UNL     1       3.679   5.547  19.081  0.00  0.00    +0.000 A 
ATOM      2  C   UNL     1       4.458   4.923  18.067  0.00  0.00    +0.000 A 
ATOM      3  C   UNL     1       4.803   5.588  16.879  0.00  0.00    +0.000 A 
ATOM      4  C   UNL     1       4.330   6.890  16.732  0.00  0.00    +0.000 A 
ATOM      5  C   UNL     1       3.555   7.518  17.726  0.00  0.00    +0.000 A 
ATOM      6  C   UNL     1       3.226   6.879  18.927  0.00  0.00    +0.000 A 
ENDROOT
BRANCH   3   7
ATOM      7  C   UNL     1       5.652   4.967  15.854  0.00  0.00    +0.000 A 
ATOM      8  C   UNL     1       7.001   5.199  15.479  0.00  0.00    +0.000 A 
ATOM      9  N   UNL     1       7.405   4.441  14.449  0.00  0.00    +0.000 NA
ATOM     10  N   UNL     1       6.298   3.719  14.152  0.00  0.00    +0.000 N 
ATOM     11  C   UNL     1       5.235   3.991  14.947  0.00  0.00    +0.000 A 
ATOM     12  H   UNL     1       6.358   3.071  13.373  0.00  0.00    +0.000 HD
ENDBRANCH   3   7
BRANCH   6  13
ATOM     13  N   UNL     1       2.525   7.581  19.961  0.00  0.00    +0.000 N 
ATOM     14  C   UNL     1       1.592   8.619  19.814  0.00  0.00    +0.000 C 
ATOM     15  O   UNL     1       1.213   9.103  18.752  0.00  0.00    +0.000 OA
ATOM     16  H   UNL     1       2.706   7.255  20.900  0.00  0.00    +0.000 HD
BRANCH  14  17
ATOM     17  C   UNL     1       1.018   9.113  21.143  0.00  0.00    +0.000 C 
ATOM     18  C   UNL     1      -0.405   8.635  21.474  0.00  0.00    +0.000 C 
ATOM     19  O   UNL     1      -0.758   9.193  22.792  0.00  0.00    +0.000 OA
ATOM     20  C   UNL     1      -0.950  10.557  22.656  0.00  0.00    +0.000 A 
ATOM     21  C   UNL     1      -1.928  11.207  23.389  0.00  0.00    +0.000 A 
ATOM     22  C   UNL     1      -2.609  12.243  22.759  0.00  0.00    +0.000 A 
ATOM     23  C   UNL     1      -2.297  12.545  21.429  0.00  0.00    +0.000 A 
ATOM     24 CL   UNL     1      -3.417  13.451  20.486  0.00  0.00    +0.000 Cl
ATOM     25  C   UNL     1      -1.120  12.064  20.845  0.00  0.00    +0.000 A 
ATOM     26  C   UNL     1      -0.343  11.172  21.565  0.00  0.00    +0.000 A 
ATOM     27  C   UNL     1       1.025  10.645  21.219  0.00  0.00    +0.000 C 
ENDBRANCH  14  17
ENDBRANCH   6  13
BRANCH   1  28
ATOM     28  O   UNL     1       3.522   4.742  20.188  0.00  0.00    +0.000 OA
BRANCH  28  29
ATOM     29  C   UNL     1       3.856   3.356  20.055  0.00  0.00    +0.000 C 
BRANCH  29  30
ATOM     30  C   UNL     1       2.601   2.493  20.297  0.00  0.00    +0.000 C 
BRANCH  30  32
ATOM     31  C   UNL     1       0.922   2.895  18.570  0.00  0.00    +0.000 C 
ATOM     32  N   UNL     1       1.959   1.987  19.063  0.00  0.00    +0.000 NA
ATOM     33  C   UNL     1       2.977   1.778  18.028  0.00  0.00    +0.000 C 
ENDBRANCH  30  32
ENDBRANCH  29  30
ENDBRANCH  28  29
ENDBRANCH   1  28
TORSDOF 7
ENDMDL
