MODEL 1
REMARK VINA RESULT:      -8.3      0.000      0.000
REMARK  Name = 
REMARK  2 active torsions:
REMARK  status: ('A' for Active; 'I' for Inactive)
REMARK    1  A    between atoms: C_5  and  C_6
REMARK    2  A    between atoms: C_14  and  C_15
REMARK                            x       y       z     vdW  Elec       q    Type
REMARK                         _______ _______ _______ _____ _____    ______ ____
ROOT
ATOM      1 CL   UNL     1       7.688   6.893  16.824  0.00  0.00    +0.000 Cl
ATOM      2  C   UNL     1       6.271   5.934  17.063  0.00  0.00    +0.000 A 
ATOM      3  N   UNL     1       5.758   6.161  18.300  0.00  0.00    +0.000 NA
ATOM      4  C   UNL     1       4.592   5.562  18.603  0.00  0.00    +0.000 A 
ATOM      5  C   UNL     1       3.900   4.727  17.737  0.00  0.00    +0.000 A 
ATOM      6  C   UNL     1       4.484   4.503  16.481  0.00  0.00    +0.000 A 
ATOM      7  C   UNL     1       5.703   5.100  16.090  0.00  0.00    +0.000 A 
ENDROOT
BRANCH   5   8
ATOM      8  C   UNL     1       2.563   4.148  18.155  0.00  0.00    +0.000 C 
ATOM      9  C   UNL     1       2.350   2.722  17.600  0.00  0.00    +0.000 C 
ATOM     10  C   UNL     1       2.003   1.909  18.854  0.00  0.00    +0.000 C 
ATOM     11  C   UNL     1       0.620   2.298  19.386  0.00  0.00    +0.000 C 
ATOM     12  C   UNL     1       0.862   3.694  19.965  0.00  0.00    +0.000 C 
ATOM     13  C   UNL     1       2.351   3.924  19.671  0.00  0.00    +0.000 C 
ATOM     14  N   UNL     1       2.882   2.554  19.845  0.00  0.00    +0.000 NA
ATOM     15  H   UNL     1       2.672   2.208  20.785  0.00  0.00    +0.000 HD
ENDBRANCH   5   8
BRANCH   7  16
ATOM     16  C   UNL     1       6.256   4.828  14.732  0.00  0.00    +0.000 A 
ATOM     17  C   UNL     1       7.428   5.442  14.253  0.00  0.00    +0.000 A 
ATOM     18  C   UNL     1       7.922   5.199  12.965  0.00  0.00    +0.000 A 
ATOM     19  C   UNL     1       7.287   4.282  12.135  0.00  0.00    +0.000 A 
ATOM     20  C   UNL     1       6.157   3.620  12.598  0.00  0.00    +0.000 A 
ATOM     21 BR   UNL     1       5.324   2.319  11.508  0.00  0.00    +0.000 Br
ATOM     22  C   UNL     1       5.638   3.898  13.868  0.00  0.00    +0.000 A 
ENDBRANCH   7  16
TORSDOF 2
ENDMDL
MODEL 2
REMARK VINA RESULT:      -8.3      4.635      7.481
REMARK  Name = 
REMARK  2 active torsions:
REMARK  status: ('A' for Active; 'I' for Inactive)
REMARK    1  A    between atoms: C_5  and  C_6
REMARK    2  A    between atoms: C_14  and  C_15
REMARK                            x       y       z     vdW  Elec       q    Type
REMARK                         _______ _______ _______ _____ _____    ______ ____
ROOT
ATOM      1 CL   UNL     1       1.549   5.109  21.048  0.00  0.00    +0.000 Cl
ATOM      2  C   UNL     1       2.555   5.394  19.673  0.00  0.00    +0.000 A 
ATOM      3  N   UNL     1       3.194   4.250  19.318  0.00  0.00    +0.000 NA
ATOM      4  C   UNL     1       3.942   4.283  18.200  0.00  0.00    +0.000 A 
ATOM      5  C   UNL     1       4.102   5.410  17.406  0.00  0.00    +0.000 A 
ATOM      6  C   UNL     1       3.442   6.573  17.829  0.00  0.00    +0.000 A 
ATOM      7  C   UNL     1       2.637   6.614  18.988  0.00  0.00    +0.000 A 
ENDROOT
BRANCH   5   8
ATOM      8  C   UNL     1       4.918   5.325  16.133  0.00  0.00    +0.000 C 
ATOM      9  C   UNL     1       6.196   6.190  16.205  0.00  0.00    +0.000 C 
ATOM     10  C   UNL     1       7.309   5.199  15.839  0.00  0.00    +0.000 C 
ATOM     11  C   UNL     1       7.223   4.809  14.360  0.00  0.00    +0.000 C 
ATOM     12  C   UNL     1       5.976   3.922  14.319  0.00  0.00    +0.000 C 
ATOM     13  C   UNL     1       5.506   3.937  15.780  0.00  0.00    +0.000 C 
ATOM     14  N   UNL     1       6.804   3.976  16.488  0.00  0.00    +0.000 NA
ATOM     15  H   UNL     1       7.378   3.171  16.223  0.00  0.00    +0.000 HD
ENDBRANCH   5   8
BRANCH   7  16
ATOM     16  C   UNL     1       1.952   7.884  19.368  0.00  0.00    +0.000 A 
ATOM     17  C   UNL     1       1.719   8.924  18.449  0.00  0.00    +0.000 A 
ATOM     18  C   UNL     1       1.099  10.123  18.826  0.00  0.00    +0.000 A 
ATOM     19  C   UNL     1       0.638  10.293  20.126  0.00  0.00    +0.000 A 
ATOM     20  C   UNL     1       0.807   9.264  21.043  0.00  0.00    +0.000 A 
ATOM     21 BR   UNL     1       0.123   9.453  22.797  0.00  0.00    +0.000 Br
ATOM     22  C   UNL     1       1.467   8.085  20.679  0.00  0.00    +0.000 A 
ENDBRANCH   7  16
TORSDOF 2
ENDMDL
MODEL 3
REMARK VINA RESULT:      -8.2      0.968      1.272
REMARK  Name = 
REMARK  2 active torsions:
REMARK  status: ('A' for Active; 'I' for Inactive)
REMARK    1  A    between atoms: C_5  and  C_6
REMARK    2  A    between atoms: C_14  and  C_15
REMARK                            x       y       z     vdW  Elec       q    Type
REMARK                         _______ _______ _______ _____ _____    ______ ____
ROOT
ATOM      1 CL   UNL     1       7.674   6.769  16.996  0.00  0.00    +0.000 Cl
ATOM      2  C   UNL     1       6.468   5.585  17.359  0.00  0.00    +0.000 A 
ATOM      3  N   UNL     1       6.120   5.661  18.669  0.00  0.00    +0.000 NA
ATOM      4  C   UNL     1       5.117   4.869  19.087  0.00  0.00    +0.000 A 
ATOM      5  C   UNL     1       4.434   3.982  18.266  0.00  0.00    +0.000 A 
ATOM      6  C   UNL     1       4.847   3.923  16.927  0.00  0.00    +0.000 A 
ATOM      7  C   UNL     1       5.890   4.726  16.415  0.00  0.00    +0.000 A 
ENDROOT
BRANCH   5   8
ATOM      8  C   UNL     1       3.277   3.177  18.823  0.00  0.00    +0.000 C 
ATOM      9  C   UNL     1       3.256   3.184  20.368  0.00  0.00    +0.000 C 
ATOM     10  C   UNL     1       1.830   3.648  20.694  0.00  0.00    +0.000 C 
ATOM     11  C   UNL     1       0.811   2.565  20.327  0.00  0.00    +0.000 C 
ATOM     12  C   UNL     1       0.818   2.602  18.797  0.00  0.00    +0.000 C 
ATOM     13  C   UNL     1       1.855   3.693  18.493  0.00  0.00    +0.000 C 
ATOM     14  N   UNL     1       1.611   4.626  19.614  0.00  0.00    +0.000 NA
ATOM     15  H   UNL     1       0.637   4.939  19.611  0.00  0.00    +0.000 HD
ENDBRANCH   5   8
BRANCH   7  16
ATOM     16  C   UNL     1       6.265   4.619  14.975  0.00  0.00    +0.000 A 
ATOM     17  C   UNL     1       7.499   5.077  14.477  0.00  0.00    +0.000 A 
ATOM     18  C   UNL     1       7.827   4.995  13.117  0.00  0.00    +0.000 A 
ATOM     19  C   UNL     1       6.951   4.394  12.221  0.00  0.00    +0.000 A 
ATOM     20  C   UNL     1       5.747   3.886  12.691  0.00  0.00    +0.000 A 
ATOM     21 BR   UNL     1       4.576   3.004  11.497  0.00  0.00    +0.000 Br
ATOM     22  C   UNL     1       5.399   4.008  14.041  0.00  0.00    +0.000 A 
ENDBRANCH   7  16
TORSDOF 2
ENDMDL
MODEL 4
REMARK VINA RESULT:      -8.1      4.208      7.369
REMARK  Name = 
REMARK  2 active torsions:
REMARK  status: ('A' for Active; 'I' for Inactive)
REMARK    1  A    between atoms: C_5  and  C_6
REMARK    2  A    between atoms: C_14  and  C_15
REMARK                            x       y       z     vdW  Elec       q    Type
REMARK                         _______ _______ _______ _____ _____    ______ ____
ROOT
ATOM      1 CL   UNL     1       0.990   4.346  20.716  0.00  0.00    +0.000 Cl
ATOM      2  C   UNL     1       2.131   4.763  19.488  0.00  0.00    +0.000 A 
ATOM      3  N   UNL     1       2.644   3.637  18.928  0.00  0.00    +0.000 NA
ATOM      4  C   UNL     1       3.477   3.794  17.882  0.00  0.00    +0.000 A 
ATOM      5  C   UNL     1       3.844   5.026  17.359  0.00  0.00    +0.000 A 
ATOM      6  C   UNL     1       3.307   6.159  17.989  0.00  0.00    +0.000 A 
ATOM      7  C   UNL     1       2.424   6.074  19.088  0.00  0.00    +0.000 A 
ENDROOT
BRANCH   5   8
ATOM      8  C   UNL     1       4.742   5.090  16.141  0.00  0.00    +0.000 C 
ATOM      9  C   UNL     1       5.856   6.149  16.297  0.00  0.00    +0.000 C 
ATOM     10  C   UNL     1       7.135   5.354  16.001  0.00  0.00    +0.000 C 
ATOM     11  C   UNL     1       7.206   4.975  14.519  0.00  0.00    +0.000 C 
ATOM     12  C   UNL     1       6.124   3.900  14.394  0.00  0.00    +0.000 C 
ATOM     13  C   UNL     1       5.566   3.820  15.822  0.00  0.00    +0.000 C 
ATOM     14  N   UNL     1       6.794   4.058  16.613  0.00  0.00    +0.000 NA
ATOM     15  H   UNL     1       7.506   3.359  16.383  0.00  0.00    +0.000 HD
ENDBRANCH   5   8
BRANCH   7  16
ATOM     16  C   UNL     1       1.881   7.322  19.697  0.00  0.00    +0.000 A 
ATOM     17  C   UNL     1       1.449   7.388  21.035  0.00  0.00    +0.000 A 
ATOM     18  C   UNL     1       0.915   8.560  21.586  0.00  0.00    +0.000 A 
ATOM     19  C   UNL     1       0.854   9.724  20.829  0.00  0.00    +0.000 A 
ATOM     20  C   UNL     1       1.321   9.705  19.521  0.00  0.00    +0.000 A 
ATOM     21 BR   UNL     1       1.309  11.298  18.501  0.00  0.00    +0.000 Br
ATOM     22  C   UNL     1       1.812   8.523  18.956  0.00  0.00    +0.000 A 
ENDBRANCH   7  16
TORSDOF 2
ENDMDL
MODEL 5
REMARK VINA RESULT:      -8.0      4.411      7.261
REMARK  Name = 
REMARK  2 active torsions:
REMARK  status: ('A' for Active; 'I' for Inactive)
REMARK    1  A    between atoms: C_5  and  C_6
REMARK    2  A    between atoms: C_14  and  C_15
REMARK                            x       y       z     vdW  Elec       q    Type
REMARK                         _______ _______ _______ _____ _____    ______ ____
ROOT
ATOM      1 CL   UNL     1       1.084   4.653  20.750  0.00  0.00    +0.000 Cl
ATOM      2  C   UNL     1       2.436   4.812  19.687  0.00  0.00    +0.000 A 
ATOM      3  N   UNL     1       3.032   3.604  19.508  0.00  0.00    +0.000 NA
ATOM      4  C   UNL     1       4.044   3.542  18.624  0.00  0.00    +0.000 A 
ATOM      5  C   UNL     1       4.514   4.630  17.903  0.00  0.00    +0.000 A 
ATOM      6  C   UNL     1       3.883   5.860  18.142  0.00  0.00    +0.000 A 
ATOM      7  C   UNL     1       2.811   6.003  19.051  0.00  0.00    +0.000 A 
ENDROOT
BRANCH   5   8
ATOM      8  C   UNL     1       5.622   4.441  16.887  0.00  0.00    +0.000 C 
ATOM      9  C   UNL     1       5.102   3.820  15.572  0.00  0.00    +0.000 C 
ATOM     10  C   UNL     1       5.605   4.799  14.503  0.00  0.00    +0.000 C 
ATOM     11  C   UNL     1       7.128   4.712  14.362  0.00  0.00    +0.000 C 
ATOM     12  C   UNL     1       7.622   5.367  15.654  0.00  0.00    +0.000 C 
ATOM     13  C   UNL     1       6.312   5.726  16.370  0.00  0.00    +0.000 C 
ATOM     14  N   UNL     1       5.454   6.078  15.217  0.00  0.00    +0.000 NA
ATOM     15  H   UNL     1       5.878   6.838  14.677  0.00  0.00    +0.000 HD
ENDBRANCH   5   8
BRANCH   7  16
ATOM     16  C   UNL     1       2.178   7.340  19.243  0.00  0.00    +0.000 A 
ATOM     17  C   UNL     1       2.010   8.258  18.190  0.00  0.00    +0.000 A 
ATOM     18  C   UNL     1       1.438   9.521  18.390  0.00  0.00    +0.000 A 
ATOM     19  C   UNL     1       0.960   9.882  19.644  0.00  0.00    +0.000 A 
ATOM     20  C   UNL     1       1.064   8.977  20.692  0.00  0.00    +0.000 A 
ATOM     21 BR   UNL     1       0.356   9.426  22.388  0.00  0.00    +0.000 Br
ATOM     22  C   UNL     1       1.677   7.733  20.503  0.00  0.00    +0.000 A 
ENDBRANCH   7  16
TORSDOF 2
ENDMDL
MODEL 6
REMARK VINA RESULT:      -7.9      5.675      8.152
REMARK  Name = 
REMARK  2 active torsions:
REMARK  status: ('A' for Active; 'I' for Inactive)
REMARK    1  A    between atoms: C_5  and  C_6
REMARK    2  A    between atoms: C_14  and  C_15
REMARK                            x       y       z     vdW  Elec       q    Type
REMARK                         _______ _______ _______ _____ _____    ______ ____
ROOT
ATOM      1 CL   UNL     1       1.844  10.974  18.249  0.00  0.00    +0.000 Cl
ATOM      2  C   UNL     1       1.947   9.278  18.562  0.00  0.00    +0.000 A 
ATOM      3  N   UNL     1       2.622   8.660  17.559  0.00  0.00    +0.000 NA
ATOM      4  C   UNL     1       2.874   7.346  17.704  0.00  0.00    +0.000 A 
ATOM      5  C   UNL     1       2.479   6.596  18.803  0.00  0.00    +0.000 A 
ATOM      6  C   UNL     1       1.763   7.275  19.800  0.00  0.00    +0.000 A 
ATOM      7  C   UNL     1       1.464   8.653  19.720  0.00  0.00    +0.000 A 
ENDROOT
BRANCH   5   8
ATOM      8  C   UNL     1       2.866   5.134  18.897  0.00  0.00    +0.000 C 
ATOM      9  C   UNL     1       1.843   4.315  19.715  0.00  0.00    +0.000 C 
ATOM     10  C   UNL     1       1.484   3.162  18.768  0.00  0.00    +0.000 C 
ATOM     11  C   UNL     1       2.668   2.202  18.611  0.00  0.00    +0.000 C 
ATOM     12  C   UNL     1       3.650   3.017  17.767  0.00  0.00    +0.000 C 
ATOM     13  C   UNL     1       2.902   4.343  17.568  0.00  0.00    +0.000 C 
ATOM     14  N   UNL     1       1.507   3.861  17.472  0.00  0.00    +0.000 NA
ATOM     15  H   UNL     1       1.414   3.189  16.705  0.00  0.00    +0.000 HD
ENDBRANCH   5   8
BRANCH   7  16
ATOM     16  C   UNL     1       0.711   9.311  20.826  0.00  0.00    +0.000 A 
ATOM     17  C   UNL     1       0.860   8.936  22.174  0.00  0.00    +0.000 A 
ATOM     18  C   UNL     1       0.126   9.545  23.200  0.00  0.00    +0.000 A 
ATOM     19  C   UNL     1      -0.739  10.594  22.914  0.00  0.00    +0.000 A 
ATOM     20  C   UNL     1      -0.870  11.022  21.599  0.00  0.00    +0.000 A 
ATOM     21 BR   UNL     1      -1.991  12.493  21.202  0.00  0.00    +0.000 Br
ATOM     22  C   UNL     1      -0.171  10.384  20.568  0.00  0.00    +0.000 A 
ENDBRANCH   7  16
TORSDOF 2
ENDMDL
MODEL 7
REMARK VINA RESULT:      -7.7      5.692      8.212
REMARK  Name = 
REMARK  2 active torsions:
REMARK  status: ('A' for Active; 'I' for Inactive)
REMARK    1  A    between atoms: C_5  and  C_6
REMARK    2  A    between atoms: C_14  and  C_15
REMARK                            x       y       z     vdW  Elec       q    Type
REMARK                         _______ _______ _______ _____ _____    ______ ____
ROOT
ATOM      1 CL   UNL     1       1.811  10.507  18.168  0.00  0.00    +0.000 Cl
ATOM      2  C   UNL     1       1.839   8.884  18.759  0.00  0.00    +0.000 A 
ATOM      3  N   UNL     1       2.521   8.086  17.897  0.00  0.00    +0.000 NA
ATOM      4  C   UNL     1       2.718   6.807  18.266  0.00  0.00    +0.000 A 
ATOM      5  C   UNL     1       2.260   6.263  19.458  0.00  0.00    +0.000 A 
ATOM      6  C   UNL     1       1.540   7.121  20.303  0.00  0.00    +0.000 A 
ATOM      7  C   UNL     1       1.297   8.476  19.986  0.00  0.00    +0.000 A 
ENDROOT
BRANCH   5   8
ATOM      8  C   UNL     1       2.588   4.825  19.806  0.00  0.00    +0.000 C 
ATOM      9  C   UNL     1       2.309   4.511  21.292  0.00  0.00    +0.000 C 
ATOM     10  C   UNL     1       1.404   3.274  21.222  0.00  0.00    +0.000 C 
ATOM     11  C   UNL     1       2.192   2.053  20.739  0.00  0.00    +0.000 C 
ATOM     12  C   UNL     1       2.422   2.366  19.259  0.00  0.00    +0.000 C 
ATOM     13  C   UNL     1       1.748   3.735  19.097  0.00  0.00    +0.000 C 
ATOM     14  N   UNL     1       0.606   3.592  20.026  0.00  0.00    +0.000 NA
ATOM     15  H   UNL     1       0.030   2.789  19.760  0.00  0.00    +0.000 HD
ENDBRANCH   5   8
BRANCH   7  16
ATOM     16  C   UNL     1       0.537   9.333  20.940  0.00  0.00    +0.000 A 
ATOM     17  C   UNL     1       0.517   9.092  22.327  0.00  0.00    +0.000 A 
ATOM     18  C   UNL     1      -0.225   9.889  23.208  0.00  0.00    +0.000 A 
ATOM     19  C   UNL     1      -0.923  10.993  22.734  0.00  0.00    +0.000 A 
ATOM     20  C   UNL     1      -0.881  11.288  21.378  0.00  0.00    +0.000 A 
ATOM     21 BR   UNL     1      -1.769  12.826  20.728  0.00  0.00    +0.000 Br
ATOM     22  C   UNL     1      -0.178  10.465  20.490  0.00  0.00    +0.000 A 
ENDBRANCH   7  16
TORSDOF 2
ENDMDL
MODEL 8
REMARK VINA RESULT:      -7.7      1.980      2.975
REMARK  Name = 
REMARK  2 active torsions:
REMARK  status: ('A' for Active; 'I' for Inactive)
REMARK    1  A    between atoms: C_5  and  C_6
REMARK    2  A    between atoms: C_14  and  C_15
REMARK                            x       y       z     vdW  Elec       q    Type
REMARK                         _______ _______ _______ _____ _____    ______ ____
ROOT
ATOM      1 CL   UNL     1       8.247   5.575  12.959  0.00  0.00    +0.000 Cl
ATOM      2  C   UNL     1       7.194   5.109  14.247  0.00  0.00    +0.000 A 
ATOM      3  N   UNL     1       7.528   5.772  15.384  0.00  0.00    +0.000 NA
ATOM      4  C   UNL     1       6.737   5.592  16.457  0.00  0.00    +0.000 A 
ATOM      5  C   UNL     1       5.619   4.771  16.469  0.00  0.00    +0.000 A 
ATOM      6  C   UNL     1       5.330   4.089  15.277  0.00  0.00    +0.000 A 
ATOM      7  C   UNL     1       6.112   4.230  14.109  0.00  0.00    +0.000 A 
ENDROOT
BRANCH   5   8
ATOM      8  C   UNL     1       4.758   4.685  17.713  0.00  0.00    +0.000 C 
ATOM      9  C   UNL     1       3.575   5.677  17.670  0.00  0.00    +0.000 C 
ATOM     10  C   UNL     1       2.359   4.780  17.939  0.00  0.00    +0.000 C 
ATOM     11  C   UNL     1       2.361   4.287  19.389  0.00  0.00    +0.000 C 
ATOM     12  C   UNL     1       3.511   3.279  19.400  0.00  0.00    +0.000 C 
ATOM     13  C   UNL     1       4.027   3.343  17.955  0.00  0.00    +0.000 C 
ATOM     14  N   UNL     1       2.761   3.559  17.220  0.00  0.00    +0.000 NA
ATOM     15  H   UNL     1       2.102   2.800  17.414  0.00  0.00    +0.000 HD
ENDBRANCH   5   8
BRANCH   7  16
ATOM     16  C   UNL     1       5.735   3.484  12.874  0.00  0.00    +0.000 A 
ATOM     17  C   UNL     1       6.379   2.298  12.477  0.00  0.00    +0.000 A 
ATOM     18  C   UNL     1       6.033   1.623  11.299  0.00  0.00    +0.000 A 
ATOM     19  C   UNL     1       4.986   2.084  10.511  0.00  0.00    +0.000 A 
ATOM     20  C   UNL     1       4.296   3.223  10.903  0.00  0.00    +0.000 A 
ATOM     21 BR   UNL     1       2.824   3.824   9.878  0.00  0.00    +0.000 Br
ATOM     22  C   UNL     1       4.671   3.924  12.055  0.00  0.00    +0.000 A 
ENDBRANCH   7  16
TORSDOF 2
ENDMDL
MODEL 9
REMARK VINA RESULT:      -7.6      5.127      6.832
REMARK  Name = 
REMARK  2 active torsions:
REMARK  status: ('A' for Active; 'I' for Inactive)
REMARK    1  A    between atoms: C_5  and  C_6
REMARK    2  A    between atoms: C_14  and  C_15
REMARK                            x       y       z     vdW  Elec       q    Type
REMARK                         _______ _______ _______ _____ _____    ______ ____
ROOT
ATOM      1 CL   UNL     1       4.181   7.103  16.425  0.00  0.00    +0.000 Cl
ATOM      2  C   UNL     1       3.171   7.683  17.701  0.00  0.00    +0.000 A 
ATOM      3  N   UNL     1       2.738   8.939  17.418  0.00  0.00    +0.000 NA
ATOM      4  C   UNL     1       1.858   9.494  18.270  0.00  0.00    +0.000 A 
ATOM      5  C   UNL     1       1.382   8.867  19.413  0.00  0.00    +0.000 A 
ATOM      6  C   UNL     1       1.878   7.581  19.674  0.00  0.00    +0.000 A 
ATOM      7  C   UNL     1       2.800   6.932  18.824  0.00  0.00    +0.000 A 
ENDROOT
BRANCH   5   8
ATOM      8  C   UNL     1       0.345   9.557  20.276  0.00  0.00    +0.000 C 
ATOM      9  C   UNL     1      -0.199   8.628  21.383  0.00  0.00    +0.000 C 
ATOM     10  C   UNL     1       0.007   9.451  22.661  0.00  0.00    +0.000 C 
ATOM     11  C   UNL     1      -0.950  10.647  22.695  0.00  0.00    +0.000 C 
ATOM     12  C   UNL     1      -0.371  11.571  21.621  0.00  0.00    +0.000 C 
ATOM     13  C   UNL     1       0.833  10.770  21.104  0.00  0.00    +0.000 C 
ATOM     14  N   UNL     1       1.285  10.115  22.350  0.00  0.00    +0.000 NA
ATOM     15  H   UNL     1       1.502  10.817  23.063  0.00  0.00    +0.000 HD
ENDBRANCH   5   8
BRANCH   7  16
ATOM     16  C   UNL     1       3.272   5.557  19.158  0.00  0.00    +0.000 A 
ATOM     17  C   UNL     1       4.498   5.043  18.699  0.00  0.00    +0.000 A 
ATOM     18  C   UNL     1       4.916   3.740  18.998  0.00  0.00    +0.000 A 
ATOM     19  C   UNL     1       4.143   2.929  19.821  0.00  0.00    +0.000 A 
ATOM     20  C   UNL     1       2.952   3.426  20.333  0.00  0.00    +0.000 A 
ATOM     21 BR   UNL     1       1.923   2.360  21.509  0.00  0.00    +0.000 Br
ATOM     22  C   UNL     1       2.512   4.711  19.997  0.00  0.00    +0.000 A 
ENDBRANCH   7  16
TORSDOF 2
ENDMDL
