MODEL 1
REMARK VINA RESULT:      -7.9      0.000      0.000
REMARK  Name = 
REMARK  6 active torsions:
REMARK  status: ('A' for Active; 'I' for Inactive)
REMARK    1  A    between atoms: C_2  and  C_3
REMARK    2  A    between atoms: C_2  and  C_21
REMARK    3  A    between atoms: C_3  and  C_4
REMARK    4  A    between atoms: C_4  and  C_5
REMARK    5  A    between atoms: C_4  and  S_12
REMARK    6  A    between atoms: S_12  and  C_15
REMARK                            x       y       z     vdW  Elec       q    Type
REMARK                         _______ _______ _______ _____ _____    ______ ____
ROOT
ATOM      1  C   UNL     1       3.948   5.205  17.867  0.00  0.00    +0.000 C 
ENDROOT
BRANCH   1   2
ATOM      2  C   UNL     1       3.185   6.454  18.309  0.00  0.00    +0.000 A 
ATOM      3  C   UNL     1       2.643   6.592  19.601  0.00  0.00    +0.000 A 
ATOM      4  C   UNL     1       1.930   7.737  19.961  0.00  0.00    +0.000 A 
ATOM      5  C   UNL     1       1.766   8.770  19.045  0.00  0.00    +0.000 A 
ATOM      6 CL   UNL     1       0.898  10.185  19.500  0.00  0.00    +0.000 Cl
ATOM      7  C   UNL     1       2.306   8.665  17.768  0.00  0.00    +0.000 A 
ATOM      8  C   UNL     1       3.007   7.512  17.401  0.00  0.00    +0.000 A 
ENDBRANCH   1   2
BRANCH   1   9
ATOM      9  S   UNL     1       2.728   3.876  17.669  0.00  0.00    +0.000 S 
ATOM     10  O   UNL     1       1.472   4.424  17.192  0.00  0.00    +0.000 OA
ATOM     11  O   UNL     1       3.367   2.765  16.986  0.00  0.00    +0.000 OA
BRANCH   9  12
ATOM     12  C   UNL     1       2.405   3.338  19.342  0.00  0.00    +0.000 A 
ATOM     13  C   UNL     1       3.460   2.851  20.119  0.00  0.00    +0.000 A 
ATOM     14  C   UNL     1       3.206   2.404  21.416  0.00  0.00    +0.000 A 
ATOM     15  C   UNL     1       1.910   2.458  21.932  0.00  0.00    +0.000 A 
ATOM     16  C   UNL     1       0.865   2.966  21.160  0.00  0.00    +0.000 A 
ATOM     17  C   UNL     1       1.108   3.411  19.860  0.00  0.00    +0.000 A 
ENDBRANCH   9  12
ENDBRANCH   1   9
BRANCH   1  18
ATOM     18  C   UNL     1       4.753   5.363  16.569  0.00  0.00    +0.000 C 
BRANCH  18  20
ATOM     19  O   UNL     1       6.823   4.180  16.409  0.00  0.00    +0.000 OA
ATOM     20  C   UNL     1       6.238   5.189  16.800  0.00  0.00    +0.000 C 
BRANCH  20  21
ATOM     21  C   UNL     1       7.024   6.293  17.439  0.00  0.00    +0.000 A 
ATOM     22  C   UNL     1       6.974   7.564  16.846  0.00  0.00    +0.000 A 
ATOM     23  C   UNL     1       7.657   8.644  17.416  0.00  0.00    +0.000 A 
ATOM     24  C   UNL     1       8.403   8.456  18.576  0.00  0.00    +0.000 A 
ATOM     25 CL   UNL     1       9.230   9.783  19.290  0.00  0.00    +0.000 Cl
ATOM     26  C   UNL     1       8.475   7.197  19.166  0.00  0.00    +0.000 A 
ATOM     27  C   UNL     1       7.786   6.117  18.603  0.00  0.00    +0.000 A 
ENDBRANCH  20  21
ENDBRANCH  18  20
ENDBRANCH   1  18
TORSDOF 6
ENDMDL
MODEL 2
REMARK VINA RESULT:      -7.8      0.085      1.319
REMARK  Name = 
REMARK  6 active torsions:
REMARK  status: ('A' for Active; 'I' for Inactive)
REMARK    1  A    between atoms: C_2  and  C_3
REMARK    2  A    between atoms: C_2  and  C_21
REMARK    3  A    between atoms: C_3  and  C_4
REMARK    4  A    between atoms: C_4  and  C_5
REMARK    5  A    between atoms: C_4  and  S_12
REMARK    6  A    between atoms: S_12  and  C_15
REMARK                            x       y       z     vdW  Elec       q    Type
REMARK                         _______ _______ _______ _____ _____    ______ ____
ROOT
ATOM      1  C   UNL     1       3.954   5.150  17.804  0.00  0.00    +0.000 C 
ENDROOT
BRANCH   1   2
ATOM      2  C   UNL     1       3.186   6.401  18.230  0.00  0.00    +0.000 A 
ATOM      3  C   UNL     1       2.963   7.484  17.360  0.00  0.00    +0.000 A 
ATOM      4  C   UNL     1       2.278   8.622  17.793  0.00  0.00    +0.000 A 
ATOM      5  C   UNL     1       1.786   8.685  19.092  0.00  0.00    +0.000 A 
ATOM      6 CL   UNL     1       0.931  10.084  19.614  0.00  0.00    +0.000 Cl
ATOM      7  C   UNL     1       1.980   7.621  19.966  0.00  0.00    +0.000 A 
ATOM      8  C   UNL     1       2.679   6.487  19.538  0.00  0.00    +0.000 A 
ENDBRANCH   1   2
BRANCH   1   9
ATOM      9  S   UNL     1       2.737   3.816  17.612  0.00  0.00    +0.000 S 
ATOM     10  O   UNL     1       1.477   4.359  17.141  0.00  0.00    +0.000 OA
ATOM     11  O   UNL     1       3.377   2.707  16.926  0.00  0.00    +0.000 OA
BRANCH   9  12
ATOM     12  C   UNL     1       2.424   3.277  19.287  0.00  0.00    +0.000 A 
ATOM     13  C   UNL     1       1.126   3.353  19.797  0.00  0.00    +0.000 A 
ATOM     14  C   UNL     1       0.883   2.960  21.114  0.00  0.00    +0.000 A 
ATOM     15  C   UNL     1       1.930   2.484  21.904  0.00  0.00    +0.000 A 
ATOM     16  C   UNL     1       3.221   2.389  21.382  0.00  0.00    +0.000 A 
ATOM     17  C   UNL     1       3.474   2.784  20.068  0.00  0.00    +0.000 A 
ENDBRANCH   9  12
ENDBRANCH   1   9
BRANCH   1  18
ATOM     18  C   UNL     1       4.766   5.297  16.509  0.00  0.00    +0.000 C 
BRANCH  18  20
ATOM     19  O   UNL     1       6.842   4.124  16.354  0.00  0.00    +0.000 OA
ATOM     20  C   UNL     1       6.250   5.128  16.750  0.00  0.00    +0.000 C 
BRANCH  20  21
ATOM     21  C   UNL     1       7.026   6.230  17.403  0.00  0.00    +0.000 A 
ATOM     22  C   UNL     1       6.960   7.510  16.832  0.00  0.00    +0.000 A 
ATOM     23  C   UNL     1       7.632   8.588  17.416  0.00  0.00    +0.000 A 
ATOM     24  C   UNL     1       8.385   8.390  18.570  0.00  0.00    +0.000 A 
ATOM     25 CL   UNL     1       9.200   9.713  19.303  0.00  0.00    +0.000 Cl
ATOM     26  C   UNL     1       8.473   7.122  19.140  0.00  0.00    +0.000 A 
ATOM     27  C   UNL     1       7.795   6.044  18.561  0.00  0.00    +0.000 A 
ENDBRANCH  20  21
ENDBRANCH  18  20
ENDBRANCH   1  18
TORSDOF 6
ENDMDL
MODEL 3
REMARK VINA RESULT:      -7.8      0.627      1.448
REMARK  Name = 
REMARK  6 active torsions:
REMARK  status: ('A' for Active; 'I' for Inactive)
REMARK    1  A    between atoms: C_2  and  C_3
REMARK    2  A    between atoms: C_2  and  C_21
REMARK    3  A    between atoms: C_3  and  C_4
REMARK    4  A    between atoms: C_4  and  C_5
REMARK    5  A    between atoms: C_4  and  S_12
REMARK    6  A    between atoms: S_12  and  C_15
REMARK                            x       y       z     vdW  Elec       q    Type
REMARK                         _______ _______ _______ _____ _____    ______ ____
ROOT
ATOM      1  C   UNL     1       4.510   4.702  17.842  0.00  0.00    +0.000 C 
ENDROOT
BRANCH   1   2
ATOM      2  C   UNL     1       3.677   5.926  18.223  0.00  0.00    +0.000 A 
ATOM      3  C   UNL     1       3.054   6.055  19.478  0.00  0.00    +0.000 A 
ATOM      4  C   UNL     1       2.279   7.177  19.782  0.00  0.00    +0.000 A 
ATOM      5  C   UNL     1       2.135   8.196  18.847  0.00  0.00    +0.000 A 
ATOM      6 CL   UNL     1       1.192   9.582  19.233  0.00  0.00    +0.000 Cl
ATOM      7  C   UNL     1       2.755   8.099  17.606  0.00  0.00    +0.000 A 
ATOM      8  C   UNL     1       3.518   6.969  17.295  0.00  0.00    +0.000 A 
ENDBRANCH   1   2
BRANCH   1   9
ATOM      9  S   UNL     1       3.352   3.326  17.589  0.00  0.00    +0.000 S 
ATOM     10  O   UNL     1       2.255   3.752  16.741  0.00  0.00    +0.000 OA
ATOM     11  O   UNL     1       4.119   2.133  17.278  0.00  0.00    +0.000 OA
BRANCH   9  12
ATOM     12  C   UNL     1       2.631   3.072  19.204  0.00  0.00    +0.000 A 
ATOM     13  C   UNL     1       1.257   3.262  19.377  0.00  0.00    +0.000 A 
ATOM     14  C   UNL     1       0.695   3.092  20.642  0.00  0.00    +0.000 A 
ATOM     15  C   UNL     1       1.501   2.722  21.720  0.00  0.00    +0.000 A 
ATOM     16  C   UNL     1       2.869   2.511  21.537  0.00  0.00    +0.000 A 
ATOM     17  C   UNL     1       3.440   2.683  20.276  0.00  0.00    +0.000 A 
ENDBRANCH   9  12
ENDBRANCH   1   9
BRANCH   1  18
ATOM     18  C   UNL     1       5.384   4.876  16.591  0.00  0.00    +0.000 C 
BRANCH  18  20
ATOM     19  O   UNL     1       7.637   4.088  16.699  0.00  0.00    +0.000 OA
ATOM     20  C   UNL     1       6.851   5.003  16.940  0.00  0.00    +0.000 C 
BRANCH  20  21
ATOM     21  C   UNL     1       7.370   6.288  17.508  0.00  0.00    +0.000 A 
ATOM     22  C   UNL     1       8.040   6.240  18.740  0.00  0.00    +0.000 A 
ATOM     23  C   UNL     1       8.579   7.401  19.305  0.00  0.00    +0.000 A 
ATOM     24  C   UNL     1       8.442   8.619  18.644  0.00  0.00    +0.000 A 
ATOM     25 CL   UNL     1       9.118  10.045  19.324  0.00  0.00    +0.000 Cl
ATOM     26  C   UNL     1       7.767   8.685  17.428  0.00  0.00    +0.000 A 
ATOM     27  C   UNL     1       7.233   7.524  16.858  0.00  0.00    +0.000 A 
ENDBRANCH  20  21
ENDBRANCH  18  20
ENDBRANCH   1  18
TORSDOF 6
ENDMDL
MODEL 4
REMARK VINA RESULT:      -7.7      0.467      1.394
REMARK  Name = 
REMARK  6 active torsions:
REMARK  status: ('A' for Active; 'I' for Inactive)
REMARK    1  A    between atoms: C_2  and  C_3
REMARK    2  A    between atoms: C_2  and  C_21
REMARK    3  A    between atoms: C_3  and  C_4
REMARK    4  A    between atoms: C_4  and  C_5
REMARK    5  A    between atoms: C_4  and  S_12
REMARK    6  A    between atoms: S_12  and  C_15
REMARK                            x       y       z     vdW  Elec       q    Type
REMARK                         _______ _______ _______ _____ _____    ______ ____
ROOT
ATOM      1  C   UNL     1       4.368   4.865  17.822  0.00  0.00    +0.000 C 
ENDROOT
BRANCH   1   2
ATOM      2  C   UNL     1       3.530   6.080  18.220  0.00  0.00    +0.000 A 
ATOM      3  C   UNL     1       3.297   7.157  17.344  0.00  0.00    +0.000 A 
ATOM      4  C   UNL     1       2.547   8.262  17.752  0.00  0.00    +0.000 A 
ATOM      5  C   UNL     1       2.000   8.299  19.030  0.00  0.00    +0.000 A 
ATOM      6 CL   UNL     1       1.064   9.657  19.520  0.00  0.00    +0.000 Cl
ATOM      7  C   UNL     1       2.202   7.239  19.907  0.00  0.00    +0.000 A 
ATOM      8  C   UNL     1       2.966   6.138  19.506  0.00  0.00    +0.000 A 
ENDBRANCH   1   2
BRANCH   1   9
ATOM      9  S   UNL     1       3.220   3.478  17.589  0.00  0.00    +0.000 S 
ATOM     10  O   UNL     1       2.070   3.911  16.819  0.00  0.00    +0.000 OA
ATOM     11  O   UNL     1       3.987   2.309  17.197  0.00  0.00    +0.000 OA
BRANCH   9  12
ATOM     12  C   UNL     1       2.595   3.159  19.233  0.00  0.00    +0.000 A 
ATOM     13  C   UNL     1       3.479   2.738  20.230  0.00  0.00    +0.000 A 
ATOM     14  C   UNL     1       2.990   2.461  21.507  0.00  0.00    +0.000 A 
ATOM     15  C   UNL     1       1.631   2.616  21.783  0.00  0.00    +0.000 A 
ATOM     16  C   UNL     1       0.756   3.058  20.789  0.00  0.00    +0.000 A 
ATOM     17  C   UNL     1       1.235   3.334  19.508  0.00  0.00    +0.000 A 
ENDBRANCH   9  12
ENDBRANCH   1   9
BRANCH   1  18
ATOM     18  C   UNL     1       5.217   5.049  16.556  0.00  0.00    +0.000 C 
BRANCH  18  20
ATOM     19  O   UNL     1       7.444   4.183  16.580  0.00  0.00    +0.000 OA
ATOM     20  C   UNL     1       6.695   5.115  16.871  0.00  0.00    +0.000 C 
BRANCH  20  21
ATOM     21  C   UNL     1       7.271   6.362  17.468  0.00  0.00    +0.000 A 
ATOM     22  C   UNL     1       7.964   6.251  18.684  0.00  0.00    +0.000 A 
ATOM     23  C   UNL     1       8.556   7.373  19.273  0.00  0.00    +0.000 A 
ATOM     24  C   UNL     1       8.449   8.616  18.654  0.00  0.00    +0.000 A 
ATOM     25 CL   UNL     1       9.189   9.995  19.364  0.00  0.00    +0.000 Cl
ATOM     26  C   UNL     1       7.752   8.744  17.455  0.00  0.00    +0.000 A 
ATOM     27  C   UNL     1       7.166   7.622  16.860  0.00  0.00    +0.000 A 
ENDBRANCH  20  21
ENDBRANCH  18  20
ENDBRANCH   1  18
TORSDOF 6
ENDMDL
MODEL 5
REMARK VINA RESULT:      -7.6      2.541      5.527
REMARK  Name = 
REMARK  6 active torsions:
REMARK  status: ('A' for Active; 'I' for Inactive)
REMARK    1  A    between atoms: C_2  and  C_3
REMARK    2  A    between atoms: C_2  and  C_21
REMARK    3  A    between atoms: C_3  and  C_4
REMARK    4  A    between atoms: C_4  and  C_5
REMARK    5  A    between atoms: C_4  and  S_12
REMARK    6  A    between atoms: S_12  and  C_15
REMARK                            x       y       z     vdW  Elec       q    Type
REMARK                         _______ _______ _______ _____ _____    ______ ____
ROOT
ATOM      1  C   UNL     1       4.143   4.961  17.395  0.00  0.00    +0.000 C 
ENDROOT
BRANCH   1   2
ATOM      2  C   UNL     1       5.083   4.948  16.189  0.00  0.00    +0.000 A 
ATOM      3  C   UNL     1       4.750   4.312  14.978  0.00  0.00    +0.000 A 
ATOM      4  C   UNL     1       5.645   4.299  13.906  0.00  0.00    +0.000 A 
ATOM      5  C   UNL     1       6.874   4.940  14.018  0.00  0.00    +0.000 A 
ATOM      6 CL   UNL     1       7.966   4.932  12.688  0.00  0.00    +0.000 Cl
ATOM      7  C   UNL     1       7.219   5.589  15.199  0.00  0.00    +0.000 A 
ATOM      8  C   UNL     1       6.330   5.590  16.278  0.00  0.00    +0.000 A 
ENDBRANCH   1   2
BRANCH   1   9
ATOM      9  S   UNL     1       4.483   3.456  18.352  0.00  0.00    +0.000 S 
ATOM     10  O   UNL     1       4.399   2.292  17.491  0.00  0.00    +0.000 OA
ATOM     11  O   UNL     1       5.655   3.693  19.178  0.00  0.00    +0.000 OA
BRANCH   9  12
ATOM     12  C   UNL     1       3.087   3.329  19.460  0.00  0.00    +0.000 A 
ATOM     13  C   UNL     1       3.304   2.975  20.794  0.00  0.00    +0.000 A 
ATOM     14  C   UNL     1       2.213   2.847  21.655  0.00  0.00    +0.000 A 
ATOM     15  C   UNL     1       0.921   3.083  21.184  0.00  0.00    +0.000 A 
ATOM     16  C   UNL     1       0.712   3.458  19.856  0.00  0.00    +0.000 A 
ATOM     17  C   UNL     1       1.796   3.585  18.987  0.00  0.00    +0.000 A 
ENDBRANCH   9  12
ENDBRANCH   1   9
BRANCH   1  18
ATOM     18  C   UNL     1       4.273   6.191  18.304  0.00  0.00    +0.000 C 
BRANCH  18  20
ATOM     19  O   UNL     1       3.245   7.698  16.762  0.00  0.00    +0.000 OA
ATOM     20  C   UNL     1       3.301   7.285  17.919  0.00  0.00    +0.000 C 
BRANCH  20  21
ATOM     21  C   UNL     1       2.338   7.814  18.937  0.00  0.00    +0.000 A 
ATOM     22  C   UNL     1       2.138   7.063  20.107  0.00  0.00    +0.000 A 
ATOM     23  C   UNL     1       1.279   7.523  21.111  0.00  0.00    +0.000 A 
ATOM     24  C   UNL     1       0.607   8.730  20.946  0.00  0.00    +0.000 A 
ATOM     25 CL   UNL     1      -0.437   9.308  22.183  0.00  0.00    +0.000 Cl
ATOM     26  C   UNL     1       0.782   9.478  19.784  0.00  0.00    +0.000 A 
ATOM     27  C   UNL     1       1.647   9.024  18.782  0.00  0.00    +0.000 A 
ENDBRANCH  20  21
ENDBRANCH  18  20
ENDBRANCH   1  18
TORSDOF 6
ENDMDL
MODEL 6
REMARK VINA RESULT:      -7.5      2.490      5.517
REMARK  Name = 
REMARK  6 active torsions:
REMARK  status: ('A' for Active; 'I' for Inactive)
REMARK    1  A    between atoms: C_2  and  C_3
REMARK    2  A    between atoms: C_2  and  C_21
REMARK    3  A    between atoms: C_3  and  C_4
REMARK    4  A    between atoms: C_4  and  C_5
REMARK    5  A    between atoms: C_4  and  S_12
REMARK    6  A    between atoms: S_12  and  C_15
REMARK                            x       y       z     vdW  Elec       q    Type
REMARK                         _______ _______ _______ _____ _____    ______ ____
ROOT
ATOM      1  C   UNL     1       4.094   4.809  17.474  0.00  0.00    +0.000 C 
ENDROOT
BRANCH   1   2
ATOM      2  C   UNL     1       5.097   4.863  16.321  0.00  0.00    +0.000 A 
ATOM      3  C   UNL     1       6.365   5.460  16.449  0.00  0.00    +0.000 A 
ATOM      4  C   UNL     1       7.245   5.513  15.366  0.00  0.00    +0.000 A 
ATOM      5  C   UNL     1       6.882   4.952  14.147  0.00  0.00    +0.000 A 
ATOM      6 CL   UNL     1       7.976   5.008  12.821  0.00  0.00    +0.000 Cl
ATOM      7  C   UNL     1       5.640   4.342  14.000  0.00  0.00    +0.000 A 
ATOM      8  C   UNL     1       4.752   4.301  15.080  0.00  0.00    +0.000 A 
ENDBRANCH   1   2
BRANCH   1   9
ATOM      9  S   UNL     1       4.415   3.274  18.388  0.00  0.00    +0.000 S 
ATOM     10  O   UNL     1       4.233   2.130  17.515  0.00  0.00    +0.000 OA
ATOM     11  O   UNL     1       5.637   3.443  19.155  0.00  0.00    +0.000 OA
BRANCH   9  12
ATOM     12  C   UNL     1       3.073   3.188  19.565  0.00  0.00    +0.000 A 
ATOM     13  C   UNL     1       1.794   3.594  19.175  0.00  0.00    +0.000 A 
ATOM     14  C   UNL     1       0.751   3.556  20.099  0.00  0.00    +0.000 A 
ATOM     15  C   UNL     1       0.985   3.101  21.398  0.00  0.00    +0.000 A 
ATOM     16  C   UNL     1       2.259   2.675  21.776  0.00  0.00    +0.000 A 
ATOM     17  C   UNL     1       3.310   2.714  20.860  0.00  0.00    +0.000 A 
ENDBRANCH   9  12
ENDBRANCH   1   9
BRANCH   1  18
ATOM     18  C   UNL     1       4.149   6.004  18.437  0.00  0.00    +0.000 C 
BRANCH  18  20
ATOM     19  O   UNL     1       3.407   7.536  16.761  0.00  0.00    +0.000 OA
ATOM     20  C   UNL     1       3.333   7.174  17.934  0.00  0.00    +0.000 C 
BRANCH  20  21
ATOM     21  C   UNL     1       2.360   7.849  18.852  0.00  0.00    +0.000 A 
ATOM     22  C   UNL     1       2.109   7.254  20.098  0.00  0.00    +0.000 A 
ATOM     23  C   UNL     1       1.238   7.856  21.013  0.00  0.00    +0.000 A 
ATOM     24  C   UNL     1       0.606   9.051  20.683  0.00  0.00    +0.000 A 
ATOM     25 CL   UNL     1      -0.452   9.803  21.809  0.00  0.00    +0.000 Cl
ATOM     26  C   UNL     1       0.833   9.644  19.443  0.00  0.00    +0.000 A 
ATOM     27  C   UNL     1       1.709   9.049  18.530  0.00  0.00    +0.000 A 
ENDBRANCH  20  21
ENDBRANCH  18  20
ENDBRANCH   1  18
TORSDOF 6
ENDMDL
MODEL 7
REMARK VINA RESULT:      -7.4      2.469      5.402
REMARK  Name = 
REMARK  6 active torsions:
REMARK  status: ('A' for Active; 'I' for Inactive)
REMARK    1  A    between atoms: C_2  and  C_3
REMARK    2  A    between atoms: C_2  and  C_21
REMARK    3  A    between atoms: C_3  and  C_4
REMARK    4  A    between atoms: C_4  and  C_5
REMARK    5  A    between atoms: C_4  and  S_12
REMARK    6  A    between atoms: S_12  and  C_15
REMARK                            x       y       z     vdW  Elec       q    Type
REMARK                         _______ _______ _______ _____ _____    ______ ____
ROOT
ATOM      1  C   UNL     1       4.078   4.848  17.468  0.00  0.00    +0.000 C 
ENDROOT
BRANCH   1   2
ATOM      2  C   UNL     1       5.089   4.907  16.323  0.00  0.00    +0.000 A 
ATOM      3  C   UNL     1       6.316   5.588  16.431  0.00  0.00    +0.000 A 
ATOM      4  C   UNL     1       7.204   5.642  15.354  0.00  0.00    +0.000 A 
ATOM      5  C   UNL     1       6.891   4.997  14.163  0.00  0.00    +0.000 A 
ATOM      6 CL   UNL     1       7.996   5.055  12.845  0.00  0.00    +0.000 Cl
ATOM      7  C   UNL     1       5.692   4.304  14.037  0.00  0.00    +0.000 A 
ATOM      8  C   UNL     1       4.795   4.262  15.109  0.00  0.00    +0.000 A 
ENDBRANCH   1   2
BRANCH   1   9
ATOM      9  S   UNL     1       4.389   3.306  18.375  0.00  0.00    +0.000 S 
ATOM     10  O   UNL     1       4.211   2.168  17.494  0.00  0.00    +0.000 OA
ATOM     11  O   UNL     1       5.607   3.469  19.151  0.00  0.00    +0.000 OA
BRANCH   9  12
ATOM     12  C   UNL     1       3.040   3.217  19.543  0.00  0.00    +0.000 A 
ATOM     13  C   UNL     1       3.294   2.789  20.850  0.00  0.00    +0.000 A 
ATOM     14  C   UNL     1       2.239   2.690  21.756  0.00  0.00    +0.000 A 
ATOM     15  C   UNL     1       0.944   3.031  21.360  0.00  0.00    +0.000 A 
ATOM     16  C   UNL     1       0.700   3.479  20.061  0.00  0.00    +0.000 A 
ATOM     17  C   UNL     1       1.749   3.577  19.146  0.00  0.00    +0.000 A 
ENDBRANCH   9  12
ENDBRANCH   1   9
BRANCH   1  18
ATOM     18  C   UNL     1       4.128   6.036  18.439  0.00  0.00    +0.000 C 
BRANCH  18  20
ATOM     19  O   UNL     1       3.194   7.512  16.808  0.00  0.00    +0.000 OA
ATOM     20  C   UNL     1       3.235   7.171  17.989  0.00  0.00    +0.000 C 
BRANCH  20  21
ATOM     21  C   UNL     1       2.325   7.835  18.978  0.00  0.00    +0.000 A 
ATOM     22  C   UNL     1       1.733   9.054  18.612  0.00  0.00    +0.000 A 
ATOM     23  C   UNL     1       0.845   9.704  19.476  0.00  0.00    +0.000 A 
ATOM     24  C   UNL     1       0.554   9.144  20.716  0.00  0.00    +0.000 A 
ATOM     25 CL   UNL     1      -0.549   9.929  21.776  0.00  0.00    +0.000 Cl
ATOM     26  C   UNL     1       1.146   7.943  21.100  0.00  0.00    +0.000 A 
ATOM     27  C   UNL     1       2.027   7.287  20.233  0.00  0.00    +0.000 A 
ENDBRANCH  20  21
ENDBRANCH  18  20
ENDBRANCH   1  18
TORSDOF 6
ENDMDL
MODEL 8
REMARK VINA RESULT:      -7.3      2.538      3.442
REMARK  Name = 
REMARK  6 active torsions:
REMARK  status: ('A' for Active; 'I' for Inactive)
REMARK    1  A    between atoms: C_2  and  C_3
REMARK    2  A    between atoms: C_2  and  C_21
REMARK    3  A    between atoms: C_3  and  C_4
REMARK    4  A    between atoms: C_4  and  C_5
REMARK    5  A    between atoms: C_4  and  S_12
REMARK    6  A    between atoms: S_12  and  C_15
REMARK                            x       y       z     vdW  Elec       q    Type
REMARK                         _______ _______ _______ _____ _____    ______ ____
ROOT
ATOM      1  C   UNL     1       3.581   5.925  18.154  0.00  0.00    +0.000 C 
ENDROOT
BRANCH   1   2
ATOM      2  C   UNL     1       2.719   7.070  18.685  0.00  0.00    +0.000 A 
ATOM      3  C   UNL     1       2.254   7.114  20.013  0.00  0.00    +0.000 A 
ATOM      4  C   UNL     1       1.447   8.164  20.456  0.00  0.00    +0.000 A 
ATOM      5  C   UNL     1       1.111   9.197  19.587  0.00  0.00    +0.000 A 
ATOM      6 CL   UNL     1       0.128  10.495  20.143  0.00  0.00    +0.000 Cl
ATOM      7  C   UNL     1       1.571   9.184  18.275  0.00  0.00    +0.000 A 
ATOM      8  C   UNL     1       2.367   8.126  17.826  0.00  0.00    +0.000 A 
ENDBRANCH   1   2
BRANCH   1   9
ATOM      9  S   UNL     1       2.466   4.536  17.803  0.00  0.00    +0.000 S 
ATOM     10  O   UNL     1       1.130   5.031  17.527  0.00  0.00    +0.000 OA
ATOM     11  O   UNL     1       3.134   3.633  16.883  0.00  0.00    +0.000 OA
BRANCH   9  12
ATOM     12  C   UNL     1       2.340   3.682  19.367  0.00  0.00    +0.000 A 
ATOM     13  C   UNL     1       1.095   3.588  19.996  0.00  0.00    +0.000 A 
ATOM     14  C   UNL     1       0.999   2.947  21.232  0.00  0.00    +0.000 A 
ATOM     15  C   UNL     1       2.136   2.394  21.822  0.00  0.00    +0.000 A 
ATOM     16  C   UNL     1       3.372   2.471  21.179  0.00  0.00    +0.000 A 
ATOM     17  C   UNL     1       3.480   3.114  19.946  0.00  0.00    +0.000 A 
ENDBRANCH   9  12
ENDBRANCH   1   9
BRANCH   1  18
ATOM     18  C   UNL     1       4.400   6.258  16.898  0.00  0.00    +0.000 C 
BRANCH  18  20
ATOM     19  O   UNL     1       6.219   4.991  17.788  0.00  0.00    +0.000 OA
ATOM     20  C   UNL     1       5.635   5.393  16.783  0.00  0.00    +0.000 C 
BRANCH  20  21
ATOM     21  C   UNL     1       6.107   4.950  15.431  0.00  0.00    +0.000 A 
ATOM     22  C   UNL     1       5.292   4.066  14.707  0.00  0.00    +0.000 A 
ATOM     23  C   UNL     1       5.660   3.645  13.425  0.00  0.00    +0.000 A 
ATOM     24  C   UNL     1       6.851   4.098  12.864  0.00  0.00    +0.000 A 
ATOM     25 CL   UNL     1       7.300   3.598  11.282  0.00  0.00    +0.000 Cl
ATOM     26  C   UNL     1       7.677   4.963  13.577  0.00  0.00    +0.000 A 
ATOM     27  C   UNL     1       7.307   5.392  14.856  0.00  0.00    +0.000 A 
ENDBRANCH  20  21
ENDBRANCH  18  20
ENDBRANCH   1  18
TORSDOF 6
ENDMDL
MODEL 9
REMARK VINA RESULT:      -7.2      2.995      3.931
REMARK  Name = 
REMARK  6 active torsions:
REMARK  status: ('A' for Active; 'I' for Inactive)
REMARK    1  A    between atoms: C_2  and  C_3
REMARK    2  A    between atoms: C_2  and  C_21
REMARK    3  A    between atoms: C_3  and  C_4
REMARK    4  A    between atoms: C_4  and  C_5
REMARK    5  A    between atoms: C_4  and  S_12
REMARK    6  A    between atoms: S_12  and  C_15
REMARK                            x       y       z     vdW  Elec       q    Type
REMARK                         _______ _______ _______ _____ _____    ______ ____
ROOT
ATOM      1  C   UNL     1       2.832   6.375  19.740  0.00  0.00    +0.000 C 
ENDROOT
BRANCH   1   2
ATOM      2  C   UNL     1       1.960   7.613  19.954  0.00  0.00    +0.000 A 
ATOM      3  C   UNL     1       1.655   8.512  18.916  0.00  0.00    +0.000 A 
ATOM      4  C   UNL     1       0.876   9.646  19.154  0.00  0.00    +0.000 A 
ATOM      5  C   UNL     1       0.371   9.886  20.427  0.00  0.00    +0.000 A 
ATOM      6 CL   UNL     1      -0.601  11.277  20.712  0.00  0.00    +0.000 Cl
ATOM      7  C   UNL     1       0.644   9.004  21.467  0.00  0.00    +0.000 A 
ATOM      8  C   UNL     1       1.437   7.876  21.232  0.00  0.00    +0.000 A 
ENDBRANCH   1   2
BRANCH   1   9
ATOM      9  S   UNL     1       1.950   4.968  20.472  0.00  0.00    +0.000 S 
ATOM     10  O   UNL     1       2.390   4.763  21.839  0.00  0.00    +0.000 OA
ATOM     11  O   UNL     1       0.539   5.095  20.152  0.00  0.00    +0.000 OA
BRANCH   9  12
ATOM     12  C   UNL     1       2.562   3.558  19.562  0.00  0.00    +0.000 A 
ATOM     13  C   UNL     1       3.681   2.870  20.039  0.00  0.00    +0.000 A 
ATOM     14  C   UNL     1       4.179   1.786  19.315  0.00  0.00    +0.000 A 
ATOM     15  C   UNL     1       3.553   1.389  18.133  0.00  0.00    +0.000 A 
ATOM     16  C   UNL     1       2.422   2.065  17.673  0.00  0.00    +0.000 A 
ATOM     17  C   UNL     1       1.919   3.153  18.388  0.00  0.00    +0.000 A 
ENDBRANCH   9  12
ENDBRANCH   1   9
BRANCH   1  18
ATOM     18  C   UNL     1       3.170   6.066  18.275  0.00  0.00    +0.000 C 
BRANCH  18  20
ATOM     19  O   UNL     1       5.418   5.796  19.037  0.00  0.00    +0.000 OA
ATOM     20  C   UNL     1       4.638   5.750  18.087  0.00  0.00    +0.000 C 
BRANCH  20  21
ATOM     21  C   UNL     1       5.134   5.295  16.749  0.00  0.00    +0.000 A 
ATOM     22  C   UNL     1       5.496   3.946  16.605  0.00  0.00    +0.000 A 
ATOM     23  C   UNL     1       5.931   3.452  15.371  0.00  0.00    +0.000 A 
ATOM     24  C   UNL     1       6.017   4.307  14.276  0.00  0.00    +0.000 A 
ATOM     25 CL   UNL     1       6.535   3.702  12.753  0.00  0.00    +0.000 Cl
ATOM     26  C   UNL     1       5.676   5.651  14.407  0.00  0.00    +0.000 A 
ATOM     27  C   UNL     1       5.232   6.145  15.638  0.00  0.00    +0.000 A 
ENDBRANCH  20  21
ENDBRANCH  18  20
ENDBRANCH   1  18
TORSDOF 6
ENDMDL
