MODEL 1
REMARK VINA RESULT:      -8.0      0.000      0.000
REMARK  Name = 
REMARK  17 active torsions:
REMARK  status: ('A' for Active; 'I' for Inactive)
REMARK    1  A    between atoms: C_1  and  O_2
REMARK    2  A    between atoms: O_2  and  C_3
REMARK    3  A    between atoms: C_3  and  C_5
REMARK    4  A    between atoms: C_5  and  C_6
REMARK    5  A    between atoms: C_5  and  N_7
REMARK    6  A    between atoms: C_8  and  C_10
REMARK    7  A    between atoms: C_10  and  C_11
REMARK    8  A    between atoms: C_10  and  N_24
REMARK    9  A    between atoms: C_11  and  C_12
REMARK   10  A    between atoms: C_12  and  C_13
REMARK   11  A    between atoms: C_13  and  C_14
REMARK   12  A    between atoms: C_14  and  N_15
REMARK   13  A    between atoms: C_16  and  C_18
REMARK   14  A    between atoms: C_25  and  C_27
REMARK   15  A    between atoms: C_27  and  C_28
REMARK   16  A    between atoms: C_27  and  N_29
REMARK   17  A    between atoms: C_30  and  C_31
REMARK                            x       y       z     vdW  Elec       q    Type
REMARK                         _______ _______ _______ _____ _____    ______ ____
ROOT
ATOM      1  C   UNL     1       7.350   5.739  17.526  0.00  0.00    +0.000 C 
ENDROOT
BRANCH   1   3
ATOM      2  N   UNL     1       4.959   5.790  18.114  0.00  0.00    +0.000 N 
ATOM      3  C   UNL     1       6.193   5.268  18.429  0.00  0.00    +0.000 C 
ATOM      4  O   UNL     1       6.381   4.541  19.403  0.00  0.00    +0.000 OA
ATOM      5  H   UNL     1       4.831   6.088  17.145  0.00  0.00    +0.000 HD
BRANCH   2   6
ATOM      6  C   UNL     1       3.784   5.446  18.903  0.00  0.00    +0.000 C 
ATOM      7  C   UNL     1       2.813   6.619  18.922  0.00  0.00    +0.000 C 
BRANCH   6   8
ATOM      8  C   UNL     1       3.059   4.186  18.405  0.00  0.00    +0.000 C 
ATOM      9  O   UNL     1       2.872   3.938  17.218  0.00  0.00    +0.000 OA
BRANCH   8  11
ATOM     10  C   UNL     1       2.212   2.087  19.026  0.00  0.00    +0.000 C 
ATOM     11  O   UNL     1       2.684   3.369  19.432  0.00  0.00    +0.000 OA
ENDBRANCH   8  11
ENDBRANCH   6   8
ENDBRANCH   2   6
ENDBRANCH   1   3
BRANCH   1  12
ATOM     12  N   UNL     1       7.395   5.030  16.244  0.00  0.00    +0.000 N 
ATOM     13  C   UNL     1       6.579   5.288  15.166  0.00  0.00    +0.000 C 
ATOM     14  O   UNL     1       5.599   6.030  15.250  0.00  0.00    +0.000 OA
ATOM     15  H   UNL     1       8.165   4.390  16.101  0.00  0.00    +0.000 HD
BRANCH  13  16
ATOM     16  C   UNL     1       6.815   4.386  13.938  0.00  0.00    +0.000 C 
ATOM     17  C   UNL     1       7.789   5.097  13.006  0.00  0.00    +0.000 C 
BRANCH  16  18
ATOM     18  N   UNL     1       5.581   4.071  13.215  0.00  0.00    +0.000 N 
ATOM     19  C   UNL     1       5.583   3.223  12.131  0.00  0.00    +0.000 C 
ATOM     20  C   UNL     1       4.251   3.112  11.436  0.00  0.00    +0.000 C 
ATOM     21  O   UNL     1       6.580   2.633  11.734  0.00  0.00    +0.000 OA
ATOM     22  H   UNL     1       4.730   4.563  13.457  0.00  0.00    +0.000 HD
ENDBRANCH  16  18
ENDBRANCH  13  16
ENDBRANCH   1  12
BRANCH   1  23
ATOM     23  C   UNL     1       7.348   7.273  17.380  0.00  0.00    +0.000 C 
BRANCH  23  24
ATOM     24  C   UNL     1       8.265   7.996  18.380  0.00  0.00    +0.000 C 
BRANCH  24  25
ATOM     25  C   UNL     1       8.426   9.497  18.140  0.00  0.00    +0.000 C 
BRANCH  25  26
ATOM     26  C   UNL     1       9.213  10.173  19.257  0.00  0.00    +0.000 C 
BRANCH  26  27
ATOM     27  N   UNL     1       9.423  11.576  18.982  0.00  0.00    +0.000 N 
ATOM     28  C   UNL     1      10.694  12.092  18.840  0.00  0.00    +0.000 C 
ATOM     29  O   UNL     1      11.714  11.417  18.931  0.00  0.00    +0.000 OA
ATOM     30  H   UNL     1       8.612  12.146  18.790  0.00  0.00    +0.000 HD
BRANCH  28  31
ATOM     31  C   UNL     1      10.782  13.530  18.512  0.00  0.00    +0.000 A 
ATOM     32  C   UNL     1      10.420  14.542  19.402  0.00  0.00    +0.000 A 
ATOM     33  C   UNL     1      10.523  15.872  19.000  0.00  0.00    +0.000 A 
ATOM     34  C   UNL     1      10.992  16.140  17.723  0.00  0.00    +0.000 A 
ATOM     35  N   UNL     1      11.356  15.184  16.838  0.00  0.00    +0.000 NA
ATOM     36  C   UNL     1      11.256  13.896  17.259  0.00  0.00    +0.000 A 
ENDBRANCH  28  31
ENDBRANCH  26  27
ENDBRANCH  25  26
ENDBRANCH  24  25
ENDBRANCH  23  24
ENDBRANCH   1  23
TORSDOF 13
ENDMDL
MODEL 2
REMARK VINA RESULT:      -8.0      5.693      7.374
REMARK  Name = 
REMARK  17 active torsions:
REMARK  status: ('A' for Active; 'I' for Inactive)
REMARK    1  A    between atoms: C_1  and  O_2
REMARK    2  A    between atoms: O_2  and  C_3
REMARK    3  A    between atoms: C_3  and  C_5
REMARK    4  A    between atoms: C_5  and  C_6
REMARK    5  A    between atoms: C_5  and  N_7
REMARK    6  A    between atoms: C_8  and  C_10
REMARK    7  A    between atoms: C_10  and  C_11
REMARK    8  A    between atoms: C_10  and  N_24
REMARK    9  A    between atoms: C_11  and  C_12
REMARK   10  A    between atoms: C_12  and  C_13
REMARK   11  A    between atoms: C_13  and  C_14
REMARK   12  A    between atoms: C_14  and  N_15
REMARK   13  A    between atoms: C_16  and  C_18
REMARK   14  A    between atoms: C_25  and  C_27
REMARK   15  A    between atoms: C_27  and  C_28
REMARK   16  A    between atoms: C_27  and  N_29
REMARK   17  A    between atoms: C_30  and  C_31
REMARK                            x       y       z     vdW  Elec       q    Type
REMARK                         _______ _______ _______ _____ _____    ______ ____
ROOT
ATOM      1  C   UNL     1       5.147   5.391  17.057  0.00  0.00    +0.000 C 
ENDROOT
BRANCH   1   3
ATOM      2  N   UNL     1       3.299   3.778  17.282  0.00  0.00    +0.000 N 
ATOM      3  C   UNL     1       4.455   4.264  17.849  0.00  0.00    +0.000 C 
ATOM      4  O   UNL     1       4.870   3.887  18.943  0.00  0.00    +0.000 OA
ATOM      5  H   UNL     1       3.215   3.888  16.268  0.00  0.00    +0.000 HD
BRANCH   2   6
ATOM      6  C   UNL     1       2.533   2.728  17.939  0.00  0.00    +0.000 C 
ATOM      7  C   UNL     1       3.440   1.546  18.253  0.00  0.00    +0.000 C 
BRANCH   6   8
ATOM      8  C   UNL     1       1.830   3.195  19.223  0.00  0.00    +0.000 C 
ATOM      9  O   UNL     1       1.168   4.225  19.296  0.00  0.00    +0.000 OA
BRANCH   8  11
ATOM     10  C   UNL     1       2.320   2.920  21.502  0.00  0.00    +0.000 C 
ATOM     11  O   UNL     1       2.003   2.314  20.252  0.00  0.00    +0.000 OA
ENDBRANCH   8  11
ENDBRANCH   6   8
ENDBRANCH   2   6
ENDBRANCH   1   3
BRANCH   1  12
ATOM     12  N   UNL     1       5.541   4.977  15.708  0.00  0.00    +0.000 N 
ATOM     13  C   UNL     1       6.771   4.465  15.363  0.00  0.00    +0.000 C 
ATOM     14  O   UNL     1       7.727   4.481  16.139  0.00  0.00    +0.000 OA
ATOM     15  H   UNL     1       4.813   4.950  15.005  0.00  0.00    +0.000 HD
BRANCH  13  16
ATOM     16  C   UNL     1       6.941   4.123  13.868  0.00  0.00    +0.000 C 
ATOM     17  C   UNL     1       7.746   5.239  13.213  0.00  0.00    +0.000 C 
BRANCH  16  18
ATOM     18  N   UNL     1       5.664   3.960  13.171  0.00  0.00    +0.000 N 
ATOM     19  C   UNL     1       5.549   3.140  12.071  0.00  0.00    +0.000 C 
ATOM     20  C   UNL     1       4.197   3.190  11.409  0.00  0.00    +0.000 C 
ATOM     21  O   UNL     1       6.467   2.455  11.637  0.00  0.00    +0.000 OA
ATOM     22  H   UNL     1       4.877   4.535  13.444  0.00  0.00    +0.000 HD
ENDBRANCH  16  18
ENDBRANCH  13  16
ENDBRANCH   1  12
BRANCH   1  23
ATOM     23  C   UNL     1       4.306   6.681  17.083  0.00  0.00    +0.000 C 
BRANCH  23  24
ATOM     24  C   UNL     1       3.722   7.018  18.464  0.00  0.00    +0.000 C 
BRANCH  24  25
ATOM     25  C   UNL     1       2.287   7.544  18.448  0.00  0.00    +0.000 C 
BRANCH  25  26
ATOM     26  C   UNL     1       2.185   8.905  17.769  0.00  0.00    +0.000 C 
BRANCH  26  27
ATOM     27  N   UNL     1       0.809   9.297  17.571  0.00  0.00    +0.000 N 
ATOM     28  C   UNL     1       0.160  10.103  18.481  0.00  0.00    +0.000 C 
ATOM     29  O   UNL     1       0.688  10.540  19.498  0.00  0.00    +0.000 OA
ATOM     30  H   UNL     1       0.369   9.052  16.695  0.00  0.00    +0.000 HD
BRANCH  28  31
ATOM     31  C   UNL     1      -1.231  10.477  18.148  0.00  0.00    +0.000 A 
ATOM     32  C   UNL     1      -1.917   9.968  17.045  0.00  0.00    +0.000 A 
ATOM     33  C   UNL     1      -3.223  10.389  16.801  0.00  0.00    +0.000 A 
ATOM     34  C   UNL     1      -3.796  11.299  17.675  0.00  0.00    +0.000 A 
ATOM     35  N   UNL     1      -3.161  11.807  18.757  0.00  0.00    +0.000 NA
ATOM     36  C   UNL     1      -1.893  11.372  18.977  0.00  0.00    +0.000 A 
ENDBRANCH  28  31
ENDBRANCH  26  27
ENDBRANCH  25  26
ENDBRANCH  24  25
ENDBRANCH  23  24
ENDBRANCH   1  23
TORSDOF 13
ENDMDL
MODEL 3
REMARK VINA RESULT:      -7.6      4.426      8.136
REMARK  Name = 
REMARK  17 active torsions:
REMARK  status: ('A' for Active; 'I' for Inactive)
REMARK    1  A    between atoms: C_1  and  O_2
REMARK    2  A    between atoms: O_2  and  C_3
REMARK    3  A    between atoms: C_3  and  C_5
REMARK    4  A    between atoms: C_5  and  C_6
REMARK    5  A    between atoms: C_5  and  N_7
REMARK    6  A    between atoms: C_8  and  C_10
REMARK    7  A    between atoms: C_10  and  C_11
REMARK    8  A    between atoms: C_10  and  N_24
REMARK    9  A    between atoms: C_11  and  C_12
REMARK   10  A    between atoms: C_12  and  C_13
REMARK   11  A    between atoms: C_13  and  C_14
REMARK   12  A    between atoms: C_14  and  N_15
REMARK   13  A    between atoms: C_16  and  C_18
REMARK   14  A    between atoms: C_25  and  C_27
REMARK   15  A    between atoms: C_27  and  C_28
REMARK   16  A    between atoms: C_27  and  N_29
REMARK   17  A    between atoms: C_30  and  C_31
REMARK                            x       y       z     vdW  Elec       q    Type
REMARK                         _______ _______ _______ _____ _____    ______ ____
ROOT
ATOM      1  C   UNL     1       4.018   5.982  19.058  0.00  0.00    +0.000 C 
ENDROOT
BRANCH   1   3
ATOM      2  N   UNL     1       2.807   4.092  18.044  0.00  0.00    +0.000 N 
ATOM      3  C   UNL     1       3.675   4.479  19.039  0.00  0.00    +0.000 C 
ATOM      4  O   UNL     1       4.089   3.704  19.900  0.00  0.00    +0.000 OA
ATOM      5  H   UNL     1       2.785   4.685  17.211  0.00  0.00    +0.000 HD
BRANCH   2   6
ATOM      6  C   UNL     1       2.381   2.704  17.927  0.00  0.00    +0.000 C 
ATOM      7  C   UNL     1       3.569   1.779  18.155  0.00  0.00    +0.000 C 
BRANCH   6   8
ATOM      8  C   UNL     1       1.244   2.329  18.888  0.00  0.00    +0.000 C 
ATOM      9  O   UNL     1       0.060   2.315  18.564  0.00  0.00    +0.000 OA
BRANCH   8  11
ATOM     10  C   UNL     1       1.198   2.778  21.192  0.00  0.00    +0.000 C 
ATOM     11  O   UNL     1       1.709   1.983  20.124  0.00  0.00    +0.000 OA
ENDBRANCH   8  11
ENDBRANCH   6   8
ENDBRANCH   2   6
ENDBRANCH   1   3
BRANCH   1  12
ATOM     12  N   UNL     1       5.189   6.307  18.240  0.00  0.00    +0.000 N 
ATOM     13  C   UNL     1       6.490   5.991  18.557  0.00  0.00    +0.000 C 
ATOM     14  O   UNL     1       6.807   5.557  19.666  0.00  0.00    +0.000 OA
ATOM     15  H   UNL     1       5.014   6.682  17.317  0.00  0.00    +0.000 HD
BRANCH  13  16
ATOM     16  C   UNL     1       7.545   6.463  17.536  0.00  0.00    +0.000 C 
ATOM     17  C   UNL     1       7.762   7.958  17.733  0.00  0.00    +0.000 C 
BRANCH  16  18
ATOM     18  N   UNL     1       7.156   6.198  16.150  0.00  0.00    +0.000 N 
ATOM     19  C   UNL     1       7.306   4.949  15.590  0.00  0.00    +0.000 C 
ATOM     20  C   UNL     1       6.971   4.891  14.123  0.00  0.00    +0.000 C 
ATOM     21  O   UNL     1       7.708   3.972  16.210  0.00  0.00    +0.000 OA
ATOM     22  H   UNL     1       6.864   6.971  15.565  0.00  0.00    +0.000 HD
ENDBRANCH  16  18
ENDBRANCH  13  16
ENDBRANCH   1  12
BRANCH   1  23
ATOM     23  C   UNL     1       2.779   6.835  18.725  0.00  0.00    +0.000 C 
BRANCH  23  24
ATOM     24  C   UNL     1       2.987   7.806  17.551  0.00  0.00    +0.000 C 
BRANCH  24  25
ATOM     25  C   UNL     1       2.414   9.206  17.762  0.00  0.00    +0.000 C 
BRANCH  25  26
ATOM     26  C   UNL     1       1.282   9.212  18.784  0.00  0.00    +0.000 C 
BRANCH  26  27
ATOM     27  N   UNL     1       0.007   9.479  18.161  0.00  0.00    +0.000 N 
ATOM     28  C   UNL     1      -0.776  10.540  18.564  0.00  0.00    +0.000 C 
ATOM     29  O   UNL     1      -0.456  11.317  19.457  0.00  0.00    +0.000 OA
ATOM     30  H   UNL     1      -0.246   8.933  17.349  0.00  0.00    +0.000 HD
BRANCH  28  31
ATOM     31  C   UNL     1      -2.036  10.742  17.820  0.00  0.00    +0.000 A 
ATOM     32  C   UNL     1      -2.282  10.184  16.564  0.00  0.00    +0.000 A 
ATOM     33  C   UNL     1      -3.496  10.442  15.931  0.00  0.00    +0.000 A 
ATOM     34  C   UNL     1      -4.422  11.243  16.580  0.00  0.00    +0.000 A 
ATOM     35  N   UNL     1      -4.218  11.794  17.799  0.00  0.00    +0.000 NA
ATOM     36  C   UNL     1      -3.030  11.519  18.399  0.00  0.00    +0.000 A 
ENDBRANCH  28  31
ENDBRANCH  26  27
ENDBRANCH  25  26
ENDBRANCH  24  25
ENDBRANCH  23  24
ENDBRANCH   1  23
TORSDOF 13
ENDMDL
MODEL 4
REMARK VINA RESULT:      -7.6      1.724      2.358
REMARK  Name = 
REMARK  17 active torsions:
REMARK  status: ('A' for Active; 'I' for Inactive)
REMARK    1  A    between atoms: C_1  and  O_2
REMARK    2  A    between atoms: O_2  and  C_3
REMARK    3  A    between atoms: C_3  and  C_5
REMARK    4  A    between atoms: C_5  and  C_6
REMARK    5  A    between atoms: C_5  and  N_7
REMARK    6  A    between atoms: C_8  and  C_10
REMARK    7  A    between atoms: C_10  and  C_11
REMARK    8  A    between atoms: C_10  and  N_24
REMARK    9  A    between atoms: C_11  and  C_12
REMARK   10  A    between atoms: C_12  and  C_13
REMARK   11  A    between atoms: C_13  and  C_14
REMARK   12  A    between atoms: C_14  and  N_15
REMARK   13  A    between atoms: C_16  and  C_18
REMARK   14  A    between atoms: C_25  and  C_27
REMARK   15  A    between atoms: C_27  and  C_28
REMARK   16  A    between atoms: C_27  and  N_29
REMARK   17  A    between atoms: C_30  and  C_31
REMARK                            x       y       z     vdW  Elec       q    Type
REMARK                         _______ _______ _______ _____ _____    ______ ____
ROOT
ATOM      1  C   UNL     1       5.743   4.576  16.576  0.00  0.00    +0.000 C 
ENDROOT
BRANCH   1   3
ATOM      2  N   UNL     1       4.717   3.650  18.614  0.00  0.00    +0.000 N 
ATOM      3  C   UNL     1       4.512   3.994  17.297  0.00  0.00    +0.000 C 
ATOM      4  O   UNL     1       3.451   3.783  16.711  0.00  0.00    +0.000 OA
ATOM      5  H   UNL     1       5.469   4.147  19.096  0.00  0.00    +0.000 HD
BRANCH   2   6
ATOM      6  C   UNL     1       3.643   3.066  19.405  0.00  0.00    +0.000 C 
ATOM      7  C   UNL     1       4.222   2.091  20.422  0.00  0.00    +0.000 C 
BRANCH   6   8
ATOM      8  C   UNL     1       2.776   4.109  20.127  0.00  0.00    +0.000 C 
ATOM      9  O   UNL     1       3.163   5.243  20.393  0.00  0.00    +0.000 OA
BRANCH   8  11
ATOM     10  C   UNL     1       0.896   2.963  19.314  0.00  0.00    +0.000 C 
ATOM     11  O   UNL     1       1.525   3.636  20.402  0.00  0.00    +0.000 OA
ENDBRANCH   8  11
ENDBRANCH   6   8
ENDBRANCH   2   6
ENDBRANCH   1   3
BRANCH   1  12
ATOM     12  N   UNL     1       5.829   4.158  15.174  0.00  0.00    +0.000 N 
ATOM     13  C   UNL     1       6.861   4.467  14.317  0.00  0.00    +0.000 C 
ATOM     14  O   UNL     1       7.730   5.289  14.608  0.00  0.00    +0.000 OA
ATOM     15  H   UNL     1       5.140   3.491  14.851  0.00  0.00    +0.000 HD
BRANCH  13  16
ATOM     16  C   UNL     1       6.704   3.921  12.883  0.00  0.00    +0.000 C 
ATOM     17  C   UNL     1       7.500   4.818  11.943  0.00  0.00    +0.000 C 
BRANCH  16  18
ATOM     18  N   UNL     1       5.308   3.859  12.444  0.00  0.00    +0.000 N 
ATOM     19  C   UNL     1       4.864   2.860  11.608  0.00  0.00    +0.000 C 
ATOM     20  C   UNL     1       3.435   3.024  11.162  0.00  0.00    +0.000 C 
ATOM     21  O   UNL     1       5.568   1.934  11.225  0.00  0.00    +0.000 OA
ATOM     22  H   UNL     1       4.684   4.620  12.682  0.00  0.00    +0.000 HD
ENDBRANCH  16  18
ENDBRANCH  13  16
ENDBRANCH   1  12
BRANCH   1  23
ATOM     23  C   UNL     1       5.826   6.102  16.768  0.00  0.00    +0.000 C 
BRANCH  23  24
ATOM     24  C   UNL     1       7.019   6.559  17.625  0.00  0.00    +0.000 C 
BRANCH  24  25
ATOM     25  C   UNL     1       7.459   8.005  17.400  0.00  0.00    +0.000 C 
BRANCH  25  26
ATOM     26  C   UNL     1       8.314   8.528  18.549  0.00  0.00    +0.000 C 
BRANCH  26  27
ATOM     27  N   UNL     1       8.987   9.755  18.192  0.00  0.00    +0.000 N 
ATOM     28  C   UNL     1       9.411  10.642  19.159  0.00  0.00    +0.000 C 
ATOM     29  O   UNL     1       9.256  10.460  20.361  0.00  0.00    +0.000 OA
ATOM     30  H   UNL     1       9.233   9.895  17.222  0.00  0.00    +0.000 HD
BRANCH  28  31
ATOM     31  C   UNL     1      10.130  11.840  18.676  0.00  0.00    +0.000 A 
ATOM     32  C   UNL     1      10.417  12.070  17.330  0.00  0.00    +0.000 A 
ATOM     33  C   UNL     1      11.112  13.222  16.969  0.00  0.00    +0.000 A 
ATOM     34  C   UNL     1      11.491  14.105  17.969  0.00  0.00    +0.000 A 
ATOM     35  N   UNL     1      11.223  13.915  19.281  0.00  0.00    +0.000 NA
ATOM     36  C   UNL     1      10.535  12.789  19.605  0.00  0.00    +0.000 A 
ENDBRANCH  28  31
ENDBRANCH  26  27
ENDBRANCH  25  26
ENDBRANCH  24  25
ENDBRANCH  23  24
ENDBRANCH   1  23
TORSDOF 13
ENDMDL
MODEL 5
REMARK VINA RESULT:      -7.5      0.975      1.261
REMARK  Name = 
REMARK  17 active torsions:
REMARK  status: ('A' for Active; 'I' for Inactive)
REMARK    1  A    between atoms: C_1  and  O_2
REMARK    2  A    between atoms: O_2  and  C_3
REMARK    3  A    between atoms: C_3  and  C_5
REMARK    4  A    between atoms: C_5  and  C_6
REMARK    5  A    between atoms: C_5  and  N_7
REMARK    6  A    between atoms: C_8  and  C_10
REMARK    7  A    between atoms: C_10  and  C_11
REMARK    8  A    between atoms: C_10  and  N_24
REMARK    9  A    between atoms: C_11  and  C_12
REMARK   10  A    between atoms: C_12  and  C_13
REMARK   11  A    between atoms: C_13  and  C_14
REMARK   12  A    between atoms: C_14  and  N_15
REMARK   13  A    between atoms: C_16  and  C_18
REMARK   14  A    between atoms: C_25  and  C_27
REMARK   15  A    between atoms: C_27  and  C_28
REMARK   16  A    between atoms: C_27  and  N_29
REMARK   17  A    between atoms: C_30  and  C_31
REMARK                            x       y       z     vdW  Elec       q    Type
REMARK                         _______ _______ _______ _____ _____    ______ ____
ROOT
ATOM      1  C   UNL     1       7.195   5.989  17.644  0.00  0.00    +0.000 C 
ENDROOT
BRANCH   1   3
ATOM      2  N   UNL     1       4.900   5.926  18.538  0.00  0.00    +0.000 N 
ATOM      3  C   UNL     1       6.173   5.413  18.644  0.00  0.00    +0.000 C 
ATOM      4  O   UNL     1       6.497   4.612  19.520  0.00  0.00    +0.000 OA
ATOM      5  H   UNL     1       4.642   6.301  17.622  0.00  0.00    +0.000 HD
BRANCH   2   6
ATOM      6  C   UNL     1       3.844   5.487  19.439  0.00  0.00    +0.000 C 
ATOM      7  C   UNL     1       2.706   6.500  19.434  0.00  0.00    +0.000 C 
BRANCH   6   8
ATOM      8  C   UNL     1       3.294   4.092  19.103  0.00  0.00    +0.000 C 
ATOM      9  O   UNL     1       3.540   3.090  19.767  0.00  0.00    +0.000 OA
BRANCH   8  11
ATOM     10  C   UNL     1       2.942   3.327  16.913  0.00  0.00    +0.000 C 
ATOM     11  O   UNL     1       2.478   4.112  18.008  0.00  0.00    +0.000 OA
ENDBRANCH   8  11
ENDBRANCH   6   8
ENDBRANCH   2   6
ENDBRANCH   1   3
BRANCH   1  12
ATOM     12  N   UNL     1       7.259   5.224  16.396  0.00  0.00    +0.000 N 
ATOM     13  C   UNL     1       6.317   5.262  15.393  0.00  0.00    +0.000 C 
ATOM     14  O   UNL     1       5.227   5.815  15.541  0.00  0.00    +0.000 OA
ATOM     15  H   UNL     1       8.121   4.729  16.205  0.00  0.00    +0.000 HD
BRANCH  13  16
ATOM     16  C   UNL     1       6.610   4.347  14.187  0.00  0.00    +0.000 C 
ATOM     17  C   UNL     1       7.684   5.012  13.335  0.00  0.00    +0.000 C 
BRANCH  16  18
ATOM     18  N   UNL     1       5.424   4.083  13.369  0.00  0.00    +0.000 N 
ATOM     19  C   UNL     1       5.492   3.292  12.244  0.00  0.00    +0.000 C 
ATOM     20  C   UNL     1       4.208   3.232  11.459  0.00  0.00    +0.000 C 
ATOM     21  O   UNL     1       6.510   2.714  11.882  0.00  0.00    +0.000 OA
ATOM     22  H   UNL     1       4.562   4.569  13.581  0.00  0.00    +0.000 HD
ENDBRANCH  16  18
ENDBRANCH  13  16
ENDBRANCH   1  12
BRANCH   1  23
ATOM     23  C   UNL     1       6.969   7.497  17.430  0.00  0.00    +0.000 C 
BRANCH  23  24
ATOM     24  C   UNL     1       8.229   8.353  17.639  0.00  0.00    +0.000 C 
BRANCH  24  25
ATOM     25  C   UNL     1       7.965   9.803  18.042  0.00  0.00    +0.000 C 
BRANCH  25  26
ATOM     26  C   UNL     1       9.214  10.477  18.601  0.00  0.00    +0.000 C 
BRANCH  26  27
ATOM     27  N   UNL     1       9.370  11.816  18.080  0.00  0.00    +0.000 N 
ATOM     28  C   UNL     1      10.068  12.776  18.781  0.00  0.00    +0.000 C 
ATOM     29  O   UNL     1      10.597  12.571  19.868  0.00  0.00    +0.000 OA
ATOM     30  H   UNL     1       9.046  11.999  17.141  0.00  0.00    +0.000 HD
BRANCH  28  31
ATOM     31  C   UNL     1      10.203  14.094  18.127  0.00  0.00    +0.000 A 
ATOM     32  C   UNL     1      11.370  14.517  17.489  0.00  0.00    +0.000 A 
ATOM     33  C   UNL     1      11.410  15.784  16.911  0.00  0.00    +0.000 A 
ATOM     34  C   UNL     1      10.278  16.579  16.987  0.00  0.00    +0.000 A 
ATOM     35  N   UNL     1       9.129  16.198  17.592  0.00  0.00    +0.000 NA
ATOM     36  C   UNL     1       9.114  14.954  18.138  0.00  0.00    +0.000 A 
ENDBRANCH  28  31
ENDBRANCH  26  27
ENDBRANCH  25  26
ENDBRANCH  24  25
ENDBRANCH  23  24
ENDBRANCH   1  23
TORSDOF 13
ENDMDL
MODEL 6
REMARK VINA RESULT:      -7.5      4.502      6.290
REMARK  Name = 
REMARK  17 active torsions:
REMARK  status: ('A' for Active; 'I' for Inactive)
REMARK    1  A    between atoms: C_1  and  O_2
REMARK    2  A    between atoms: O_2  and  C_3
REMARK    3  A    between atoms: C_3  and  C_5
REMARK    4  A    between atoms: C_5  and  C_6
REMARK    5  A    between atoms: C_5  and  N_7
REMARK    6  A    between atoms: C_8  and  C_10
REMARK    7  A    between atoms: C_10  and  C_11
REMARK    8  A    between atoms: C_10  and  N_24
REMARK    9  A    between atoms: C_11  and  C_12
REMARK   10  A    between atoms: C_12  and  C_13
REMARK   11  A    between atoms: C_13  and  C_14
REMARK   12  A    between atoms: C_14  and  N_15
REMARK   13  A    between atoms: C_16  and  C_18
REMARK   14  A    between atoms: C_25  and  C_27
REMARK   15  A    between atoms: C_27  and  C_28
REMARK   16  A    between atoms: C_27  and  N_29
REMARK   17  A    between atoms: C_30  and  C_31
REMARK                            x       y       z     vdW  Elec       q    Type
REMARK                         _______ _______ _______ _____ _____    ______ ____
ROOT
ATOM      1  C   UNL     1       3.635   6.153  18.706  0.00  0.00    +0.000 C 
ENDROOT
BRANCH   1   3
ATOM      2  N   UNL     1       3.327   3.710  18.645  0.00  0.00    +0.000 N 
ATOM      3  C   UNL     1       2.802   4.929  18.279  0.00  0.00    +0.000 C 
ATOM      4  O   UNL     1       1.786   5.039  17.594  0.00  0.00    +0.000 OA
ATOM      5  H   UNL     1       3.945   3.714  19.459  0.00  0.00    +0.000 HD
BRANCH   2   6
ATOM      6  C   UNL     1       2.652   2.472  18.282  0.00  0.00    +0.000 C 
ATOM      7  C   UNL     1       3.631   1.308  18.366  0.00  0.00    +0.000 C 
BRANCH   6   8
ATOM      8  C   UNL     1       1.418   2.171  19.146  0.00  0.00    +0.000 C 
ATOM      9  O   UNL     1       0.276   2.115  18.699  0.00  0.00    +0.000 OA
BRANCH   8  11
ATOM     10  C   UNL     1       1.316   2.955  21.356  0.00  0.00    +0.000 C 
ATOM     11  O   UNL     1       1.747   1.942  20.451  0.00  0.00    +0.000 OA
ENDBRANCH   8  11
ENDBRANCH   6   8
ENDBRANCH   2   6
ENDBRANCH   1   3
BRANCH   1  12
ATOM     12  N   UNL     1       4.944   6.206  18.050  0.00  0.00    +0.000 N 
ATOM     13  C   UNL     1       6.038   5.448  18.400  0.00  0.00    +0.000 C 
ATOM     14  O   UNL     1       6.065   4.776  19.432  0.00  0.00    +0.000 OA
ATOM     15  H   UNL     1       5.009   6.750  17.199  0.00  0.00    +0.000 HD
BRANCH  13  16
ATOM     16  C   UNL     1       7.307   5.705  17.562  0.00  0.00    +0.000 C 
ATOM     17  C   UNL     1       7.370   7.193  17.239  0.00  0.00    +0.000 C 
BRANCH  16  18
ATOM     18  N   UNL     1       7.339   4.929  16.321  0.00  0.00    +0.000 N 
ATOM     19  C   UNL     1       6.462   5.188  15.292  0.00  0.00    +0.000 C 
ATOM     20  C   UNL     1       6.556   4.213  14.147  0.00  0.00    +0.000 C 
ATOM     21  O   UNL     1       5.649   6.104  15.308  0.00  0.00    +0.000 OA
ATOM     22  H   UNL     1       7.951   4.125  16.259  0.00  0.00    +0.000 HD
ENDBRANCH  16  18
ENDBRANCH  13  16
ENDBRANCH   1  12
BRANCH   1  23
ATOM     23  C   UNL     1       2.822   7.454  18.562  0.00  0.00    +0.000 C 
BRANCH  23  24
ATOM     24  C   UNL     1       1.957   7.789  19.788  0.00  0.00    +0.000 C 
BRANCH  24  25
ATOM     25  C   UNL     1       1.249   9.142  19.727  0.00  0.00    +0.000 C 
BRANCH  25  26
ATOM     26  C   UNL     1       1.190   9.693  18.307  0.00  0.00    +0.000 C 
BRANCH  26  27
ATOM     27  N   UNL     1       1.590  11.080  18.260  0.00  0.00    +0.000 N 
ATOM     28  C   UNL     1       0.715  12.086  18.612  0.00  0.00    +0.000 C 
ATOM     29  O   UNL     1      -0.436  11.884  18.983  0.00  0.00    +0.000 OA
ATOM     30  H   UNL     1       2.560  11.287  18.067  0.00  0.00    +0.000 HD
BRANCH  28  31
ATOM     31  C   UNL     1       1.251  13.463  18.572  0.00  0.00    +0.000 A 
ATOM     32  C   UNL     1       0.490  14.590  18.884  0.00  0.00    +0.000 A 
ATOM     33  C   UNL     1       1.078  15.851  18.805  0.00  0.00    +0.000 A 
ATOM     34  C   UNL     1       2.407  15.937  18.422  0.00  0.00    +0.000 A 
ATOM     35  N   UNL     1       3.174  14.864  18.120  0.00  0.00    +0.000 NA
ATOM     36  C   UNL     1       2.580  13.645  18.215  0.00  0.00    +0.000 A 
ENDBRANCH  28  31
ENDBRANCH  26  27
ENDBRANCH  25  26
ENDBRANCH  24  25
ENDBRANCH  23  24
ENDBRANCH   1  23
TORSDOF 13
ENDMDL
MODEL 7
REMARK VINA RESULT:      -7.5      3.093      5.493
REMARK  Name = 
REMARK  17 active torsions:
REMARK  status: ('A' for Active; 'I' for Inactive)
REMARK    1  A    between atoms: C_1  and  O_2
REMARK    2  A    between atoms: O_2  and  C_3
REMARK    3  A    between atoms: C_3  and  C_5
REMARK    4  A    between atoms: C_5  and  C_6
REMARK    5  A    between atoms: C_5  and  N_7
REMARK    6  A    between atoms: C_8  and  C_10
REMARK    7  A    between atoms: C_10  and  C_11
REMARK    8  A    between atoms: C_10  and  N_24
REMARK    9  A    between atoms: C_11  and  C_12
REMARK   10  A    between atoms: C_12  and  C_13
REMARK   11  A    between atoms: C_13  and  C_14
REMARK   12  A    between atoms: C_14  and  N_15
REMARK   13  A    between atoms: C_16  and  C_18
REMARK   14  A    between atoms: C_25  and  C_27
REMARK   15  A    between atoms: C_27  and  C_28
REMARK   16  A    between atoms: C_27  and  N_29
REMARK   17  A    between atoms: C_30  and  C_31
REMARK                            x       y       z     vdW  Elec       q    Type
REMARK                         _______ _______ _______ _____ _____    ______ ____
ROOT
ATOM      1  C   UNL     1       4.387   5.805  17.601  0.00  0.00    +0.000 C 
ENDROOT
BRANCH   1   3
ATOM      2  N   UNL     1       3.875   4.033  19.233  0.00  0.00    +0.000 N 
ATOM      3  C   UNL     1       3.783   4.422  17.916  0.00  0.00    +0.000 C 
ATOM      4  O   UNL     1       3.325   3.695  17.037  0.00  0.00    +0.000 OA
ATOM      5  H   UNL     1       3.946   4.786  19.921  0.00  0.00    +0.000 HD
BRANCH   2   6
ATOM      6  C   UNL     1       3.366   2.738  19.662  0.00  0.00    +0.000 C 
ATOM      7  C   UNL     1       4.524   1.841  20.082  0.00  0.00    +0.000 C 
BRANCH   6   8
ATOM      8  C   UNL     1       2.344   2.830  20.806  0.00  0.00    +0.000 C 
ATOM      9  O   UNL     1       2.645   2.735  21.991  0.00  0.00    +0.000 OA
BRANCH   8  11
ATOM     10  C   UNL     1       0.788   2.460  19.088  0.00  0.00    +0.000 C 
ATOM     11  O   UNL     1       1.080   3.062  20.347  0.00  0.00    +0.000 OA
ENDBRANCH   8  11
ENDBRANCH   6   8
ENDBRANCH   2   6
ENDBRANCH   1   3
BRANCH   1  12
ATOM     12  N   UNL     1       3.405   6.888  17.698  0.00  0.00    +0.000 N 
ATOM     13  C   UNL     1       2.704   7.225  18.834  0.00  0.00    +0.000 C 
ATOM     14  O   UNL     1       2.709   6.514  19.840  0.00  0.00    +0.000 OA
ATOM     15  H   UNL     1       3.329   7.512  16.904  0.00  0.00    +0.000 HD
BRANCH  13  16
ATOM     16  C   UNL     1       1.714   8.395  18.668  0.00  0.00    +0.000 C 
ATOM     17  C   UNL     1       2.362   9.444  17.773  0.00  0.00    +0.000 C 
BRANCH  16  18
ATOM     18  N   UNL     1       1.330   9.003  19.944  0.00  0.00    +0.000 N 
ATOM     19  C   UNL     1       0.210   9.796  20.050  0.00  0.00    +0.000 C 
ATOM     20  C   UNL     1       0.038  10.437  21.403  0.00  0.00    +0.000 C 
ATOM     21  O   UNL     1      -0.568   9.999  19.126  0.00  0.00    +0.000 OA
ATOM     22  H   UNL     1       1.954   8.919  20.736  0.00  0.00    +0.000 HD
ENDBRANCH  16  18
ENDBRANCH  13  16
ENDBRANCH   1  12
BRANCH   1  23
ATOM     23  C   UNL     1       5.661   6.054  18.430  0.00  0.00    +0.000 C 
BRANCH  23  24
ATOM     24  C   UNL     1       6.924   6.277  17.583  0.00  0.00    +0.000 C 
BRANCH  24  25
ATOM     25  C   UNL     1       7.262   7.741  17.301  0.00  0.00    +0.000 C 
BRANCH  25  26
ATOM     26  C   UNL     1       8.237   8.310  18.326  0.00  0.00    +0.000 C 
BRANCH  26  27
ATOM     27  N   UNL     1       8.732   9.606  17.924  0.00  0.00    +0.000 N 
ATOM     28  C   UNL     1       9.242  10.492  18.848  0.00  0.00    +0.000 C 
ATOM     29  O   UNL     1       9.316  10.253  20.048  0.00  0.00    +0.000 OA
ATOM     30  H   UNL     1       8.792   9.802  16.935  0.00  0.00    +0.000 HD
BRANCH  28  31
ATOM     31  C   UNL     1       9.763  11.767  18.312  0.00  0.00    +0.000 A 
ATOM     32  C   UNL     1      11.016  11.890  17.710  0.00  0.00    +0.000 A 
ATOM     33  C   UNL     1      11.430  13.137  17.246  0.00  0.00    +0.000 A 
ATOM     34  C   UNL     1      10.571  14.215  17.396  0.00  0.00    +0.000 A 
ATOM     35  N   UNL     1       9.348  14.128  17.968  0.00  0.00    +0.000 NA
ATOM     36  C   UNL     1       8.965  12.899  18.403  0.00  0.00    +0.000 A 
ENDBRANCH  28  31
ENDBRANCH  26  27
ENDBRANCH  25  26
ENDBRANCH  24  25
ENDBRANCH  23  24
ENDBRANCH   1  23
TORSDOF 13
ENDMDL
MODEL 8
REMARK VINA RESULT:      -7.4      1.463      1.717
REMARK  Name = 
REMARK  17 active torsions:
REMARK  status: ('A' for Active; 'I' for Inactive)
REMARK    1  A    between atoms: C_1  and  O_2
REMARK    2  A    between atoms: O_2  and  C_3
REMARK    3  A    between atoms: C_3  and  C_5
REMARK    4  A    between atoms: C_5  and  C_6
REMARK    5  A    between atoms: C_5  and  N_7
REMARK    6  A    between atoms: C_8  and  C_10
REMARK    7  A    between atoms: C_10  and  C_11
REMARK    8  A    between atoms: C_10  and  N_24
REMARK    9  A    between atoms: C_11  and  C_12
REMARK   10  A    between atoms: C_12  and  C_13
REMARK   11  A    between atoms: C_13  and  C_14
REMARK   12  A    between atoms: C_14  and  N_15
REMARK   13  A    between atoms: C_16  and  C_18
REMARK   14  A    between atoms: C_25  and  C_27
REMARK   15  A    between atoms: C_27  and  C_28
REMARK   16  A    between atoms: C_27  and  N_29
REMARK   17  A    between atoms: C_30  and  C_31
REMARK                            x       y       z     vdW  Elec       q    Type
REMARK                         _______ _______ _______ _____ _____    ______ ____
ROOT
ATOM      1  C   UNL     1       6.994   5.883  17.788  0.00  0.00    +0.000 C 
ENDROOT
BRANCH   1   3
ATOM      2  N   UNL     1       4.639   5.865  18.511  0.00  0.00    +0.000 N 
ATOM      3  C   UNL     1       5.870   5.263  18.642  0.00  0.00    +0.000 C 
ATOM      4  O   UNL     1       6.083   4.349  19.437  0.00  0.00    +0.000 OA
ATOM      5  H   UNL     1       4.471   6.358  17.630  0.00  0.00    +0.000 HD
BRANCH   2   6
ATOM      6  C   UNL     1       3.495   5.394  19.279  0.00  0.00    +0.000 C 
ATOM      7  C   UNL     1       2.582   6.565  19.616  0.00  0.00    +0.000 C 
BRANCH   6   8
ATOM      8  C   UNL     1       2.688   4.299  18.566  0.00  0.00    +0.000 C 
ATOM      9  O   UNL     1       1.820   4.533  17.730  0.00  0.00    +0.000 OA
BRANCH   8  11
ATOM     10  C   UNL     1       2.872   2.040  17.957  0.00  0.00    +0.000 C 
ATOM     11  O   UNL     1       3.075   3.046  18.946  0.00  0.00    +0.000 OA
ENDBRANCH   8  11
ENDBRANCH   6   8
ENDBRANCH   2   6
ENDBRANCH   1   3
BRANCH   1  12
ATOM     12  N   UNL     1       7.168   5.206  16.501  0.00  0.00    +0.000 N 
ATOM     13  C   UNL     1       6.287   5.269  15.446  0.00  0.00    +0.000 C 
ATOM     14  O   UNL     1       5.165   5.764  15.559  0.00  0.00    +0.000 OA
ATOM     15  H   UNL     1       8.062   4.761  16.334  0.00  0.00    +0.000 HD
BRANCH  13  16
ATOM     16  C   UNL     1       6.693   4.449  14.205  0.00  0.00    +0.000 C 
ATOM     17  C   UNL     1       7.680   5.276  13.390  0.00  0.00    +0.000 C 
BRANCH  16  18
ATOM     18  N   UNL     1       5.551   4.077  13.367  0.00  0.00    +0.000 N 
ATOM     19  C   UNL     1       5.711   3.294  12.246  0.00  0.00    +0.000 C 
ATOM     20  C   UNL     1       4.451   3.115  11.439  0.00  0.00    +0.000 C 
ATOM     21  O   UNL     1       6.783   2.810  11.904  0.00  0.00    +0.000 OA
ATOM     22  H   UNL     1       4.645   4.483  13.562  0.00  0.00    +0.000 HD
ENDBRANCH  16  18
ENDBRANCH  13  16
ENDBRANCH   1  12
BRANCH   1  23
ATOM     23  C   UNL     1       6.815   7.408  17.662  0.00  0.00    +0.000 C 
BRANCH  23  24
ATOM     24  C   UNL     1       8.116   8.166  17.352  0.00  0.00    +0.000 C 
BRANCH  24  25
ATOM     25  C   UNL     1       8.256   9.520  18.048  0.00  0.00    +0.000 C 
BRANCH  25  26
ATOM     26  C   UNL     1       9.141   9.436  19.287  0.00  0.00    +0.000 C 
BRANCH  26  27
ATOM     27  N   UNL     1       9.258  10.719  19.941  0.00  0.00    +0.000 N 
ATOM     28  C   UNL     1      10.317  11.560  19.676  0.00  0.00    +0.000 C 
ATOM     29  O   UNL     1      11.214  11.292  18.885  0.00  0.00    +0.000 OA
ATOM     30  H   UNL     1       8.487  11.028  20.516  0.00  0.00    +0.000 HD
BRANCH  28  31
ATOM     31  C   UNL     1      10.304  12.866  20.368  0.00  0.00    +0.000 A 
ATOM     32  C   UNL     1      10.988  13.988  19.899  0.00  0.00    +0.000 A 
ATOM     33  C   UNL     1      10.929  15.175  20.627  0.00  0.00    +0.000 A 
ATOM     34  C   UNL     1      10.182  15.196  21.795  0.00  0.00    +0.000 A 
ATOM     35  N   UNL     1       9.503  14.129  22.273  0.00  0.00    +0.000 NA
ATOM     36  C   UNL     1       9.568  12.987  21.539  0.00  0.00    +0.000 A 
ENDBRANCH  28  31
ENDBRANCH  26  27
ENDBRANCH  25  26
ENDBRANCH  24  25
ENDBRANCH  23  24
ENDBRANCH   1  23
TORSDOF 13
ENDMDL
MODEL 9
REMARK VINA RESULT:      -7.3      4.675      6.351
REMARK  Name = 
REMARK  17 active torsions:
REMARK  status: ('A' for Active; 'I' for Inactive)
REMARK    1  A    between atoms: C_1  and  O_2
REMARK    2  A    between atoms: O_2  and  C_3
REMARK    3  A    between atoms: C_3  and  C_5
REMARK    4  A    between atoms: C_5  and  C_6
REMARK    5  A    between atoms: C_5  and  N_7
REMARK    6  A    between atoms: C_8  and  C_10
REMARK    7  A    between atoms: C_10  and  C_11
REMARK    8  A    between atoms: C_10  and  N_24
REMARK    9  A    between atoms: C_11  and  C_12
REMARK   10  A    between atoms: C_12  and  C_13
REMARK   11  A    between atoms: C_13  and  C_14
REMARK   12  A    between atoms: C_14  and  N_15
REMARK   13  A    between atoms: C_16  and  C_18
REMARK   14  A    between atoms: C_25  and  C_27
REMARK   15  A    between atoms: C_27  and  C_28
REMARK   16  A    between atoms: C_27  and  N_29
REMARK   17  A    between atoms: C_30  and  C_31
REMARK                            x       y       z     vdW  Elec       q    Type
REMARK                         _______ _______ _______ _____ _____    ______ ____
ROOT
ATOM      1  C   UNL     1       3.540   6.234  18.444  0.00  0.00    +0.000 C 
ENDROOT
BRANCH   1   3
ATOM      2  N   UNL     1       3.295   3.783  18.491  0.00  0.00    +0.000 N 
ATOM      3  C   UNL     1       2.704   4.975  18.139  0.00  0.00    +0.000 C 
ATOM      4  O   UNL     1       1.624   5.036  17.553  0.00  0.00    +0.000 OA
ATOM      5  H   UNL     1       3.989   3.831  19.242  0.00  0.00    +0.000 HD
BRANCH   2   6
ATOM      6  C   UNL     1       2.624   2.517  18.236  0.00  0.00    +0.000 C 
ATOM      7  C   UNL     1       3.617   1.370  18.371  0.00  0.00    +0.000 C 
BRANCH   6   8
ATOM      8  C   UNL     1       1.419   2.266  19.156  0.00  0.00    +0.000 C 
ATOM      9  O   UNL     1       0.260   2.222  18.755  0.00  0.00    +0.000 OA
BRANCH   8  11
ATOM     10  C   UNL     1       1.377   3.085  21.355  0.00  0.00    +0.000 C 
ATOM     11  O   UNL     1       1.796   2.064  20.453  0.00  0.00    +0.000 OA
ENDBRANCH   8  11
ENDBRANCH   6   8
ENDBRANCH   2   6
ENDBRANCH   1   3
BRANCH   1  12
ATOM     12  N   UNL     1       4.900   6.156  17.905  0.00  0.00    +0.000 N 
ATOM     13  C   UNL     1       5.957   5.516  18.511  0.00  0.00    +0.000 C 
ATOM     14  O   UNL     1       5.894   5.100  19.668  0.00  0.00    +0.000 OA
ATOM     15  H   UNL     1       5.039   6.491  16.961  0.00  0.00    +0.000 HD
BRANCH  13  16
ATOM     16  C   UNL     1       7.294   5.595  17.746  0.00  0.00    +0.000 C 
ATOM     17  C   UNL     1       7.550   7.053  17.384  0.00  0.00    +0.000 C 
BRANCH  16  18
ATOM     18  N   UNL     1       7.307   4.775  16.532  0.00  0.00    +0.000 N 
ATOM     19  C   UNL     1       6.603   5.147  15.410  0.00  0.00    +0.000 C 
ATOM     20  C   UNL     1       6.629   4.126  14.303  0.00  0.00    +0.000 C 
ATOM     21  O   UNL     1       5.977   6.196  15.319  0.00  0.00    +0.000 OA
ATOM     22  H   UNL     1       7.761   3.871  16.555  0.00  0.00    +0.000 HD
ENDBRANCH  16  18
ENDBRANCH  13  16
ENDBRANCH   1  12
BRANCH   1  23
ATOM     23  C   UNL     1       2.787   7.512  18.029  0.00  0.00    +0.000 C 
BRANCH  23  24
ATOM     24  C   UNL     1       2.017   8.184  19.178  0.00  0.00    +0.000 C 
BRANCH  24  25
ATOM     25  C   UNL     1       1.123   9.351  18.760  0.00  0.00    +0.000 C 
BRANCH  25  26
ATOM     26  C   UNL     1       1.921  10.480  18.116  0.00  0.00    +0.000 C 
BRANCH  26  27
ATOM     27  N   UNL     1       1.349  11.772  18.418  0.00  0.00    +0.000 N 
ATOM     28  C   UNL     1       2.110  12.920  18.360  0.00  0.00    +0.000 C 
ATOM     29  O   UNL     1       3.297  12.931  18.055  0.00  0.00    +0.000 OA
ATOM     30  H   UNL     1       0.351  11.823  18.567  0.00  0.00    +0.000 HD
BRANCH  28  31
ATOM     31  C   UNL     1       1.404  14.187  18.642  0.00  0.00    +0.000 A 
ATOM     32  C   UNL     1       0.040  14.255  18.931  0.00  0.00    +0.000 A 
ATOM     33  C   UNL     1      -0.544  15.498  19.170  0.00  0.00    +0.000 A 
ATOM     34  C   UNL     1       0.260  16.626  19.117  0.00  0.00    +0.000 A 
ATOM     35  N   UNL     1       1.585  16.593  18.847  0.00  0.00    +0.000 NA
ATOM     36  C   UNL     1       2.132  15.369  18.628  0.00  0.00    +0.000 A 
ENDBRANCH  28  31
ENDBRANCH  26  27
ENDBRANCH  25  26
ENDBRANCH  24  25
ENDBRANCH  23  24
ENDBRANCH   1  23
TORSDOF 13
ENDMDL
