MODEL 1
REMARK VINA RESULT:      -6.9      0.000      0.000
REMARK  Name = 
REMARK  5 active torsions:
REMARK  status: ('A' for Active; 'I' for Inactive)
REMARK    1  A    between atoms: C_2  and  C_3
REMARK    2  A    between atoms: C_2  and  C_4
REMARK    3  A    between atoms: N_6  and  C_7
REMARK    4  A    between atoms: C_11  and  C_12
REMARK    5  A    between atoms: C_12  and  C_13
REMARK                            x       y       z     vdW  Elec       q    Type
REMARK                         _______ _______ _______ _____ _____    ______ ____
ROOT
ATOM      1  C   UNL     1       4.936   4.645  18.475  0.00  0.00    +0.000 A 
ATOM      2  C   UNL     1       5.873   5.200  19.348  0.00  0.00    +0.000 A 
ATOM      3  C   UNL     1       7.115   5.632  18.889  0.00  0.00    +0.000 A 
ATOM      4  C   UNL     1       7.445   5.514  17.541  0.00  0.00    +0.000 A 
ATOM      5  C   UNL     1       6.537   4.939  16.647  0.00  0.00    +0.000 A 
ATOM      6  C   UNL     1       5.287   4.488  17.129  0.00  0.00    +0.000 A 
ENDROOT
BRANCH   1   9
ATOM      7  C   UNL     1       3.323   2.968  19.352  0.00  0.00    +0.000 C 
ATOM      8  O   UNL     1       4.126   2.053  19.517  0.00  0.00    +0.000 OA
ATOM      9  N   UNL     1       3.644   4.233  18.892  0.00  0.00    +0.000 N 
ATOM     10  H   UNL     1       2.946   4.959  18.956  0.00  0.00    +0.000 HD
BRANCH   7  12
ATOM     11  C   UNL     1       1.072   2.317  18.719  0.00  0.00    +0.000 C 
ATOM     12  C   UNL     1       1.876   2.748  19.708  0.00  0.00    +0.000 C 
ATOM     13  C   UNL     1       1.344   3.029  21.076  0.00  0.00    +0.000 C 
ENDBRANCH   7  12
ENDBRANCH   1   9
BRANCH   5  14
ATOM     14  C   UNL     1       6.822   4.801  15.185  0.00  0.00    +0.000 C 
ATOM     15  C   UNL     1       6.001   3.882  14.306  0.00  0.00    +0.000 C 
ATOM     16  O   UNL     1       7.757   5.437  14.695  0.00  0.00    +0.000 OA
ENDBRANCH   5  14
TORSDOF 3
ENDMDL
MODEL 2
REMARK VINA RESULT:      -6.8      1.238      1.506
REMARK  Name = 
REMARK  5 active torsions:
REMARK  status: ('A' for Active; 'I' for Inactive)
REMARK    1  A    between atoms: C_2  and  C_3
REMARK    2  A    between atoms: C_2  and  C_4
REMARK    3  A    between atoms: N_6  and  C_7
REMARK    4  A    between atoms: C_11  and  C_12
REMARK    5  A    between atoms: C_12  and  C_13
REMARK                            x       y       z     vdW  Elec       q    Type
REMARK                         _______ _______ _______ _____ _____    ______ ____
ROOT
ATOM      1  C   UNL     1       5.066   4.443  18.335  0.00  0.00    +0.000 A 
ATOM      2  C   UNL     1       5.911   5.163  19.182  0.00  0.00    +0.000 A 
ATOM      3  C   UNL     1       7.062   5.778  18.694  0.00  0.00    +0.000 A 
ATOM      4  C   UNL     1       7.391   5.683  17.345  0.00  0.00    +0.000 A 
ATOM      5  C   UNL     1       6.577   4.948  16.478  0.00  0.00    +0.000 A 
ATOM      6  C   UNL     1       5.423   4.313  16.988  0.00  0.00    +0.000 A 
ENDROOT
BRANCH   1   9
ATOM      7  C   UNL     1       2.619   4.444  18.777  0.00  0.00    +0.000 C 
ATOM      8  O   UNL     1       2.382   5.562  18.330  0.00  0.00    +0.000 OA
ATOM      9  N   UNL     1       3.863   3.838  18.781  0.00  0.00    +0.000 N 
ATOM     10  H   UNL     1       3.919   2.856  19.011  0.00  0.00    +0.000 HD
BRANCH   7  12
ATOM     11  C   UNL     1       0.954   4.033  20.496  0.00  0.00    +0.000 C 
ATOM     12  C   UNL     1       1.487   3.619  19.332  0.00  0.00    +0.000 C 
ATOM     13  C   UNL     1       1.000   2.381  18.652  0.00  0.00    +0.000 C 
ENDBRANCH   7  12
ENDBRANCH   1   9
BRANCH   5  14
ATOM     14  C   UNL     1       6.864   4.822  15.014  0.00  0.00    +0.000 C 
ATOM     15  C   UNL     1       6.036   3.922  14.124  0.00  0.00    +0.000 C 
ATOM     16  O   UNL     1       7.807   5.454  14.534  0.00  0.00    +0.000 OA
ENDBRANCH   5  14
TORSDOF 3
ENDMDL
MODEL 3
REMARK VINA RESULT:      -6.7      1.564      2.654
REMARK  Name = 
REMARK  5 active torsions:
REMARK  status: ('A' for Active; 'I' for Inactive)
REMARK    1  A    between atoms: C_2  and  C_3
REMARK    2  A    between atoms: C_2  and  C_4
REMARK    3  A    between atoms: N_6  and  C_7
REMARK    4  A    between atoms: C_11  and  C_12
REMARK    5  A    between atoms: C_12  and  C_13
REMARK                            x       y       z     vdW  Elec       q    Type
REMARK                         _______ _______ _______ _____ _____    ______ ____
ROOT
ATOM      1  C   UNL     1       4.514   4.164  17.851  0.00  0.00    +0.000 A 
ATOM      2  C   UNL     1       4.803   3.753  16.549  0.00  0.00    +0.000 A 
ATOM      3  C   UNL     1       6.034   4.036  15.962  0.00  0.00    +0.000 A 
ATOM      4  C   UNL     1       7.004   4.739  16.671  0.00  0.00    +0.000 A 
ATOM      5  C   UNL     1       6.735   5.186  17.968  0.00  0.00    +0.000 A 
ATOM      6  C   UNL     1       5.475   4.909  18.545  0.00  0.00    +0.000 A 
ENDROOT
BRANCH   1   9
ATOM      7  C   UNL     1       3.112   2.850  19.429  0.00  0.00    +0.000 C 
ATOM      8  O   UNL     1       4.003   2.123  19.858  0.00  0.00    +0.000 OA
ATOM      9  N   UNL     1       3.290   3.861  18.501  0.00  0.00    +0.000 N 
ATOM     10  H   UNL     1       2.533   4.510  18.345  0.00  0.00    +0.000 HD
BRANCH   7  12
ATOM     11  C   UNL     1       0.733   2.550  19.051  0.00  0.00    +0.000 C 
ATOM     12  C   UNL     1       1.712   2.691  19.963  0.00  0.00    +0.000 C 
ATOM     13  C   UNL     1       1.412   2.725  21.426  0.00  0.00    +0.000 C 
ENDBRANCH   7  12
ENDBRANCH   1   9
BRANCH   5  14
ATOM     14  C   UNL     1       7.740   5.930  18.790  0.00  0.00    +0.000 C 
ATOM     15  C   UNL     1       8.153   7.342  18.440  0.00  0.00    +0.000 C 
ATOM     16  O   UNL     1       8.252   5.368  19.761  0.00  0.00    +0.000 OA
ENDBRANCH   5  14
TORSDOF 3
ENDMDL
MODEL 4
REMARK VINA RESULT:      -6.6      1.708      1.854
REMARK  Name = 
REMARK  5 active torsions:
REMARK  status: ('A' for Active; 'I' for Inactive)
REMARK    1  A    between atoms: C_2  and  C_3
REMARK    2  A    between atoms: C_2  and  C_4
REMARK    3  A    between atoms: N_6  and  C_7
REMARK    4  A    between atoms: C_11  and  C_12
REMARK    5  A    between atoms: C_12  and  C_13
REMARK                            x       y       z     vdW  Elec       q    Type
REMARK                         _______ _______ _______ _____ _____    ______ ____
ROOT
ATOM      1  C   UNL     1       3.552   4.985  17.686  0.00  0.00    +0.000 A 
ATOM      2  C   UNL     1       3.442   6.376  17.735  0.00  0.00    +0.000 A 
ATOM      3  C   UNL     1       4.339   7.192  17.050  0.00  0.00    +0.000 A 
ATOM      4  C   UNL     1       5.369   6.629  16.300  0.00  0.00    +0.000 A 
ATOM      5  C   UNL     1       5.520   5.240  16.253  0.00  0.00    +0.000 A 
ATOM      6  C   UNL     1       4.614   4.424  16.967  0.00  0.00    +0.000 A 
ENDROOT
BRANCH   1   9
ATOM      7  C   UNL     1       2.464   4.019  19.703  0.00  0.00    +0.000 C 
ATOM      8  O   UNL     1       3.039   4.715  20.536  0.00  0.00    +0.000 OA
ATOM      9  N   UNL     1       2.636   4.117  18.333  0.00  0.00    +0.000 N 
ATOM     10  H   UNL     1       1.993   3.623  17.732  0.00  0.00    +0.000 HD
BRANCH   7  12
ATOM     11  C   UNL     1       0.670   2.457  19.217  0.00  0.00    +0.000 C 
ATOM     12  C   UNL     1       1.455   3.001  20.166  0.00  0.00    +0.000 C 
ATOM     13  C   UNL     1       1.299   2.636  21.606  0.00  0.00    +0.000 C 
ENDBRANCH   7  12
ENDBRANCH   1   9
BRANCH   5  14
ATOM     14  C   UNL     1       6.592   4.572  15.452  0.00  0.00    +0.000 C 
ATOM     15  C   UNL     1       6.301   3.965  14.097  0.00  0.00    +0.000 C 
ATOM     16  O   UNL     1       7.731   4.503  15.918  0.00  0.00    +0.000 OA
ENDBRANCH   5  14
TORSDOF 3
ENDMDL
MODEL 5
REMARK VINA RESULT:      -6.5      1.956      2.857
REMARK  Name = 
REMARK  5 active torsions:
REMARK  status: ('A' for Active; 'I' for Inactive)
REMARK    1  A    between atoms: C_2  and  C_3
REMARK    2  A    between atoms: C_2  and  C_4
REMARK    3  A    between atoms: N_6  and  C_7
REMARK    4  A    between atoms: C_11  and  C_12
REMARK    5  A    between atoms: C_12  and  C_13
REMARK                            x       y       z     vdW  Elec       q    Type
REMARK                         _______ _______ _______ _____ _____    ______ ____
ROOT
ATOM      1  C   UNL     1       4.695   4.272  17.469  0.00  0.00    +0.000 A 
ATOM      2  C   UNL     1       4.897   3.961  16.123  0.00  0.00    +0.000 A 
ATOM      3  C   UNL     1       5.956   4.517  15.409  0.00  0.00    +0.000 A 
ATOM      4  C   UNL     1       6.836   5.399  16.031  0.00  0.00    +0.000 A 
ATOM      5  C   UNL     1       6.644   5.749  17.370  0.00  0.00    +0.000 A 
ATOM      6  C   UNL     1       5.555   5.192  18.078  0.00  0.00    +0.000 A 
ENDROOT
BRANCH   1   9
ATOM      7  C   UNL     1       2.385   4.225  18.390  0.00  0.00    +0.000 C 
ATOM      8  O   UNL     1       1.971   5.229  17.817  0.00  0.00    +0.000 OA
ATOM      9  N   UNL     1       3.656   3.696  18.244  0.00  0.00    +0.000 N 
ATOM     10  H   UNL     1       3.840   2.777  18.620  0.00  0.00    +0.000 HD
BRANCH   7  12
ATOM     11  C   UNL     1       0.845   2.384  18.755  0.00  0.00    +0.000 C 
ATOM     12  C   UNL     1       1.455   3.456  19.292  0.00  0.00    +0.000 C 
ATOM     13  C   UNL     1       1.188   3.878  20.700  0.00  0.00    +0.000 C 
ENDBRANCH   7  12
ENDBRANCH   1   9
BRANCH   5  14
ATOM     14  C   UNL     1       7.563   6.676  18.102  0.00  0.00    +0.000 C 
ATOM     15  C   UNL     1       7.808   8.087  17.615  0.00  0.00    +0.000 C 
ATOM     16  O   UNL     1       8.143   6.270  19.111  0.00  0.00    +0.000 OA
ENDBRANCH   5  14
TORSDOF 3
ENDMDL
MODEL 6
REMARK VINA RESULT:      -6.5      1.538      2.706
REMARK  Name = 
REMARK  5 active torsions:
REMARK  status: ('A' for Active; 'I' for Inactive)
REMARK    1  A    between atoms: C_2  and  C_3
REMARK    2  A    between atoms: C_2  and  C_4
REMARK    3  A    between atoms: N_6  and  C_7
REMARK    4  A    between atoms: C_11  and  C_12
REMARK    5  A    between atoms: C_12  and  C_13
REMARK                            x       y       z     vdW  Elec       q    Type
REMARK                         _______ _______ _______ _____ _____    ______ ____
ROOT
ATOM      1  C   UNL     1       4.525   4.455  17.512  0.00  0.00    +0.000 A 
ATOM      2  C   UNL     1       4.841   3.897  16.272  0.00  0.00    +0.000 A 
ATOM      3  C   UNL     1       6.028   4.223  15.620  0.00  0.00    +0.000 A 
ATOM      4  C   UNL     1       6.924   5.117  16.199  0.00  0.00    +0.000 A 
ATOM      5  C   UNL     1       6.623   5.711  17.428  0.00  0.00    +0.000 A 
ATOM      6  C   UNL     1       5.407   5.387  18.070  0.00  0.00    +0.000 A 
ENDROOT
BRANCH   1   9
ATOM      7  C   UNL     1       3.281   3.196  19.259  0.00  0.00    +0.000 C 
ATOM      8  O   UNL     1       4.242   2.591  19.726  0.00  0.00    +0.000 OA
ATOM      9  N   UNL     1       3.348   4.119  18.230  0.00  0.00    +0.000 N 
ATOM     10  H   UNL     1       2.534   4.685  18.038  0.00  0.00    +0.000 HD
BRANCH   7  12
ATOM     11  C   UNL     1       1.807   3.124  21.186  0.00  0.00    +0.000 C 
ATOM     12  C   UNL     1       1.914   2.976  19.853  0.00  0.00    +0.000 C 
ATOM     13  C   UNL     1       0.741   2.575  19.019  0.00  0.00    +0.000 C 
ENDBRANCH   7  12
ENDBRANCH   1   9
BRANCH   5  14
ATOM     14  C   UNL     1       7.552   6.665  18.112  0.00  0.00    +0.000 C 
ATOM     15  C   UNL     1       7.776   8.063  17.579  0.00  0.00    +0.000 C 
ATOM     16  O   UNL     1       8.156   6.292  19.119  0.00  0.00    +0.000 OA
ENDBRANCH   5  14
TORSDOF 3
ENDMDL
MODEL 7
REMARK VINA RESULT:      -6.4      1.296      2.491
REMARK  Name = 
REMARK  5 active torsions:
REMARK  status: ('A' for Active; 'I' for Inactive)
REMARK    1  A    between atoms: C_2  and  C_3
REMARK    2  A    between atoms: C_2  and  C_4
REMARK    3  A    between atoms: N_6  and  C_7
REMARK    4  A    between atoms: C_11  and  C_12
REMARK    5  A    between atoms: C_12  and  C_13
REMARK                            x       y       z     vdW  Elec       q    Type
REMARK                         _______ _______ _______ _____ _____    ______ ____
ROOT
ATOM      1  C   UNL     1       4.344   4.487  17.608  0.00  0.00    +0.000 A 
ATOM      2  C   UNL     1       4.513   3.819  16.394  0.00  0.00    +0.000 A 
ATOM      3  C   UNL     1       5.600   4.095  15.567  0.00  0.00    +0.000 A 
ATOM      4  C   UNL     1       6.542   5.050  15.942  0.00  0.00    +0.000 A 
ATOM      5  C   UNL     1       6.386   5.753  17.140  0.00  0.00    +0.000 A 
ATOM      6  C   UNL     1       5.269   5.477  17.960  0.00  0.00    +0.000 A 
ENDROOT
BRANCH   1   9
ATOM      7  C   UNL     1       3.296   3.232  19.482  0.00  0.00    +0.000 C 
ATOM      8  O   UNL     1       4.262   2.524  19.752  0.00  0.00    +0.000 OA
ATOM      9  N   UNL     1       3.277   4.207  18.499  0.00  0.00    +0.000 N 
ATOM     10  H   UNL     1       2.497   4.847  18.472  0.00  0.00    +0.000 HD
BRANCH   7  12
ATOM     11  C   UNL     1       0.873   3.240  19.621  0.00  0.00    +0.000 C 
ATOM     12  C   UNL     1       2.031   3.091  20.289  0.00  0.00    +0.000 C 
ATOM     13  C   UNL     1       2.054   2.837  21.761  0.00  0.00    +0.000 C 
ENDBRANCH   7  12
ENDBRANCH   1   9
BRANCH   5  14
ATOM     14  C   UNL     1       7.372   6.776  17.609  0.00  0.00    +0.000 C 
ATOM     15  C   UNL     1       8.113   6.614  18.917  0.00  0.00    +0.000 C 
ATOM     16  O   UNL     1       7.566   7.779  16.919  0.00  0.00    +0.000 OA
ENDBRANCH   5  14
TORSDOF 3
ENDMDL
MODEL 8
REMARK VINA RESULT:      -6.4      1.781      1.964
REMARK  Name = 
REMARK  5 active torsions:
REMARK  status: ('A' for Active; 'I' for Inactive)
REMARK    1  A    between atoms: C_2  and  C_3
REMARK    2  A    between atoms: C_2  and  C_4
REMARK    3  A    between atoms: N_6  and  C_7
REMARK    4  A    between atoms: C_11  and  C_12
REMARK    5  A    between atoms: C_12  and  C_13
REMARK                            x       y       z     vdW  Elec       q    Type
REMARK                         _______ _______ _______ _____ _____    ______ ____
ROOT
ATOM      1  C   UNL     1       3.875   5.278  17.950  0.00  0.00    +0.000 A 
ATOM      2  C   UNL     1       3.722   6.663  17.874  0.00  0.00    +0.000 A 
ATOM      3  C   UNL     1       4.503   7.426  17.009  0.00  0.00    +0.000 A 
ATOM      4  C   UNL     1       5.457   6.813  16.201  0.00  0.00    +0.000 A 
ATOM      5  C   UNL     1       5.650   5.431  16.273  0.00  0.00    +0.000 A 
ATOM      6  C   UNL     1       4.864   4.671  17.168  0.00  0.00    +0.000 A 
ENDROOT
BRANCH   1   9
ATOM      7  C   UNL     1       1.843   3.928  18.434  0.00  0.00    +0.000 C 
ATOM      8  O   UNL     1       1.314   4.044  17.331  0.00  0.00    +0.000 OA
ATOM      9  N   UNL     1       3.072   4.459  18.785  0.00  0.00    +0.000 N 
ATOM     10  H   UNL     1       3.493   4.162  19.653  0.00  0.00    +0.000 HD
BRANCH   7  12
ATOM     11  C   UNL     1       0.430   2.060  19.074  0.00  0.00    +0.000 C 
ATOM     12  C   UNL     1       1.152   3.114  19.497  0.00  0.00    +0.000 C 
ATOM     13  C   UNL     1       1.228   3.474  20.945  0.00  0.00    +0.000 C 
ENDBRANCH   7  12
ENDBRANCH   1   9
BRANCH   5  14
ATOM     14  C   UNL     1       6.644   4.709  15.418  0.00  0.00    +0.000 C 
ATOM     15  C   UNL     1       6.246   4.097  14.093  0.00  0.00    +0.000 C 
ATOM     16  O   UNL     1       7.806   4.600  15.815  0.00  0.00    +0.000 OA
ENDBRANCH   5  14
TORSDOF 3
ENDMDL
MODEL 9
REMARK VINA RESULT:      -6.3      2.441      5.722
REMARK  Name = 
REMARK  5 active torsions:
REMARK  status: ('A' for Active; 'I' for Inactive)
REMARK    1  A    between atoms: C_2  and  C_3
REMARK    2  A    between atoms: C_2  and  C_4
REMARK    3  A    between atoms: N_6  and  C_7
REMARK    4  A    between atoms: C_11  and  C_12
REMARK    5  A    between atoms: C_12  and  C_13
REMARK                            x       y       z     vdW  Elec       q    Type
REMARK                         _______ _______ _______ _____ _____    ______ ____
ROOT
ATOM      1  C   UNL     1       5.453   4.081  16.351  0.00  0.00    +0.000 A 
ATOM      2  C   UNL     1       4.268   3.733  17.000  0.00  0.00    +0.000 A 
ATOM      3  C   UNL     1       4.073   4.026  18.348  0.00  0.00    +0.000 A 
ATOM      4  C   UNL     1       5.067   4.677  19.075  0.00  0.00    +0.000 A 
ATOM      5  C   UNL     1       6.275   5.016  18.459  0.00  0.00    +0.000 A 
ATOM      6  C   UNL     1       6.467   4.696  17.096  0.00  0.00    +0.000 A 
ENDROOT
BRANCH   1   9
ATOM      7  C   UNL     1       6.595   4.511  14.184  0.00  0.00    +0.000 C 
ATOM      8  O   UNL     1       7.383   5.361  14.591  0.00  0.00    +0.000 OA
ATOM      9  N   UNL     1       5.675   3.840  14.971  0.00  0.00    +0.000 N 
ATOM     10  H   UNL     1       5.198   3.042  14.578  0.00  0.00    +0.000 HD
BRANCH   7  12
ATOM     11  C   UNL     1       7.523   4.749  11.954  0.00  0.00    +0.000 C 
ATOM     12  C   UNL     1       6.632   4.109  12.733  0.00  0.00    +0.000 C 
ATOM     13  C   UNL     1       5.705   3.081  12.170  0.00  0.00    +0.000 C 
ENDBRANCH   7  12
ENDBRANCH   1   9
BRANCH   5  14
ATOM     14  C   UNL     1       7.374   5.732  19.178  0.00  0.00    +0.000 C 
ATOM     15  C   UNL     1       8.071   6.926  18.562  0.00  0.00    +0.000 C 
ATOM     16  O   UNL     1       7.727   5.326  20.287  0.00  0.00    +0.000 OA
ENDBRANCH   5  14
TORSDOF 3
ENDMDL
