MODEL 1
REMARK VINA RESULT:      -6.9      0.000      0.000
REMARK  Name = 
REMARK  4 active torsions:
REMARK  status: ('A' for Active; 'I' for Inactive)
REMARK    1  A    between atoms: C_1  and  C_2
REMARK    2  A    between atoms: C_2  and  N_3
REMARK    3  A    between atoms: N_3  and  C_4
REMARK    4  A    between atoms: N_9  and  C_10
REMARK                            x       y       z     vdW  Elec       q    Type
REMARK                         _______ _______ _______ _____ _____    ______ ____
ROOT
ATOM      1  N   UNL     1      -1.816  12.850  22.201  0.00  0.00    +0.000 N 
ATOM      2  C   UNL     1      -3.249  12.638  22.440  0.00  0.00    +0.000 C 
ATOM      3  C   UNL     1      -1.067  11.869  21.541  0.00  0.00    +0.000 A 
ATOM      4  N   UNL     1      -0.072  11.305  22.155  0.00  0.00    +0.000 NA
ATOM      5  C   UNL     1       0.701  10.327  21.589  0.00  0.00    +0.000 A 
ATOM      6  O   UNL     1       1.661   9.879  22.216  0.00  0.00    +0.000 OA
ATOM      7  N   UNL     1       0.386   9.868  20.292  0.00  0.00    +0.000 N 
ATOM      8  C   UNL     1      -0.702  10.424  19.569  0.00  0.00    +0.000 A 
ATOM      9  C   UNL     1      -1.119   9.959  18.307  0.00  0.00    +0.000 A 
ATOM     10  C   UNL     1      -2.139  10.605  17.605  0.00  0.00    +0.000 A 
ATOM     11 CL   UNL     1      -2.588  10.051  16.041  0.00  0.00    +0.000 Cl
ATOM     12  C   UNL     1      -2.773  11.712  18.146  0.00  0.00    +0.000 A 
ATOM     13  C   UNL     1      -2.400  12.156  19.410  0.00  0.00    +0.000 A 
ATOM     14  C   UNL     1      -1.415  11.481  20.146  0.00  0.00    +0.000 A 
ENDROOT
BRANCH   7  15
ATOM     15  C   UNL     1       1.256   8.931  19.653  0.00  0.00    +0.000 A 
ATOM     16  C   UNL     1       1.809   9.221  18.398  0.00  0.00    +0.000 A 
ATOM     17  C   UNL     1       2.665   8.311  17.769  0.00  0.00    +0.000 A 
ATOM     18  C   UNL     1       2.962   7.092  18.377  0.00  0.00    +0.000 A 
ATOM     19  C   UNL     1       2.399   6.779  19.614  0.00  0.00    +0.000 A 
ATOM     20  C   UNL     1       1.544   7.690  20.243  0.00  0.00    +0.000 A 
ENDBRANCH   7  15
BRANCH   1  22
ATOM     21  C   UNL     1      -0.481  14.954  22.536  0.00  0.00    +0.000 C 
ATOM     22  C   UNL     1      -1.137  13.734  23.166  0.00  0.00    +0.000 C 
ENDBRANCH   1  22
TORSDOF 2
ENDMDL
MODEL 2
REMARK VINA RESULT:      -6.9      5.933      8.624
REMARK  Name = 
REMARK  4 active torsions:
REMARK  status: ('A' for Active; 'I' for Inactive)
REMARK    1  A    between atoms: C_1  and  C_2
REMARK    2  A    between atoms: C_2  and  N_3
REMARK    3  A    between atoms: N_3  and  C_4
REMARK    4  A    between atoms: N_9  and  C_10
REMARK                            x       y       z     vdW  Elec       q    Type
REMARK                         _______ _______ _______ _____ _____    ______ ____
ROOT
ATOM      1  N   UNL     1       6.725   6.043  16.583  0.00  0.00    +0.000 N 
ATOM      2  C   UNL     1       7.451   7.254  16.985  0.00  0.00    +0.000 C 
ATOM      3  C   UNL     1       5.732   5.517  17.417  0.00  0.00    +0.000 A 
ATOM      4  N   UNL     1       5.869   4.317  17.894  0.00  0.00    +0.000 NA
ATOM      5  C   UNL     1       4.955   3.733  18.728  0.00  0.00    +0.000 A 
ATOM      6  O   UNL     1       5.131   2.571  19.096  0.00  0.00    +0.000 OA
ATOM      7  N   UNL     1       3.824   4.473  19.133  0.00  0.00    +0.000 N 
ATOM      8  C   UNL     1       3.619   5.798  18.667  0.00  0.00    +0.000 A 
ATOM      9  C   UNL     1       2.557   6.620  19.094  0.00  0.00    +0.000 A 
ATOM     10  C   UNL     1       2.356   7.882  18.532  0.00  0.00    +0.000 A 
ATOM     11 CL   UNL     1       1.018   8.840  19.029  0.00  0.00    +0.000 Cl
ATOM     12  C   UNL     1       3.211   8.360  17.551  0.00  0.00    +0.000 A 
ATOM     13  C   UNL     1       4.289   7.577  17.151  0.00  0.00    +0.000 A 
ATOM     14  C   UNL     1       4.530   6.330  17.749  0.00  0.00    +0.000 A 
ENDROOT
BRANCH   7  15
ATOM     15  C   UNL     1       2.811   3.831  19.910  0.00  0.00    +0.000 A 
ATOM     16  C   UNL     1       2.934   3.749  21.305  0.00  0.00    +0.000 A 
ATOM     17  C   UNL     1       1.944   3.127  22.072  0.00  0.00    +0.000 A 
ATOM     18  C   UNL     1       0.829   2.562  21.454  0.00  0.00    +0.000 A 
ATOM     19  C   UNL     1       0.705   2.613  20.066  0.00  0.00    +0.000 A 
ATOM     20  C   UNL     1       1.695   3.237  19.300  0.00  0.00    +0.000 A 
ENDBRANCH   7  15
BRANCH   1  22
ATOM     21  C   UNL     1       6.677   4.698  14.459  0.00  0.00    +0.000 C 
ATOM     22  C   UNL     1       7.462   5.131  15.690  0.00  0.00    +0.000 C 
ENDBRANCH   1  22
TORSDOF 2
ENDMDL
MODEL 3
REMARK VINA RESULT:      -6.9      5.928      8.586
REMARK  Name = 
REMARK  4 active torsions:
REMARK  status: ('A' for Active; 'I' for Inactive)
REMARK    1  A    between atoms: C_1  and  C_2
REMARK    2  A    between atoms: C_2  and  N_3
REMARK    3  A    between atoms: N_3  and  C_4
REMARK    4  A    between atoms: N_9  and  C_10
REMARK                            x       y       z     vdW  Elec       q    Type
REMARK                         _______ _______ _______ _____ _____    ______ ____
ROOT
ATOM      1  N   UNL     1       6.726   6.051  16.600  0.00  0.00    +0.000 N 
ATOM      2  C   UNL     1       7.450   7.262  17.007  0.00  0.00    +0.000 C 
ATOM      3  C   UNL     1       5.730   5.522  17.428  0.00  0.00    +0.000 A 
ATOM      4  N   UNL     1       5.867   4.321  17.903  0.00  0.00    +0.000 NA
ATOM      5  C   UNL     1       4.949   3.735  18.733  0.00  0.00    +0.000 A 
ATOM      6  O   UNL     1       5.124   2.573  19.098  0.00  0.00    +0.000 OA
ATOM      7  N   UNL     1       3.817   4.474  19.135  0.00  0.00    +0.000 N 
ATOM      8  C   UNL     1       3.613   5.800  18.672  0.00  0.00    +0.000 A 
ATOM      9  C   UNL     1       2.549   6.620  19.097  0.00  0.00    +0.000 A 
ATOM     10  C   UNL     1       2.350   7.884  18.537  0.00  0.00    +0.000 A 
ATOM     11 CL   UNL     1       1.009   8.840  19.031  0.00  0.00    +0.000 Cl
ATOM     12  C   UNL     1       3.208   8.364  17.561  0.00  0.00    +0.000 A 
ATOM     13  C   UNL     1       4.287   7.583  17.162  0.00  0.00    +0.000 A 
ATOM     14  C   UNL     1       4.527   6.335  17.758  0.00  0.00    +0.000 A 
ENDROOT
BRANCH   7  15
ATOM     15  C   UNL     1       2.801   3.830  19.907  0.00  0.00    +0.000 A 
ATOM     16  C   UNL     1       1.657   3.314  19.281  0.00  0.00    +0.000 A 
ATOM     17  C   UNL     1       0.661   2.677  20.030  0.00  0.00    +0.000 A 
ATOM     18  C   UNL     1       0.787   2.566  21.414  0.00  0.00    +0.000 A 
ATOM     19  C   UNL     1       1.907   3.097  22.053  0.00  0.00    +0.000 A 
ATOM     20  C   UNL     1       2.903   3.732  21.303  0.00  0.00    +0.000 A 
ENDBRANCH   7  15
BRANCH   1  22
ATOM     21  C   UNL     1       6.684   4.705  14.477  0.00  0.00    +0.000 C 
ATOM     22  C   UNL     1       7.467   5.141  15.707  0.00  0.00    +0.000 C 
ENDBRANCH   1  22
TORSDOF 2
ENDMDL
MODEL 4
REMARK VINA RESULT:      -6.8      8.835     10.369
REMARK  Name = 
REMARK  4 active torsions:
REMARK  status: ('A' for Active; 'I' for Inactive)
REMARK    1  A    between atoms: C_1  and  C_2
REMARK    2  A    between atoms: C_2  and  N_3
REMARK    3  A    between atoms: N_3  and  C_4
REMARK    4  A    between atoms: N_9  and  C_10
REMARK                            x       y       z     vdW  Elec       q    Type
REMARK                         _______ _______ _______ _____ _____    ______ ____
ROOT
ATOM      1  N   UNL     1       7.429   6.878  17.820  0.00  0.00    +0.000 N 
ATOM      2  C   UNL     1       7.907   6.239  19.052  0.00  0.00    +0.000 C 
ATOM      3  C   UNL     1       7.009   6.088  16.743  0.00  0.00    +0.000 A 
ATOM      4  N   UNL     1       7.630   6.178  15.606  0.00  0.00    +0.000 NA
ATOM      5  C   UNL     1       7.295   5.431  14.509  0.00  0.00    +0.000 A 
ATOM      6  O   UNL     1       7.898   5.612  13.451  0.00  0.00    +0.000 OA
ATOM      7  N   UNL     1       6.256   4.483  14.614  0.00  0.00    +0.000 N 
ATOM      8  C   UNL     1       5.547   4.315  15.833  0.00  0.00    +0.000 A 
ATOM      9  C   UNL     1       4.556   3.335  16.030  0.00  0.00    +0.000 A 
ATOM     10  C   UNL     1       3.829   3.278  17.222  0.00  0.00    +0.000 A 
ATOM     11 CL   UNL     1       2.585   2.108  17.414  0.00  0.00    +0.000 Cl
ATOM     12  C   UNL     1       4.083   4.179  18.244  0.00  0.00    +0.000 A 
ATOM     13  C   UNL     1       5.088   5.126  18.079  0.00  0.00    +0.000 A 
ATOM     14  C   UNL     1       5.860   5.156  16.907  0.00  0.00    +0.000 A 
ENDROOT
BRANCH   7  15
ATOM     15  C   UNL     1       5.827   3.783  13.444  0.00  0.00    +0.000 A 
ATOM     16  C   UNL     1       6.632   2.781  12.884  0.00  0.00    +0.000 A 
ATOM     17  C   UNL     1       6.216   2.088  11.742  0.00  0.00    +0.000 A 
ATOM     18  C   UNL     1       5.001   2.402  11.134  0.00  0.00    +0.000 A 
ATOM     19  C   UNL     1       4.203   3.415  11.665  0.00  0.00    +0.000 A 
ATOM     20  C   UNL     1       4.618   4.105  12.808  0.00  0.00    +0.000 A 
ENDBRANCH   7  15
BRANCH   1  22
ATOM     21  C   UNL     1       8.696   8.848  18.731  0.00  0.00    +0.000 C 
ATOM     22  C   UNL     1       7.977   8.219  17.547  0.00  0.00    +0.000 C 
ENDBRANCH   1  22
TORSDOF 2
ENDMDL
MODEL 5
REMARK VINA RESULT:      -6.7      8.849     10.367
REMARK  Name = 
REMARK  4 active torsions:
REMARK  status: ('A' for Active; 'I' for Inactive)
REMARK    1  A    between atoms: C_1  and  C_2
REMARK    2  A    between atoms: C_2  and  N_3
REMARK    3  A    between atoms: N_3  and  C_4
REMARK    4  A    between atoms: N_9  and  C_10
REMARK                            x       y       z     vdW  Elec       q    Type
REMARK                         _______ _______ _______ _____ _____    ______ ____
ROOT
ATOM      1  N   UNL     1       7.430   6.862  17.785  0.00  0.00    +0.000 N 
ATOM      2  C   UNL     1       7.912   6.220  19.013  0.00  0.00    +0.000 C 
ATOM      3  C   UNL     1       7.005   6.075  16.708  0.00  0.00    +0.000 A 
ATOM      4  N   UNL     1       7.622   6.168  15.568  0.00  0.00    +0.000 NA
ATOM      5  C   UNL     1       7.283   5.424  14.471  0.00  0.00    +0.000 A 
ATOM      6  O   UNL     1       7.881   5.607  13.411  0.00  0.00    +0.000 OA
ATOM      7  N   UNL     1       6.243   4.477  14.578  0.00  0.00    +0.000 N 
ATOM      8  C   UNL     1       5.538   4.307  15.799  0.00  0.00    +0.000 A 
ATOM      9  C   UNL     1       4.547   3.326  15.997  0.00  0.00    +0.000 A 
ATOM     10  C   UNL     1       3.825   3.267  17.192  0.00  0.00    +0.000 A 
ATOM     11 CL   UNL     1       2.580   2.098  17.385  0.00  0.00    +0.000 Cl
ATOM     12  C   UNL     1       4.084   4.166  18.214  0.00  0.00    +0.000 A 
ATOM     13  C   UNL     1       5.089   5.112  18.048  0.00  0.00    +0.000 A 
ATOM     14  C   UNL     1       5.856   5.144  16.873  0.00  0.00    +0.000 A 
ENDROOT
BRANCH   7  15
ATOM     15  C   UNL     1       5.809   3.781  13.407  0.00  0.00    +0.000 A 
ATOM     16  C   UNL     1       4.575   4.089  12.817  0.00  0.00    +0.000 A 
ATOM     17  C   UNL     1       4.147   3.415  11.668  0.00  0.00    +0.000 A 
ATOM     18  C   UNL     1       4.937   2.412  11.107  0.00  0.00    +0.000 A 
ATOM     19  C   UNL     1       6.154   2.077  11.699  0.00  0.00    +0.000 A 
ATOM     20  C   UNL     1       6.583   2.752  12.846  0.00  0.00    +0.000 A 
ENDBRANCH   7  15
BRANCH   1  22
ATOM     21  C   UNL     1       8.656   8.852  18.713  0.00  0.00    +0.000 C 
ATOM     22  C   UNL     1       7.978   8.203  17.514  0.00  0.00    +0.000 C 
ENDBRANCH   1  22
TORSDOF 2
ENDMDL
MODEL 6
REMARK VINA RESULT:      -6.7      4.129      6.755
REMARK  Name = 
REMARK  4 active torsions:
REMARK  status: ('A' for Active; 'I' for Inactive)
REMARK    1  A    between atoms: C_1  and  C_2
REMARK    2  A    between atoms: C_2  and  N_3
REMARK    3  A    between atoms: N_3  and  C_4
REMARK    4  A    between atoms: N_9  and  C_10
REMARK                            x       y       z     vdW  Elec       q    Type
REMARK                         _______ _______ _______ _____ _____    ______ ____
ROOT
ATOM      1  N   UNL     1       1.174   8.421  20.012  0.00  0.00    +0.000 N 
ATOM      2  C   UNL     1       1.362   8.705  21.439  0.00  0.00    +0.000 C 
ATOM      3  C   UNL     1       2.119   7.651  19.323  0.00  0.00    +0.000 A 
ATOM      4  N   UNL     1       2.759   8.174  18.321  0.00  0.00    +0.000 NA
ATOM      5  C   UNL     1       3.709   7.498  17.605  0.00  0.00    +0.000 A 
ATOM      6  O   UNL     1       4.234   8.044  16.635  0.00  0.00    +0.000 OA
ATOM      7  N   UNL     1       4.052   6.184  17.988  0.00  0.00    +0.000 N 
ATOM      8  C   UNL     1       3.409   5.557  19.088  0.00  0.00    +0.000 A 
ATOM      9  C   UNL     1       3.758   4.281  19.572  0.00  0.00    +0.000 A 
ATOM     10  C   UNL     1       3.028   3.679  20.599  0.00  0.00    +0.000 A 
ATOM     11 CL   UNL     1       3.440   2.097  21.132  0.00  0.00    +0.000 Cl
ATOM     12  C   UNL     1       1.951   4.335  21.174  0.00  0.00    +0.000 A 
ATOM     13  C   UNL     1       1.621   5.612  20.735  0.00  0.00    +0.000 A 
ATOM     14  C   UNL     1       2.382   6.247  19.741  0.00  0.00    +0.000 A 
ENDROOT
BRANCH   7  15
ATOM     15  C   UNL     1       4.959   5.434  17.177  0.00  0.00    +0.000 A 
ATOM     16  C   UNL     1       4.478   4.640  16.126  0.00  0.00    +0.000 A 
ATOM     17  C   UNL     1       5.361   3.908  15.325  0.00  0.00    +0.000 A 
ATOM     18  C   UNL     1       6.732   3.944  15.576  0.00  0.00    +0.000 A 
ATOM     19  C   UNL     1       7.222   4.709  16.634  0.00  0.00    +0.000 A 
ATOM     20  C   UNL     1       6.339   5.443  17.434  0.00  0.00    +0.000 A 
ENDBRANCH   7  15
BRANCH   1  22
ATOM     21  C   UNL     1      -0.354  10.414  20.147  0.00  0.00    +0.000 C 
ATOM     22  C   UNL     1       0.391   9.422  19.265  0.00  0.00    +0.000 C 
ENDBRANCH   1  22
TORSDOF 2
ENDMDL
MODEL 7
REMARK VINA RESULT:      -6.7      0.233      1.054
REMARK  Name = 
REMARK  4 active torsions:
REMARK  status: ('A' for Active; 'I' for Inactive)
REMARK    1  A    between atoms: C_1  and  C_2
REMARK    2  A    between atoms: C_2  and  N_3
REMARK    3  A    between atoms: N_3  and  C_4
REMARK    4  A    between atoms: N_9  and  C_10
REMARK                            x       y       z     vdW  Elec       q    Type
REMARK                         _______ _______ _______ _____ _____    ______ ____
ROOT
ATOM      1  N   UNL     1      -1.671  12.957  22.110  0.00  0.00    +0.000 N 
ATOM      2  C   UNL     1      -3.104  12.778  22.372  0.00  0.00    +0.000 C 
ATOM      3  C   UNL     1      -0.949  11.945  21.466  0.00  0.00    +0.000 A 
ATOM      4  N   UNL     1       0.044  11.379  22.082  0.00  0.00    +0.000 NA
ATOM      5  C   UNL     1       0.791  10.373  21.532  0.00  0.00    +0.000 A 
ATOM      6  O   UNL     1       1.751   9.923  22.158  0.00  0.00    +0.000 OA
ATOM      7  N   UNL     1       0.451   9.886  20.252  0.00  0.00    +0.000 N 
ATOM      8  C   UNL     1      -0.636  10.443  19.528  0.00  0.00    +0.000 A 
ATOM      9  C   UNL     1      -1.078   9.952  18.285  0.00  0.00    +0.000 A 
ATOM     10  C   UNL     1      -2.095  10.599  17.578  0.00  0.00    +0.000 A 
ATOM     11 CL   UNL     1      -2.575  10.013  16.035  0.00  0.00    +0.000 Cl
ATOM     12  C   UNL     1      -2.702  11.731  18.099  0.00  0.00    +0.000 A 
ATOM     13  C   UNL     1      -2.304  12.202  19.346  0.00  0.00    +0.000 A 
ATOM     14  C   UNL     1      -1.322  11.527  20.086  0.00  0.00    +0.000 A 
ENDROOT
BRANCH   7  15
ATOM     15  C   UNL     1       1.295   8.916  19.627  0.00  0.00    +0.000 A 
ATOM     16  C   UNL     1       1.580   7.704  20.272  0.00  0.00    +0.000 A 
ATOM     17  C   UNL     1       2.400   6.749  19.664  0.00  0.00    +0.000 A 
ATOM     18  C   UNL     1       2.962   7.000  18.413  0.00  0.00    +0.000 A 
ATOM     19  C   UNL     1       2.709   8.212  17.770  0.00  0.00    +0.000 A 
ATOM     20  C   UNL     1       1.887   9.166  18.379  0.00  0.00    +0.000 A 
ENDBRANCH   7  15
BRANCH   1  22
ATOM     21  C   UNL     1      -1.282  15.328  22.849  0.00  0.00    +0.000 C 
ATOM     22  C   UNL     1      -0.963  13.853  23.042  0.00  0.00    +0.000 C 
ENDBRANCH   1  22
TORSDOF 2
ENDMDL
MODEL 8
REMARK VINA RESULT:      -6.7      4.134      6.767
REMARK  Name = 
REMARK  4 active torsions:
REMARK  status: ('A' for Active; 'I' for Inactive)
REMARK    1  A    between atoms: C_1  and  C_2
REMARK    2  A    between atoms: C_2  and  N_3
REMARK    3  A    between atoms: N_3  and  C_4
REMARK    4  A    between atoms: N_9  and  C_10
REMARK                            x       y       z     vdW  Elec       q    Type
REMARK                         _______ _______ _______ _____ _____    ______ ____
ROOT
ATOM      1  N   UNL     1       1.175   8.420  19.998  0.00  0.00    +0.000 N 
ATOM      2  C   UNL     1       1.357   8.706  21.426  0.00  0.00    +0.000 C 
ATOM      3  C   UNL     1       2.122   7.648  19.315  0.00  0.00    +0.000 A 
ATOM      4  N   UNL     1       2.767   8.167  18.315  0.00  0.00    +0.000 NA
ATOM      5  C   UNL     1       3.719   7.488  17.605  0.00  0.00    +0.000 A 
ATOM      6  O   UNL     1       4.249   8.031  16.636  0.00  0.00    +0.000 OA
ATOM      7  N   UNL     1       4.058   6.174  17.992  0.00  0.00    +0.000 N 
ATOM      8  C   UNL     1       3.409   5.550  19.089  0.00  0.00    +0.000 A 
ATOM      9  C   UNL     1       3.754   4.275  19.578  0.00  0.00    +0.000 A 
ATOM     10  C   UNL     1       3.018   3.676  20.603  0.00  0.00    +0.000 A 
ATOM     11 CL   UNL     1       3.425   2.094  21.140  0.00  0.00    +0.000 Cl
ATOM     12  C   UNL     1       1.940   4.335  21.172  0.00  0.00    +0.000 A 
ATOM     13  C   UNL     1       1.614   5.612  20.728  0.00  0.00    +0.000 A 
ATOM     14  C   UNL     1       2.381   6.244  19.737  0.00  0.00    +0.000 A 
ENDROOT
BRANCH   7  15
ATOM     15  C   UNL     1       4.968   5.422  17.186  0.00  0.00    +0.000 A 
ATOM     16  C   UNL     1       6.343   5.447  17.458  0.00  0.00    +0.000 A 
ATOM     17  C   UNL     1       7.238   4.709  16.677  0.00  0.00    +0.000 A 
ATOM     18  C   UNL     1       6.772   3.952  15.603  0.00  0.00    +0.000 A 
ATOM     19  C   UNL     1       5.410   3.937  15.304  0.00  0.00    +0.000 A 
ATOM     20  C   UNL     1       4.516   4.675  16.087  0.00  0.00    +0.000 A 
ENDBRANCH   7  15
BRANCH   1  22
ATOM     21  C   UNL     1      -0.188  10.531  20.108  0.00  0.00    +0.000 C 
ATOM     22  C   UNL     1       0.397   9.421  19.246  0.00  0.00    +0.000 C 
ENDBRANCH   1  22
TORSDOF 2
ENDMDL
MODEL 9
REMARK VINA RESULT:      -6.6      4.014      8.089
REMARK  Name = 
REMARK  4 active torsions:
REMARK  status: ('A' for Active; 'I' for Inactive)
REMARK    1  A    between atoms: C_1  and  C_2
REMARK    2  A    between atoms: C_2  and  N_3
REMARK    3  A    between atoms: N_3  and  C_4
REMARK    4  A    between atoms: N_9  and  C_10
REMARK                            x       y       z     vdW  Elec       q    Type
REMARK                         _______ _______ _______ _____ _____    ______ ____
ROOT
ATOM      1  N   UNL     1       5.448   5.159  16.847  0.00  0.00    +0.000 N 
ATOM      2  C   UNL     1       5.079   3.956  16.092  0.00  0.00    +0.000 C 
ATOM      3  C   UNL     1       4.472   5.857  17.567  0.00  0.00    +0.000 A 
ATOM      4  N   UNL     1       4.216   7.093  17.261  0.00  0.00    +0.000 NA
ATOM      5  C   UNL     1       3.266   7.842  17.903  0.00  0.00    +0.000 A 
ATOM      6  O   UNL     1       3.119   9.023  17.590  0.00  0.00    +0.000 OA
ATOM      7  N   UNL     1       2.491   7.244  18.918  0.00  0.00    +0.000 N 
ATOM      8  C   UNL     1       2.702   5.890  19.291  0.00  0.00    +0.000 A 
ATOM      9  C   UNL     1       1.912   5.210  20.238  0.00  0.00    +0.000 A 
ATOM     10  C   UNL     1       2.226   3.906  20.630  0.00  0.00    +0.000 A 
ATOM     11 CL   UNL     1       1.279   3.120  21.831  0.00  0.00    +0.000 Cl
ATOM     12  C   UNL     1       3.314   3.249  20.080  0.00  0.00    +0.000 A 
ATOM     13  C   UNL     1       4.078   3.894  19.112  0.00  0.00    +0.000 A 
ATOM     14  C   UNL     1       3.738   5.183  18.673  0.00  0.00    +0.000 A 
ENDROOT
BRANCH   7  15
ATOM     15  C   UNL     1       1.580   8.051  19.668  0.00  0.00    +0.000 A 
ATOM     16  C   UNL     1       0.785   9.008  19.021  0.00  0.00    +0.000 A 
ATOM     17  C   UNL     1      -0.112   9.798  19.747  0.00  0.00    +0.000 A 
ATOM     18  C   UNL     1      -0.213   9.654  21.130  0.00  0.00    +0.000 A 
ATOM     19  C   UNL     1       0.589   8.724  21.791  0.00  0.00    +0.000 A 
ATOM     20  C   UNL     1       1.486   7.934  21.063  0.00  0.00    +0.000 A 
ENDBRANCH   7  15
BRANCH   1  22
ATOM     21  C   UNL     1       7.407   6.635  17.402  0.00  0.00    +0.000 C 
ATOM     22  C   UNL     1       6.616   5.897  16.331  0.00  0.00    +0.000 C 
ENDBRANCH   1  22
TORSDOF 2
ENDMDL
