MODEL 1
REMARK VINA RESULT:      -7.0      0.000      0.000
REMARK  Name = 
REMARK  8 active torsions:
REMARK  status: ('A' for Active; 'I' for Inactive)
REMARK    1  A    between atoms: C_2  and  O_3
REMARK    2  A    between atoms: C_2  and  C_4
REMARK    3  A    between atoms: C_4  and  C_5
REMARK    4  A    between atoms: C_10  and  C_12
REMARK    5  A    between atoms: C_12  and  S_13
REMARK    6  A    between atoms: S_13  and  C_14
REMARK    7  A    between atoms: CA_18  and  C_19
REMARK    8  A    between atoms: C_19  and  OXT_21
REMARK                            x       y       z     vdW  Elec       q    Type
REMARK                         _______ _______ _______ _____ _____    ______ ____
ROOT
ATOM      1  C   UNL     1       7.144   5.510  17.410  0.00  0.00    +0.000 A 
ATOM      2  C   UNL     1       7.243   5.242  16.053  0.00  0.00    +0.000 A 
ATOM      3  S   UNL     1       6.005   4.148  15.579  0.00  0.00    +0.000 S 
ATOM      4  C   UNL     1       5.500   4.050  17.204  0.00  0.00    +0.000 A 
ATOM      5  N   UNL     1       4.493   3.155  17.435  0.00  0.00    +0.000 N 
ATOM      6  C   UNL     1       4.168   2.707  18.701  0.00  0.00    +0.000 C 
ATOM      7  O   UNL     1       4.677   3.089  19.753  0.00  0.00    +0.000 OA
ATOM      8  N   UNL     1       6.121   4.825  18.049  0.00  0.00    +0.000 NA
ATOM      9  H   UNL     1       4.123   2.663  16.634  0.00  0.00    +0.000 HD
ENDROOT
BRANCH   1  10
ATOM     10  C   UNL     1       7.994   6.396  18.258  0.00  0.00    +0.000 C 
BRANCH  10  12
ATOM     11  O   UNL     1       8.546   8.735  18.450  0.00  0.00    +0.000 OA
ATOM     12  C   UNL     1       7.851   7.862  17.949  0.00  0.00    +0.000 C 
BRANCH  12  13
ATOM     13  O   UNL     1       6.859   8.153  17.072  0.00  0.00    +0.000 OA
ATOM     14  H   UNL     1       7.078   8.882  16.459  0.00  0.00    +0.000 HD
ENDBRANCH  12  13
ENDBRANCH  10  12
ENDBRANCH   1  10
BRANCH   6  15
ATOM     15  C   UNL     1       3.034   1.674  18.740  0.00  0.00    +0.000 C 
BRANCH  15  16
ATOM     16  S   UNL     1       1.407   2.481  18.567  0.00  0.00    +0.000 S 
BRANCH  16  17
ATOM     17  C   UNL     1       1.707   4.170  19.064  0.00  0.00    +0.000 A 
ATOM     18  C   UNL     1       1.382   4.461  20.391  0.00  0.00    +0.000 A 
ATOM     19  C   UNL     1       1.583   5.743  20.885  0.00  0.00    +0.000 A 
ATOM     20  C   UNL     1       2.111   6.709  20.043  0.00  0.00    +0.000 A 
ATOM     21  CA  UNL     1       2.406   6.343  18.734  0.00  0.00    +0.000 A 
ATOM     22  N   UNL     1       2.219   5.086  18.207  0.00  0.00    +0.000 NA
BRANCH  21  23
ATOM     23  C   UNL     1       2.974   7.380  17.818  0.00  0.00    +0.000 C 
ATOM     24  O   UNL     1       4.039   7.281  17.226  0.00  0.00    +0.000 OA
BRANCH  23  25
ATOM     25  OXT UNL     1       2.154   8.451  17.733  0.00  0.00    +0.000 OA
ATOM     26  HXT UNL     1       2.634   9.252  18.040  0.00  0.00    +0.000 HD
ENDBRANCH  23  25
ENDBRANCH  21  23
ENDBRANCH  16  17
ENDBRANCH  15  16
ENDBRANCH   6  15
TORSDOF 8
ENDMDL
MODEL 2
REMARK VINA RESULT:      -6.8      3.541      7.072
REMARK  Name = 
REMARK  8 active torsions:
REMARK  status: ('A' for Active; 'I' for Inactive)
REMARK    1  A    between atoms: C_2  and  O_3
REMARK    2  A    between atoms: C_2  and  C_4
REMARK    3  A    between atoms: C_4  and  C_5
REMARK    4  A    between atoms: C_10  and  C_12
REMARK    5  A    between atoms: C_12  and  S_13
REMARK    6  A    between atoms: S_13  and  C_14
REMARK    7  A    between atoms: CA_18  and  C_19
REMARK    8  A    between atoms: C_19  and  OXT_21
REMARK                            x       y       z     vdW  Elec       q    Type
REMARK                         _______ _______ _______ _____ _____    ______ ____
ROOT
ATOM      1  C   UNL     1       0.181  10.641  20.128  0.00  0.00    +0.000 A 
ATOM      2  C   UNL     1      -0.436  10.524  21.365  0.00  0.00    +0.000 A 
ATOM      3  S   UNL     1       0.115   9.106  22.165  0.00  0.00    +0.000 S 
ATOM      4  C   UNL     1       1.047   8.720  20.790  0.00  0.00    +0.000 A 
ATOM      5  N   UNL     1       1.693   7.517  20.858  0.00  0.00    +0.000 N 
ATOM      6  C   UNL     1       2.227   6.893  19.748  0.00  0.00    +0.000 C 
ATOM      7  O   UNL     1       2.252   7.349  18.607  0.00  0.00    +0.000 OA
ATOM      8  N   UNL     1       1.045   9.599  19.826  0.00  0.00    +0.000 NA
ATOM      9  H   UNL     1       1.587   6.987  21.712  0.00  0.00    +0.000 HD
ENDROOT
BRANCH   1  10
ATOM     10  C   UNL     1       0.017  11.702  19.092  0.00  0.00    +0.000 C 
BRANCH  10  12
ATOM     11  O   UNL     1      -1.748  10.413  18.073  0.00  0.00    +0.000 OA
ATOM     12  C   UNL     1      -1.141  11.472  18.158  0.00  0.00    +0.000 C 
BRANCH  12  13
ATOM     13  O   UNL     1      -1.455  12.540  17.385  0.00  0.00    +0.000 OA
ATOM     14  H   UNL     1      -0.905  13.328  17.560  0.00  0.00    +0.000 HD
ENDBRANCH  12  13
ENDBRANCH  10  12
ENDBRANCH   1  10
BRANCH   6  15
ATOM     15  C   UNL     1       2.874   5.530  20.033  0.00  0.00    +0.000 C 
BRANCH  15  16
ATOM     16  S   UNL     1       2.939   4.508  18.524  0.00  0.00    +0.000 S 
BRANCH  16  17
ATOM     17  C   UNL     1       4.631   4.654  17.974  0.00  0.00    +0.000 A 
ATOM     18  C   UNL     1       4.915   4.017  16.764  0.00  0.00    +0.000 A 
ATOM     19  C   UNL     1       6.201   4.075  16.240  0.00  0.00    +0.000 A 
ATOM     20  C   UNL     1       7.176   4.774  16.935  0.00  0.00    +0.000 A 
ATOM     21  CA  UNL     1       6.815   5.379  18.134  0.00  0.00    +0.000 A 
ATOM     22  N   UNL     1       5.556   5.342  18.687  0.00  0.00    +0.000 NA
BRANCH  21  23
ATOM     23  C   UNL     1       7.862   6.134  18.891  0.00  0.00    +0.000 C 
ATOM     24  O   UNL     1       8.265   7.250  18.599  0.00  0.00    +0.000 OA
BRANCH  23  25
ATOM     25  OXT UNL     1       8.311   5.413  19.943  0.00  0.00    +0.000 OA
ATOM     26  HXT UNL     1       9.270   5.590  20.071  0.00  0.00    +0.000 HD
ENDBRANCH  23  25
ENDBRANCH  21  23
ENDBRANCH  16  17
ENDBRANCH  15  16
ENDBRANCH   6  15
TORSDOF 8
ENDMDL
MODEL 3
REMARK VINA RESULT:      -6.6      4.082      5.591
REMARK  Name = 
REMARK  8 active torsions:
REMARK  status: ('A' for Active; 'I' for Inactive)
REMARK    1  A    between atoms: C_2  and  O_3
REMARK    2  A    between atoms: C_2  and  C_4
REMARK    3  A    between atoms: C_4  and  C_5
REMARK    4  A    between atoms: C_10  and  C_12
REMARK    5  A    between atoms: C_12  and  S_13
REMARK    6  A    between atoms: S_13  and  C_14
REMARK    7  A    between atoms: CA_18  and  C_19
REMARK    8  A    between atoms: C_19  and  OXT_21
REMARK                            x       y       z     vdW  Elec       q    Type
REMARK                         _______ _______ _______ _____ _____    ______ ____
ROOT
ATOM      1  C   UNL     1       6.330   3.548  12.344  0.00  0.00    +0.000 A 
ATOM      2  C   UNL     1       7.323   4.355  11.809  0.00  0.00    +0.000 A 
ATOM      3  S   UNL     1       7.921   5.426  13.013  0.00  0.00    +0.000 S 
ATOM      4  C   UNL     1       6.770   4.804  14.106  0.00  0.00    +0.000 A 
ATOM      5  N   UNL     1       6.744   5.428  15.322  0.00  0.00    +0.000 N 
ATOM      6  C   UNL     1       5.695   5.288  16.211  0.00  0.00    +0.000 C 
ATOM      7  O   UNL     1       4.716   4.559  16.060  0.00  0.00    +0.000 OA
ATOM      8  N   UNL     1       6.041   3.813  13.674  0.00  0.00    +0.000 NA
ATOM      9  H   UNL     1       7.415   6.168  15.473  0.00  0.00    +0.000 HD
ENDROOT
BRANCH   1  10
ATOM     10  C   UNL     1       5.529   2.477  11.681  0.00  0.00    +0.000 C 
BRANCH  10  12
ATOM     11  O   UNL     1       5.839   0.140  11.176  0.00  0.00    +0.000 OA
ATOM     12  C   UNL     1       6.326   1.252  11.318  0.00  0.00    +0.000 C 
BRANCH  12  13
ATOM     13  O   UNL     1       7.656   1.474  11.176  0.00  0.00    +0.000 OA
ATOM     14  H   UNL     1       7.876   2.383  10.894  0.00  0.00    +0.000 HD
ENDBRANCH  12  13
ENDBRANCH  10  12
ENDBRANCH   1  10
BRANCH   6  15
ATOM     15  C   UNL     1       5.841   6.104  17.502  0.00  0.00    +0.000 C 
BRANCH  15  16
ATOM     16  S   UNL     1       5.827   5.018  18.968  0.00  0.00    +0.000 S 
BRANCH  16  17
ATOM     17  C   UNL     1       4.092   4.724  19.272  0.00  0.00    +0.000 A 
ATOM     18  C   UNL     1       3.423   5.762  19.923  0.00  0.00    +0.000 A 
ATOM     19  C   UNL     1       2.067   5.641  20.201  0.00  0.00    +0.000 A 
ATOM     20  C   UNL     1       1.407   4.484  19.819  0.00  0.00    +0.000 A 
ATOM     21  CA  UNL     1       2.143   3.494  19.177  0.00  0.00    +0.000 A 
ATOM     22  N   UNL     1       3.485   3.576  18.886  0.00  0.00    +0.000 NA
BRANCH  21  23
ATOM     23  C   UNL     1       1.438   2.242  18.762  0.00  0.00    +0.000 C 
ATOM     24  O   UNL     1       0.238   2.156  18.546  0.00  0.00    +0.000 OA
BRANCH  23  25
ATOM     25  OXT UNL     1       2.305   1.210  18.661  0.00  0.00    +0.000 OA
ATOM     26  HXT UNL     1       1.819   0.365  18.792  0.00  0.00    +0.000 HD
ENDBRANCH  23  25
ENDBRANCH  21  23
ENDBRANCH  16  17
ENDBRANCH  15  16
ENDBRANCH   6  15
TORSDOF 8
ENDMDL
MODEL 4
REMARK VINA RESULT:      -6.6      4.023      5.710
REMARK  Name = 
REMARK  8 active torsions:
REMARK  status: ('A' for Active; 'I' for Inactive)
REMARK    1  A    between atoms: C_2  and  O_3
REMARK    2  A    between atoms: C_2  and  C_4
REMARK    3  A    between atoms: C_4  and  C_5
REMARK    4  A    between atoms: C_10  and  C_12
REMARK    5  A    between atoms: C_12  and  S_13
REMARK    6  A    between atoms: S_13  and  C_14
REMARK    7  A    between atoms: CA_18  and  C_19
REMARK    8  A    between atoms: C_19  and  OXT_21
REMARK                            x       y       z     vdW  Elec       q    Type
REMARK                         _______ _______ _______ _____ _____    ______ ____
ROOT
ATOM      1  C   UNL     1       6.361   3.504  12.372  0.00  0.00    +0.000 A 
ATOM      2  C   UNL     1       7.339   4.361  11.889  0.00  0.00    +0.000 A 
ATOM      3  S   UNL     1       7.823   5.456  13.122  0.00  0.00    +0.000 S 
ATOM      4  C   UNL     1       6.651   4.774  14.156  0.00  0.00    +0.000 A 
ATOM      5  N   UNL     1       6.534   5.391  15.370  0.00  0.00    +0.000 N 
ATOM      6  C   UNL     1       5.451   5.196  16.205  0.00  0.00    +0.000 C 
ATOM      7  O   UNL     1       4.518   4.421  16.006  0.00  0.00    +0.000 OA
ATOM      8  N   UNL     1       5.994   3.750  13.687  0.00  0.00    +0.000 NA
ATOM      9  H   UNL     1       7.160   6.162  15.556  0.00  0.00    +0.000 HD
ENDROOT
BRANCH   1  10
ATOM     10  C   UNL     1       5.648   2.398  11.670  0.00  0.00    +0.000 C 
BRANCH  10  12
ATOM     11  O   UNL     1       7.601   1.497  10.580  0.00  0.00    +0.000 OA
ATOM     12  C   UNL     1       6.553   1.299  11.179  0.00  0.00    +0.000 C 
BRANCH  12  13
ATOM     13  O   UNL     1       6.103   0.048  11.438  0.00  0.00    +0.000 OA
ATOM     14  H   UNL     1       6.617  -0.422  12.123  0.00  0.00    +0.000 HD
ENDBRANCH  12  13
ENDBRANCH  10  12
ENDBRANCH   1  10
BRANCH   6  15
ATOM     15  C   UNL     1       5.492   6.014  17.503  0.00  0.00    +0.000 C 
BRANCH  15  16
ATOM     16  S   UNL     1       3.808   6.394  18.092  0.00  0.00    +0.000 S 
BRANCH  16  17
ATOM     17  C   UNL     1       3.414   5.036  19.182  0.00  0.00    +0.000 A 
ATOM     18  C   UNL     1       2.209   5.167  19.876  0.00  0.00    +0.000 A 
ATOM     19  C   UNL     1       1.802   4.164  20.746  0.00  0.00    +0.000 A 
ATOM     20  C   UNL     1       2.606   3.046  20.901  0.00  0.00    +0.000 A 
ATOM     21  CA  UNL     1       3.792   2.990  20.177  0.00  0.00    +0.000 A 
ATOM     22  N   UNL     1       4.231   3.963  19.310  0.00  0.00    +0.000 NA
BRANCH  21  23
ATOM     23  C   UNL     1       4.666   1.787  20.340  0.00  0.00    +0.000 C 
ATOM     24  O   UNL     1       5.302   1.518  21.349  0.00  0.00    +0.000 OA
BRANCH  23  25
ATOM     25  OXT UNL     1       4.666   1.034  19.217  0.00  0.00    +0.000 OA
ATOM     26  HXT UNL     1       5.590   0.783  18.995  0.00  0.00    +0.000 HD
ENDBRANCH  23  25
ENDBRANCH  21  23
ENDBRANCH  16  17
ENDBRANCH  15  16
ENDBRANCH   6  15
TORSDOF 8
ENDMDL
MODEL 5
REMARK VINA RESULT:      -6.5      2.397      4.440
REMARK  Name = 
REMARK  8 active torsions:
REMARK  status: ('A' for Active; 'I' for Inactive)
REMARK    1  A    between atoms: C_2  and  O_3
REMARK    2  A    between atoms: C_2  and  C_4
REMARK    3  A    between atoms: C_4  and  C_5
REMARK    4  A    between atoms: C_10  and  C_12
REMARK    5  A    between atoms: C_12  and  S_13
REMARK    6  A    between atoms: S_13  and  C_14
REMARK    7  A    between atoms: CA_18  and  C_19
REMARK    8  A    between atoms: C_19  and  OXT_21
REMARK                            x       y       z     vdW  Elec       q    Type
REMARK                         _______ _______ _______ _____ _____    ______ ____
ROOT
ATOM      1  C   UNL     1       6.164   4.298  16.377  0.00  0.00    +0.000 A 
ATOM      2  C   UNL     1       7.319   4.563  17.099  0.00  0.00    +0.000 A 
ATOM      3  S   UNL     1       6.918   5.303  18.597  0.00  0.00    +0.000 S 
ATOM      4  C   UNL     1       5.276   5.294  18.138  0.00  0.00    +0.000 A 
ATOM      5  N   UNL     1       4.434   5.910  19.021  0.00  0.00    +0.000 N 
ATOM      6  C   UNL     1       3.145   6.281  18.688  0.00  0.00    +0.000 C 
ATOM      7  O   UNL     1       2.584   6.055  17.618  0.00  0.00    +0.000 OA
ATOM      8  N   UNL     1       4.998   4.713  17.004  0.00  0.00    +0.000 NA
ATOM      9  H   UNL     1       4.845   6.281  19.865  0.00  0.00    +0.000 HD
ENDROOT
BRANCH   1  10
ATOM     10  C   UNL     1       6.018   3.668  15.033  0.00  0.00    +0.000 C 
BRANCH  10  12
ATOM     11  O   UNL     1       6.851   3.962  12.789  0.00  0.00    +0.000 OA
ATOM     12  C   UNL     1       6.797   4.359  13.945  0.00  0.00    +0.000 C 
BRANCH  12  13
ATOM     13  O   UNL     1       7.465   5.465  14.353  0.00  0.00    +0.000 OA
ATOM     14  H   UNL     1       7.273   5.723  15.276  0.00  0.00    +0.000 HD
ENDBRANCH  12  13
ENDBRANCH  10  12
ENDBRANCH   1  10
BRANCH   6  15
ATOM     15  C   UNL     1       2.378   6.995  19.810  0.00  0.00    +0.000 C 
BRANCH  15  16
ATOM     16  S   UNL     1       1.546   5.794  20.902  0.00  0.00    +0.000 S 
BRANCH  16  17
ATOM     17  C   UNL     1       1.877   4.214  20.139  0.00  0.00    +0.000 A 
ATOM     18  C   UNL     1       0.847   3.719  19.337  0.00  0.00    +0.000 A 
ATOM     19  C   UNL     1       1.002   2.500  18.689  0.00  0.00    +0.000 A 
ATOM     20  C   UNL     1       2.188   1.802  18.852  0.00  0.00    +0.000 A 
ATOM     21  CA  UNL     1       3.166   2.360  19.669  0.00  0.00    +0.000 A 
ATOM     22  N   UNL     1       3.049   3.561  20.329  0.00  0.00    +0.000 NA
BRANCH  21  23
ATOM     23  C   UNL     1       4.449   1.612  19.851  0.00  0.00    +0.000 C 
ATOM     24  O   UNL     1       5.303   1.883  20.683  0.00  0.00    +0.000 OA
BRANCH  23  25
ATOM     25  OXT UNL     1       4.544   0.594  18.967  0.00  0.00    +0.000 OA
ATOM     26  HXT UNL     1       3.649   0.377  18.625  0.00  0.00    +0.000 HD
ENDBRANCH  23  25
ENDBRANCH  21  23
ENDBRANCH  16  17
ENDBRANCH  15  16
ENDBRANCH   6  15
TORSDOF 8
ENDMDL
MODEL 6
REMARK VINA RESULT:      -6.4      2.885      5.831
REMARK  Name = 
REMARK  8 active torsions:
REMARK  status: ('A' for Active; 'I' for Inactive)
REMARK    1  A    between atoms: C_2  and  O_3
REMARK    2  A    between atoms: C_2  and  C_4
REMARK    3  A    between atoms: C_4  and  C_5
REMARK    4  A    between atoms: C_10  and  C_12
REMARK    5  A    between atoms: C_12  and  S_13
REMARK    6  A    between atoms: S_13  and  C_14
REMARK    7  A    between atoms: CA_18  and  C_19
REMARK    8  A    between atoms: C_19  and  OXT_21
REMARK                            x       y       z     vdW  Elec       q    Type
REMARK                         _______ _______ _______ _____ _____    ______ ____
ROOT
ATOM      1  C   UNL     1       1.691   8.455  20.695  0.00  0.00    +0.000 A 
ATOM      2  C   UNL     1       1.884   8.907  19.399  0.00  0.00    +0.000 A 
ATOM      3  S   UNL     1       1.983   7.573  18.320  0.00  0.00    +0.000 S 
ATOM      4  C   UNL     1       1.853   6.516  19.651  0.00  0.00    +0.000 A 
ATOM      5  N   UNL     1       1.974   5.190  19.341  0.00  0.00    +0.000 N 
ATOM      6  C   UNL     1       2.210   4.218  20.294  0.00  0.00    +0.000 C 
ATOM      7  O   UNL     1       2.274   4.401  21.508  0.00  0.00    +0.000 OA
ATOM      8  N   UNL     1       1.660   7.074  20.814  0.00  0.00    +0.000 NA
ATOM      9  H   UNL     1       2.096   4.956  18.365  0.00  0.00    +0.000 HD
ENDROOT
BRANCH   1  10
ATOM     10  C   UNL     1       1.548   9.242  21.955  0.00  0.00    +0.000 C 
BRANCH  10  12
ATOM     11  O   UNL     1      -0.093   9.625  23.679  0.00  0.00    +0.000 OA
ATOM     12  C   UNL     1       0.197   9.113  22.607  0.00  0.00    +0.000 C 
BRANCH  12  13
ATOM     13  O   UNL     1      -0.686   8.352  21.916  0.00  0.00    +0.000 OA
ATOM     14  H   UNL     1      -1.615   8.639  22.015  0.00  0.00    +0.000 HD
ENDBRANCH  12  13
ENDBRANCH  10  12
ENDBRANCH   1  10
BRANCH   6  15
ATOM     15  C   UNL     1       2.353   2.797  19.732  0.00  0.00    +0.000 C 
BRANCH  15  16
ATOM     16  S   UNL     1       4.097   2.263  19.737  0.00  0.00    +0.000 S 
BRANCH  16  17
ATOM     17  C   UNL     1       4.945   3.547  18.831  0.00  0.00    +0.000 A 
ATOM     18  C   UNL     1       4.462   3.776  17.540  0.00  0.00    +0.000 A 
ATOM     19  C   UNL     1       5.045   4.759  16.750  0.00  0.00    +0.000 A 
ATOM     20  C   UNL     1       6.096   5.498  17.270  0.00  0.00    +0.000 A 
ATOM     21  CA  UNL     1       6.521   5.210  18.562  0.00  0.00    +0.000 A 
ATOM     22  N   UNL     1       5.972   4.243  19.373  0.00  0.00    +0.000 NA
BRANCH  21  23
ATOM     23  C   UNL     1       7.656   6.002  19.129  0.00  0.00    +0.000 C 
ATOM     24  O   UNL     1       8.187   6.954  18.576  0.00  0.00    +0.000 OA
BRANCH  23  25
ATOM     25  OXT UNL     1       8.024   5.522  20.338  0.00  0.00    +0.000 OA
ATOM     26  HXT UNL     1       7.874   4.551  20.361  0.00  0.00    +0.000 HD
ENDBRANCH  23  25
ENDBRANCH  21  23
ENDBRANCH  16  17
ENDBRANCH  15  16
ENDBRANCH   6  15
TORSDOF 8
ENDMDL
MODEL 7
REMARK VINA RESULT:      -6.4      2.701      3.408
REMARK  Name = 
REMARK  8 active torsions:
REMARK  status: ('A' for Active; 'I' for Inactive)
REMARK    1  A    between atoms: C_2  and  O_3
REMARK    2  A    between atoms: C_2  and  C_4
REMARK    3  A    between atoms: C_4  and  C_5
REMARK    4  A    between atoms: C_10  and  C_12
REMARK    5  A    between atoms: C_12  and  S_13
REMARK    6  A    between atoms: S_13  and  C_14
REMARK    7  A    between atoms: CA_18  and  C_19
REMARK    8  A    between atoms: C_19  and  OXT_21
REMARK                            x       y       z     vdW  Elec       q    Type
REMARK                         _______ _______ _______ _____ _____    ______ ____
ROOT
ATOM      1  C   UNL     1       5.917   4.149  14.605  0.00  0.00    +0.000 A 
ATOM      2  C   UNL     1       6.910   5.025  15.018  0.00  0.00    +0.000 A 
ATOM      3  S   UNL     1       7.030   5.011  16.732  0.00  0.00    +0.000 S 
ATOM      4  C   UNL     1       5.716   3.926  16.793  0.00  0.00    +0.000 A 
ATOM      5  N   UNL     1       5.291   3.616  18.055  0.00  0.00    +0.000 N 
ATOM      6  C   UNL     1       4.069   3.021  18.306  0.00  0.00    +0.000 C 
ATOM      7  O   UNL     1       3.263   2.646  17.458  0.00  0.00    +0.000 OA
ATOM      8  N   UNL     1       5.254   3.514  15.645  0.00  0.00    +0.000 NA
ATOM      9  H   UNL     1       5.802   4.024  18.825  0.00  0.00    +0.000 HD
ENDROOT
BRANCH   1  10
ATOM     10  C   UNL     1       5.459   3.830  13.221  0.00  0.00    +0.000 C 
BRANCH  10  12
ATOM     11  O   UNL     1       7.319   4.358  11.781  0.00  0.00    +0.000 OA
ATOM     12  C   UNL     1       6.576   3.515  12.264  0.00  0.00    +0.000 C 
BRANCH  12  13
ATOM     13  O   UNL     1       6.690   2.201  11.952  0.00  0.00    +0.000 OA
ATOM     14  H   UNL     1       6.070   1.625  12.441  0.00  0.00    +0.000 HD
ENDBRANCH  12  13
ENDBRANCH  10  12
ENDBRANCH   1  10
BRANCH   6  15
ATOM     15  C   UNL     1       3.766   2.793  19.793  0.00  0.00    +0.000 C 
BRANCH  15  16
ATOM     16  S   UNL     1       2.061   3.299  20.198  0.00  0.00    +0.000 S 
BRANCH  16  17
ATOM     17  C   UNL     1       2.066   5.068  19.960  0.00  0.00    +0.000 A 
ATOM     18  C   UNL     1       1.449   5.802  20.975  0.00  0.00    +0.000 A 
ATOM     19  C   UNL     1       1.403   7.188  20.894  0.00  0.00    +0.000 A 
ATOM     20  C   UNL     1       1.981   7.814  19.801  0.00  0.00    +0.000 A 
ATOM     21  CA  UNL     1       2.574   7.013  18.830  0.00  0.00    +0.000 A 
ATOM     22  N   UNL     1       2.637   5.640  18.873  0.00  0.00    +0.000 NA
BRANCH  21  23
ATOM     23  C   UNL     1       3.198   7.681  17.646  0.00  0.00    +0.000 C 
ATOM     24  O   UNL     1       4.193   7.278  17.061  0.00  0.00    +0.000 OA
BRANCH  23  25
ATOM     25  OXT UNL     1       2.518   8.799  17.307  0.00  0.00    +0.000 OA
ATOM     26  HXT UNL     1       3.038   9.306  16.644  0.00  0.00    +0.000 HD
ENDBRANCH  23  25
ENDBRANCH  21  23
ENDBRANCH  16  17
ENDBRANCH  15  16
ENDBRANCH   6  15
TORSDOF 8
ENDMDL
MODEL 8
REMARK VINA RESULT:      -6.4      2.432      4.325
REMARK  Name = 
REMARK  8 active torsions:
REMARK  status: ('A' for Active; 'I' for Inactive)
REMARK    1  A    between atoms: C_2  and  O_3
REMARK    2  A    between atoms: C_2  and  C_4
REMARK    3  A    between atoms: C_4  and  C_5
REMARK    4  A    between atoms: C_10  and  C_12
REMARK    5  A    between atoms: C_12  and  S_13
REMARK    6  A    between atoms: S_13  and  C_14
REMARK    7  A    between atoms: CA_18  and  C_19
REMARK    8  A    between atoms: C_19  and  OXT_21
REMARK                            x       y       z     vdW  Elec       q    Type
REMARK                         _______ _______ _______ _____ _____    ______ ____
ROOT
ATOM      1  C   UNL     1       6.230   4.309  16.362  0.00  0.00    +0.000 A 
ATOM      2  C   UNL     1       7.370   4.581  17.103  0.00  0.00    +0.000 A 
ATOM      3  S   UNL     1       6.945   5.376  18.566  0.00  0.00    +0.000 S 
ATOM      4  C   UNL     1       5.315   5.375  18.067  0.00  0.00    +0.000 A 
ATOM      5  N   UNL     1       4.461   6.031  18.908  0.00  0.00    +0.000 N 
ATOM      6  C   UNL     1       3.186   6.409  18.533  0.00  0.00    +0.000 C 
ATOM      7  O   UNL     1       2.647   6.156  17.457  0.00  0.00    +0.000 OA
ATOM      8  N   UNL     1       5.055   4.761  16.946  0.00  0.00    +0.000 NA
ATOM      9  H   UNL     1       4.858   6.425  19.750  0.00  0.00    +0.000 HD
ENDROOT
BRANCH   1  10
ATOM     10  C   UNL     1       6.107   3.637  15.036  0.00  0.00    +0.000 C 
BRANCH  10  12
ATOM     11  O   UNL     1       7.252   5.503  14.027  0.00  0.00    +0.000 OA
ATOM     12  C   UNL     1       6.701   4.420  13.895  0.00  0.00    +0.000 C 
BRANCH  12  13
ATOM     13  O   UNL     1       6.558   3.833  12.682  0.00  0.00    +0.000 OA
ATOM     14  H   UNL     1       7.287   4.031  12.061  0.00  0.00    +0.000 HD
ENDBRANCH  12  13
ENDBRANCH  10  12
ENDBRANCH   1  10
BRANCH   6  15
ATOM     15  C   UNL     1       2.404   7.171  19.612  0.00  0.00    +0.000 C 
BRANCH  15  16
ATOM     16  S   UNL     1       1.952   6.069  20.993  0.00  0.00    +0.000 S 
BRANCH  16  17
ATOM     17  C   UNL     1       1.921   4.442  20.258  0.00  0.00    +0.000 A 
ATOM     18  C   UNL     1       0.651   3.972  19.919  0.00  0.00    +0.000 A 
ATOM     19  C   UNL     1       0.513   2.720  19.333  0.00  0.00    +0.000 A 
ATOM     20  C   UNL     1       1.650   1.965  19.092  0.00  0.00    +0.000 A 
ATOM     21  CA  UNL     1       2.880   2.502  19.461  0.00  0.00    +0.000 A 
ATOM     22  N   UNL     1       3.057   3.734  20.045  0.00  0.00    +0.000 NA
BRANCH  21  23
ATOM     23  C   UNL     1       4.111   1.692  19.206  0.00  0.00    +0.000 C 
ATOM     24  O   UNL     1       4.196   0.789  18.386  0.00  0.00    +0.000 OA
BRANCH  23  25
ATOM     25  OXT UNL     1       5.125   2.088  20.009  0.00  0.00    +0.000 OA
ATOM     26  HXT UNL     1       4.902   1.872  20.942  0.00  0.00    +0.000 HD
ENDBRANCH  23  25
ENDBRANCH  21  23
ENDBRANCH  16  17
ENDBRANCH  15  16
ENDBRANCH   6  15
TORSDOF 8
ENDMDL
MODEL 9
REMARK VINA RESULT:      -6.3      3.277      6.287
REMARK  Name = 
REMARK  8 active torsions:
REMARK  status: ('A' for Active; 'I' for Inactive)
REMARK    1  A    between atoms: C_2  and  O_3
REMARK    2  A    between atoms: C_2  and  C_4
REMARK    3  A    between atoms: C_4  and  C_5
REMARK    4  A    between atoms: C_10  and  C_12
REMARK    5  A    between atoms: C_12  and  S_13
REMARK    6  A    between atoms: S_13  and  C_14
REMARK    7  A    between atoms: CA_18  and  C_19
REMARK    8  A    between atoms: C_19  and  OXT_21
REMARK                            x       y       z     vdW  Elec       q    Type
REMARK                         _______ _______ _______ _____ _____    ______ ____
ROOT
ATOM      1  C   UNL     1       0.569  10.155  19.954  0.00  0.00    +0.000 A 
ATOM      2  C   UNL     1       0.077  10.343  21.237  0.00  0.00    +0.000 A 
ATOM      3  S   UNL     1       0.561   9.042  22.249  0.00  0.00    +0.000 S 
ATOM      4  C   UNL     1       1.299   8.299  20.904  0.00  0.00    +0.000 A 
ATOM      5  N   UNL     1       1.822   7.061  21.151  0.00  0.00    +0.000 N 
ATOM      6  C   UNL     1       2.171   6.182  20.144  0.00  0.00    +0.000 C 
ATOM      7  O   UNL     1       2.122   6.414  18.938  0.00  0.00    +0.000 OA
ATOM      8  N   UNL     1       1.285   8.978  19.790  0.00  0.00    +0.000 NA
ATOM      9  H   UNL     1       1.754   6.715  22.098  0.00  0.00    +0.000 HD
ENDROOT
BRANCH   1  10
ATOM     10  C   UNL     1       0.407  11.017  18.747  0.00  0.00    +0.000 C 
BRANCH  10  12
ATOM     11  O   UNL     1       2.045  12.773  18.533  0.00  0.00    +0.000 OA
ATOM     12  C   UNL     1       1.689  11.635  18.259  0.00  0.00    +0.000 C 
BRANCH  12  13
ATOM     13  O   UNL     1       2.428  10.829  17.458  0.00  0.00    +0.000 OA
ATOM     14  H   UNL     1       3.098  10.304  17.939  0.00  0.00    +0.000 HD
ENDBRANCH  12  13
ENDBRANCH  10  12
ENDBRANCH   1  10
BRANCH   6  15
ATOM     15  C   UNL     1       2.701   4.828  20.635  0.00  0.00    +0.000 C 
BRANCH  15  16
ATOM     16  S   UNL     1       2.645   3.582  19.305  0.00  0.00    +0.000 S 
BRANCH  16  17
ATOM     17  C   UNL     1       4.059   3.972  18.286  0.00  0.00    +0.000 A 
ATOM     18  C   UNL     1       3.794   4.057  16.917  0.00  0.00    +0.000 A 
ATOM     19  C   UNL     1       4.821   4.363  16.034  0.00  0.00    +0.000 A 
ATOM     20  C   UNL     1       6.093   4.584  16.538  0.00  0.00    +0.000 A 
ATOM     21  CA  UNL     1       6.278   4.479  17.913  0.00  0.00    +0.000 A 
ATOM     22  N   UNL     1       5.288   4.175  18.818  0.00  0.00    +0.000 NA
BRANCH  21  23
ATOM     23  C   UNL     1       7.648   4.714  18.464  0.00  0.00    +0.000 C 
ATOM     24  O   UNL     1       7.906   5.462  19.397  0.00  0.00    +0.000 OA
BRANCH  23  25
ATOM     25  OXT UNL     1       8.571   3.993  17.790  0.00  0.00    +0.000 OA
ATOM     26  HXT UNL     1       8.416   3.036  17.952  0.00  0.00    +0.000 HD
ENDBRANCH  23  25
ENDBRANCH  21  23
ENDBRANCH  16  17
ENDBRANCH  15  16
ENDBRANCH   6  15
TORSDOF 8
ENDMDL
