MODEL 1
REMARK VINA RESULT:      -6.0      0.000      0.000
REMARK  Name = 
REMARK  12 active torsions:
REMARK  status: ('A' for Active; 'I' for Inactive)
REMARK    1  A    between atoms: C_1  and  C_2
REMARK    2  A    between atoms: C_2  and  C_3
REMARK    3  A    between atoms: C_3  and  C_4
REMARK    4  A    between atoms: C_4  and  C_5
REMARK    5  A    between atoms: C_5  and  C_6
REMARK    6  A    between atoms: C_6  and  C_7
REMARK    7  A    between atoms: C_7  and  C_8
REMARK    8  A    between atoms: C_8  and  C_9
REMARK    9  A    between atoms: C_9  and  C_10
REMARK   10  A    between atoms: C_10  and  C_11
REMARK   11  A    between atoms: C_11  and  C_12
REMARK   12  A    between atoms: C_14  and  O_15
REMARK                            x       y       z     vdW  Elec       q    Type
REMARK                         _______ _______ _______ _____ _____    ______ ____
ROOT
ATOM      1  C   UNL     1       3.270   6.357  18.461  0.00  0.00    +0.000 C 
ENDROOT
BRANCH   1   2
ATOM      2  C   UNL     1       2.426   7.375  19.215  0.00  0.00    +0.000 C 
BRANCH   2   3
ATOM      3  C   UNL     1       1.991   6.802  20.556  0.00  0.00    +0.000 C 
BRANCH   3   4
ATOM      4  C   UNL     1       1.440   5.397  20.379  0.00  0.00    +0.000 C 
BRANCH   4   5
ATOM      5  C   UNL     1       2.190   4.423  21.274  0.00  0.00    +0.000 C 
BRANCH   5   6
ATOM      6  C   UNL     1       1.777   2.993  20.957  0.00  0.00    +0.000 C 
BRANCH   6   7
ATOM      7  C   UNL     1       0.880   2.961  19.729  0.00  0.00    +0.000 C 
BRANCH   7   8
ATOM      8  C   UNL     1       1.505   2.102  18.639  0.00  0.00    +0.000 C 
BRANCH   8  10
ATOM      9  C   UNL     1       3.757   2.782  17.790  0.00  0.00    +0.000 C 
ATOM     10  C   UNL     1       2.259   2.966  17.636  0.00  0.00    +0.000 C 
ENDBRANCH   8  10
ENDBRANCH   7   8
ENDBRANCH   6   7
ENDBRANCH   5   6
ENDBRANCH   4   5
ENDBRANCH   3   4
ENDBRANCH   2   3
ENDBRANCH   1   2
BRANCH   1  11
ATOM     11  C   UNL     1       4.149   7.051  17.425  0.00  0.00    +0.000 C 
BRANCH  11  12
ATOM     12  C   UNL     1       5.211   6.131  16.909  0.00  0.00    +0.000 A 
ATOM     13  C   UNL     1       5.296   5.733  15.632  0.00  0.00    +0.000 A 
ATOM     14  C   UNL     1       6.358   4.848  15.255  0.00  0.00    +0.000 A 
ATOM     15  C   UNL     1       7.243   4.411  16.149  0.00  0.00    +0.000 A 
ATOM     16  C   UNL     1       7.166   4.847  17.551  0.00  0.00    +0.000 A 
ATOM     17  O   UNL     1       7.990   4.458  18.372  0.00  0.00    +0.000 OA
ATOM     18  O   UNL     1       6.150   5.701  17.882  0.00  0.00    +0.000 OA
BRANCH  14  19
ATOM     19  O   UNL     1       6.428   4.468  13.936  0.00  0.00    +0.000 OA
ATOM     20  H   UNL     1       5.862   5.049  13.400  0.00  0.00    +0.000 HD
ENDBRANCH  14  19
ENDBRANCH  11  12
ENDBRANCH   1  11
TORSDOF 11
ENDMDL
MODEL 2
REMARK VINA RESULT:      -6.0      1.628      3.736
REMARK  Name = 
REMARK  12 active torsions:
REMARK  status: ('A' for Active; 'I' for Inactive)
REMARK    1  A    between atoms: C_1  and  C_2
REMARK    2  A    between atoms: C_2  and  C_3
REMARK    3  A    between atoms: C_3  and  C_4
REMARK    4  A    between atoms: C_4  and  C_5
REMARK    5  A    between atoms: C_5  and  C_6
REMARK    6  A    between atoms: C_6  and  C_7
REMARK    7  A    between atoms: C_7  and  C_8
REMARK    8  A    between atoms: C_8  and  C_9
REMARK    9  A    between atoms: C_9  and  C_10
REMARK   10  A    between atoms: C_10  and  C_11
REMARK   11  A    between atoms: C_11  and  C_12
REMARK   12  A    between atoms: C_14  and  O_15
REMARK                            x       y       z     vdW  Elec       q    Type
REMARK                         _______ _______ _______ _____ _____    ______ ____
ROOT
ATOM      1  C   UNL     1       4.611   3.582  16.984  0.00  0.00    +0.000 C 
ENDROOT
BRANCH   1   2
ATOM      2  C   UNL     1       3.138   3.357  17.293  0.00  0.00    +0.000 C 
BRANCH   2   3
ATOM      3  C   UNL     1       2.981   2.212  18.283  0.00  0.00    +0.000 C 
BRANCH   3   4
ATOM      4  C   UNL     1       1.804   2.470  19.210  0.00  0.00    +0.000 C 
BRANCH   4   5
ATOM      5  C   UNL     1       2.272   2.505  20.656  0.00  0.00    +0.000 C 
BRANCH   5   6
ATOM      6  C   UNL     1       2.124   3.909  21.222  0.00  0.00    +0.000 C 
BRANCH   6   7
ATOM      7  C   UNL     1       1.686   4.877  20.133  0.00  0.00    +0.000 C 
BRANCH   7   8
ATOM      8  C   UNL     1       2.815   5.840  19.795  0.00  0.00    +0.000 C 
BRANCH   8  10
ATOM      9  C   UNL     1       2.493   7.723  18.182  0.00  0.00    +0.000 C 
ATOM     10  C   UNL     1       2.280   7.254  19.609  0.00  0.00    +0.000 C 
ENDBRANCH   8  10
ENDBRANCH   7   8
ENDBRANCH   6   7
ENDBRANCH   5   6
ENDBRANCH   4   5
ENDBRANCH   3   4
ENDBRANCH   2   3
ENDBRANCH   1   2
BRANCH   1  11
ATOM     11  C   UNL     1       4.860   5.034  16.587  0.00  0.00    +0.000 C 
BRANCH  11  12
ATOM     12  C   UNL     1       5.960   5.639  17.404  0.00  0.00    +0.000 A 
ATOM     13  C   UNL     1       6.411   5.114  18.550  0.00  0.00    +0.000 A 
ATOM     14  C   UNL     1       7.470   5.784  19.246  0.00  0.00    +0.000 A 
ATOM     15  C   UNL     1       7.996   6.915  18.778  0.00  0.00    +0.000 A 
ATOM     16  C   UNL     1       7.516   7.496  17.516  0.00  0.00    +0.000 A 
ATOM     17  O   UNL     1       8.010   8.529  17.076  0.00  0.00    +0.000 OA
ATOM     18  O   UNL     1       6.512   6.830  16.867  0.00  0.00    +0.000 OA
BRANCH  14  19
ATOM     19  O   UNL     1       7.922   5.214  20.412  0.00  0.00    +0.000 OA
ATOM     20  H   UNL     1       8.566   4.517  20.205  0.00  0.00    +0.000 HD
ENDBRANCH  14  19
ENDBRANCH  11  12
ENDBRANCH   1  11
TORSDOF 11
ENDMDL
MODEL 3
REMARK VINA RESULT:      -5.9      3.850      6.902
REMARK  Name = 
REMARK  12 active torsions:
REMARK  status: ('A' for Active; 'I' for Inactive)
REMARK    1  A    between atoms: C_1  and  C_2
REMARK    2  A    between atoms: C_2  and  C_3
REMARK    3  A    between atoms: C_3  and  C_4
REMARK    4  A    between atoms: C_4  and  C_5
REMARK    5  A    between atoms: C_5  and  C_6
REMARK    6  A    between atoms: C_6  and  C_7
REMARK    7  A    between atoms: C_7  and  C_8
REMARK    8  A    between atoms: C_8  and  C_9
REMARK    9  A    between atoms: C_9  and  C_10
REMARK   10  A    between atoms: C_10  and  C_11
REMARK   11  A    between atoms: C_11  and  C_12
REMARK   12  A    between atoms: C_14  and  O_15
REMARK                            x       y       z     vdW  Elec       q    Type
REMARK                         _______ _______ _______ _____ _____    ______ ____
ROOT
ATOM      1  C   UNL     1       4.918   5.329  15.784  0.00  0.00    +0.000 C 
ENDROOT
BRANCH   1   2
ATOM      2  C   UNL     1       6.344   4.800  15.721  0.00  0.00    +0.000 C 
BRANCH   2   3
ATOM      3  C   UNL     1       6.783   4.653  14.271  0.00  0.00    +0.000 C 
BRANCH   3   4
ATOM      4  C   UNL     1       5.673   4.027  13.443  0.00  0.00    +0.000 C 
BRANCH   4   5
ATOM      5  C   UNL     1       6.253   3.015  12.467  0.00  0.00    +0.000 C 
BRANCH   5   6
ATOM      6  C   UNL     1       5.207   2.621  11.435  0.00  0.00    +0.000 C 
BRANCH   6   7
ATOM      7  C   UNL     1       4.093   3.655  11.388  0.00  0.00    +0.000 C 
BRANCH   7   8
ATOM      8  C   UNL     1       3.008   3.220  10.412  0.00  0.00    +0.000 C 
BRANCH   8  10
ATOM      9  C   UNL     1       2.001   5.050   9.037  0.00  0.00    +0.000 C 
ATOM     10  C   UNL     1       3.103   4.009   9.113  0.00  0.00    +0.000 C 
ENDBRANCH   8  10
ENDBRANCH   7   8
ENDBRANCH   6   7
ENDBRANCH   5   6
ENDBRANCH   4   5
ENDBRANCH   3   4
ENDBRANCH   2   3
ENDBRANCH   1   2
BRANCH   1  11
ATOM     11  C   UNL     1       4.590   5.824  17.189  0.00  0.00    +0.000 C 
BRANCH  11  12
ATOM     12  C   UNL     1       3.608   4.921  17.868  0.00  0.00    +0.000 A 
ATOM     13  C   UNL     1       3.235   3.728  17.386  0.00  0.00    +0.000 A 
ATOM     14  C   UNL     1       2.284   2.951  18.125  0.00  0.00    +0.000 A 
ATOM     15  C   UNL     1       1.764   3.401  19.266  0.00  0.00    +0.000 A 
ATOM     16  C   UNL     1       2.171   4.704  19.811  0.00  0.00    +0.000 A 
ATOM     17  O   UNL     1       1.705   5.112  20.870  0.00  0.00    +0.000 OA
ATOM     18  O   UNL     1       3.088   5.419  19.091  0.00  0.00    +0.000 OA
BRANCH  14  19
ATOM     19  O   UNL     1       1.932   1.726  17.612  0.00  0.00    +0.000 OA
ATOM     20  H   UNL     1       0.964   1.639  17.614  0.00  0.00    +0.000 HD
ENDBRANCH  14  19
ENDBRANCH  11  12
ENDBRANCH   1  11
TORSDOF 11
ENDMDL
MODEL 4
REMARK VINA RESULT:      -5.9      1.714      2.801
REMARK  Name = 
REMARK  12 active torsions:
REMARK  status: ('A' for Active; 'I' for Inactive)
REMARK    1  A    between atoms: C_1  and  C_2
REMARK    2  A    between atoms: C_2  and  C_3
REMARK    3  A    between atoms: C_3  and  C_4
REMARK    4  A    between atoms: C_4  and  C_5
REMARK    5  A    between atoms: C_5  and  C_6
REMARK    6  A    between atoms: C_6  and  C_7
REMARK    7  A    between atoms: C_7  and  C_8
REMARK    8  A    between atoms: C_8  and  C_9
REMARK    9  A    between atoms: C_9  and  C_10
REMARK   10  A    between atoms: C_10  and  C_11
REMARK   11  A    between atoms: C_11  and  C_12
REMARK   12  A    between atoms: C_14  and  O_15
REMARK                            x       y       z     vdW  Elec       q    Type
REMARK                         _______ _______ _______ _____ _____    ______ ____
ROOT
ATOM      1  C   UNL     1       4.834   5.677  16.612  0.00  0.00    +0.000 C 
ENDROOT
BRANCH   1   2
ATOM      2  C   UNL     1       4.811   6.227  18.031  0.00  0.00    +0.000 C 
BRANCH   2   3
ATOM      3  C   UNL     1       3.384   6.241  18.562  0.00  0.00    +0.000 C 
BRANCH   3   4
ATOM      4  C   UNL     1       3.302   5.487  19.879  0.00  0.00    +0.000 C 
BRANCH   4   5
ATOM      5  C   UNL     1       1.876   5.509  20.408  0.00  0.00    +0.000 C 
BRANCH   5   6
ATOM      6  C   UNL     1       1.417   4.098  20.742  0.00  0.00    +0.000 C 
BRANCH   6   7
ATOM      7  C   UNL     1       1.046   3.347  19.472  0.00  0.00    +0.000 C 
BRANCH   7   8
ATOM      8  C   UNL     1       1.727   1.987  19.443  0.00  0.00    +0.000 C 
BRANCH   8  10
ATOM      9  C   UNL     1       2.597   2.866  17.270  0.00  0.00    +0.000 C 
ATOM     10  C   UNL     1       2.899   1.990  18.471  0.00  0.00    +0.000 C 
ENDBRANCH   8  10
ENDBRANCH   7   8
ENDBRANCH   6   7
ENDBRANCH   5   6
ENDBRANCH   4   5
ENDBRANCH   3   4
ENDBRANCH   2   3
ENDBRANCH   1   2
BRANCH   1  11
ATOM     11  C   UNL     1       5.975   4.680  16.442  0.00  0.00    +0.000 C 
BRANCH  11  12
ATOM     12  C   UNL     1       6.376   4.552  15.005  0.00  0.00    +0.000 A 
ATOM     13  C   UNL     1       5.760   3.748  14.128  0.00  0.00    +0.000 A 
ATOM     14  C   UNL     1       6.234   3.709  12.776  0.00  0.00    +0.000 A 
ATOM     15  C   UNL     1       7.275   4.446  12.388  0.00  0.00    +0.000 A 
ATOM     16  C   UNL     1       7.953   5.339  13.338  0.00  0.00    +0.000 A 
ATOM     17  O   UNL     1       8.902   6.029  12.978  0.00  0.00    +0.000 OA
ATOM     18  O   UNL     1       7.473   5.365  14.619  0.00  0.00    +0.000 OA
BRANCH  14  19
ATOM     19  O   UNL     1       5.574   2.886  11.896  0.00  0.00    +0.000 OA
ATOM     20  H   UNL     1       6.001   2.933  11.025  0.00  0.00    +0.000 HD
ENDBRANCH  14  19
ENDBRANCH  11  12
ENDBRANCH   1  11
TORSDOF 11
ENDMDL
MODEL 5
REMARK VINA RESULT:      -5.9      1.704      3.547
REMARK  Name = 
REMARK  12 active torsions:
REMARK  status: ('A' for Active; 'I' for Inactive)
REMARK    1  A    between atoms: C_1  and  C_2
REMARK    2  A    between atoms: C_2  and  C_3
REMARK    3  A    between atoms: C_3  and  C_4
REMARK    4  A    between atoms: C_4  and  C_5
REMARK    5  A    between atoms: C_5  and  C_6
REMARK    6  A    between atoms: C_6  and  C_7
REMARK    7  A    between atoms: C_7  and  C_8
REMARK    8  A    between atoms: C_8  and  C_9
REMARK    9  A    between atoms: C_9  and  C_10
REMARK   10  A    between atoms: C_10  and  C_11
REMARK   11  A    between atoms: C_11  and  C_12
REMARK   12  A    between atoms: C_14  and  O_15
REMARK                            x       y       z     vdW  Elec       q    Type
REMARK                         _______ _______ _______ _____ _____    ______ ____
ROOT
ATOM      1  C   UNL     1       4.413   3.114  18.081  0.00  0.00    +0.000 C 
ENDROOT
BRANCH   1   2
ATOM      2  C   UNL     1       2.915   2.886  17.942  0.00  0.00    +0.000 C 
BRANCH   2   3
ATOM      3  C   UNL     1       2.282   2.722  19.316  0.00  0.00    +0.000 C 
BRANCH   3   4
ATOM      4  C   UNL     1       2.902   3.695  20.305  0.00  0.00    +0.000 C 
BRANCH   4   5
ATOM      5  C   UNL     1       1.813   4.460  21.041  0.00  0.00    +0.000 C 
BRANCH   5   6
ATOM      6  C   UNL     1       1.675   5.861  20.467  0.00  0.00    +0.000 C 
BRANCH   6   7
ATOM      7  C   UNL     1       2.865   6.189  19.577  0.00  0.00    +0.000 C 
BRANCH   7   8
ATOM      8  C   UNL     1       2.394   6.548  18.174  0.00  0.00    +0.000 C 
BRANCH   8  10
ATOM      9  C   UNL     1       2.172   9.029  17.960  0.00  0.00    +0.000 C 
ATOM     10  C   UNL     1       3.061   7.829  17.692  0.00  0.00    +0.000 C 
ENDBRANCH   8  10
ENDBRANCH   7   8
ENDBRANCH   6   7
ENDBRANCH   5   6
ENDBRANCH   4   5
ENDBRANCH   3   4
ENDBRANCH   2   3
ENDBRANCH   1   2
BRANCH   1  11
ATOM     11  C   UNL     1       4.915   4.061  16.995  0.00  0.00    +0.000 C 
BRANCH  11  12
ATOM     12  C   UNL     1       5.916   5.032  17.541  0.00  0.00    +0.000 A 
ATOM     13  C   UNL     1       6.272   6.164  16.920  0.00  0.00    +0.000 A 
ATOM     14  C   UNL     1       7.243   7.015  17.540  0.00  0.00    +0.000 A 
ATOM     15  C   UNL     1       7.798   6.693  18.707  0.00  0.00    +0.000 A 
ATOM     16  C   UNL     1       7.410   5.459  19.404  0.00  0.00    +0.000 A 
ATOM     17  O   UNL     1       7.909   5.169  20.486  0.00  0.00    +0.000 OA
ATOM     18  O   UNL     1       6.473   4.670  18.795  0.00  0.00    +0.000 OA
BRANCH  14  19
ATOM     19  O   UNL     1       7.578   8.177  16.885  0.00  0.00    +0.000 OA
ATOM     20  H   UNL     1       8.099   7.965  16.094  0.00  0.00    +0.000 HD
ENDBRANCH  14  19
ENDBRANCH  11  12
ENDBRANCH   1  11
TORSDOF 11
ENDMDL
MODEL 6
REMARK VINA RESULT:      -5.9      2.543      5.877
REMARK  Name = 
REMARK  12 active torsions:
REMARK  status: ('A' for Active; 'I' for Inactive)
REMARK    1  A    between atoms: C_1  and  C_2
REMARK    2  A    between atoms: C_2  and  C_3
REMARK    3  A    between atoms: C_3  and  C_4
REMARK    4  A    between atoms: C_4  and  C_5
REMARK    5  A    between atoms: C_5  and  C_6
REMARK    6  A    between atoms: C_6  and  C_7
REMARK    7  A    between atoms: C_7  and  C_8
REMARK    8  A    between atoms: C_8  and  C_9
REMARK    9  A    between atoms: C_9  and  C_10
REMARK   10  A    between atoms: C_10  and  C_11
REMARK   11  A    between atoms: C_11  and  C_12
REMARK   12  A    between atoms: C_14  and  O_15
REMARK                            x       y       z     vdW  Elec       q    Type
REMARK                         _______ _______ _______ _____ _____    ______ ____
ROOT
ATOM      1  C   UNL     1       4.017   6.832  17.756  0.00  0.00    +0.000 C 
ENDROOT
BRANCH   1   2
ATOM      2  C   UNL     1       4.150   5.739  16.706  0.00  0.00    +0.000 C 
BRANCH   2   3
ATOM      3  C   UNL     1       4.997   6.232  15.542  0.00  0.00    +0.000 C 
BRANCH   3   4
ATOM      4  C   UNL     1       5.897   5.119  15.032  0.00  0.00    +0.000 C 
BRANCH   4   5
ATOM      5  C   UNL     1       6.356   4.244  16.188  0.00  0.00    +0.000 C 
BRANCH   5   6
ATOM      6  C   UNL     1       7.661   4.774  16.763  0.00  0.00    +0.000 C 
BRANCH   6   7
ATOM      7  C   UNL     1       7.597   4.805  18.282  0.00  0.00    +0.000 C 
BRANCH   7   8
ATOM      8  C   UNL     1       7.709   6.236  18.788  0.00  0.00    +0.000 C 
BRANCH   8  10
ATOM      9  C   UNL     1       8.192   8.588  18.089  0.00  0.00    +0.000 C 
ATOM     10  C   UNL     1       7.728   7.220  17.625  0.00  0.00    +0.000 C 
ENDBRANCH   8  10
ENDBRANCH   7   8
ENDBRANCH   6   7
ENDBRANCH   5   6
ENDBRANCH   4   5
ENDBRANCH   3   4
ENDBRANCH   2   3
ENDBRANCH   1   2
BRANCH   1  11
ATOM     11  C   UNL     1       3.079   6.390  18.875  0.00  0.00    +0.000 C 
BRANCH  11  12
ATOM     12  C   UNL     1       3.067   4.900  19.017  0.00  0.00    +0.000 A 
ATOM     13  C   UNL     1       4.115   4.183  19.445  0.00  0.00    +0.000 A 
ATOM     14  C   UNL     1       3.985   2.759  19.540  0.00  0.00    +0.000 A 
ATOM     15  C   UNL     1       2.853   2.146  19.200  0.00  0.00    +0.000 A 
ATOM     16  C   UNL     1       1.692   2.920  18.737  0.00  0.00    +0.000 A 
ATOM     17  O   UNL     1       0.644   2.358  18.439  0.00  0.00    +0.000 OA
ATOM     18  O   UNL     1       1.840   4.279  18.667  0.00  0.00    +0.000 OA
BRANCH  14  19
ATOM     19  O   UNL     1       5.072   2.053  19.996  0.00  0.00    +0.000 OA
ATOM     20  H   UNL     1       5.186   1.250  19.460  0.00  0.00    +0.000 HD
ENDBRANCH  14  19
ENDBRANCH  11  12
ENDBRANCH   1  11
TORSDOF 11
ENDMDL
MODEL 7
REMARK VINA RESULT:      -5.8      1.681      3.424
REMARK  Name = 
REMARK  12 active torsions:
REMARK  status: ('A' for Active; 'I' for Inactive)
REMARK    1  A    between atoms: C_1  and  C_2
REMARK    2  A    between atoms: C_2  and  C_3
REMARK    3  A    between atoms: C_3  and  C_4
REMARK    4  A    between atoms: C_4  and  C_5
REMARK    5  A    between atoms: C_5  and  C_6
REMARK    6  A    between atoms: C_6  and  C_7
REMARK    7  A    between atoms: C_7  and  C_8
REMARK    8  A    between atoms: C_8  and  C_9
REMARK    9  A    between atoms: C_9  and  C_10
REMARK   10  A    between atoms: C_10  and  C_11
REMARK   11  A    between atoms: C_11  and  C_12
REMARK   12  A    between atoms: C_14  and  O_15
REMARK                            x       y       z     vdW  Elec       q    Type
REMARK                         _______ _______ _______ _____ _____    ______ ____
ROOT
ATOM      1  C   UNL     1       4.944   5.199  15.861  0.00  0.00    +0.000 C 
ENDROOT
BRANCH   1   2
ATOM      2  C   UNL     1       4.160   4.885  17.127  0.00  0.00    +0.000 C 
BRANCH   2   3
ATOM      3  C   UNL     1       4.086   6.119  18.016  0.00  0.00    +0.000 C 
BRANCH   3   4
ATOM      4  C   UNL     1       3.627   5.738  19.414  0.00  0.00    +0.000 C 
BRANCH   4   5
ATOM      5  C   UNL     1       2.242   6.307  19.684  0.00  0.00    +0.000 C 
BRANCH   5   6
ATOM      6  C   UNL     1       1.509   5.445  20.700  0.00  0.00    +0.000 C 
BRANCH   6   7
ATOM      7  C   UNL     1       2.348   4.231  21.069  0.00  0.00    +0.000 C 
BRANCH   7   8
ATOM      8  C   UNL     1       1.524   2.958  20.939  0.00  0.00    +0.000 C 
BRANCH   8  10
ATOM      9  C   UNL     1       1.495   2.431  18.495  0.00  0.00    +0.000 C 
ATOM     10  C   UNL     1       0.695   2.979  19.662  0.00  0.00    +0.000 C 
ENDBRANCH   8  10
ENDBRANCH   7   8
ENDBRANCH   6   7
ENDBRANCH   5   6
ENDBRANCH   4   5
ENDBRANCH   3   4
ENDBRANCH   2   3
ENDBRANCH   1   2
BRANCH   1  11
ATOM     11  C   UNL     1       6.399   4.769  16.011  0.00  0.00    +0.000 C 
BRANCH  11  12
ATOM     12  C   UNL     1       7.085   5.539  17.097  0.00  0.00    +0.000 A 
ATOM     13  C   UNL     1       7.552   4.984  18.223  0.00  0.00    +0.000 A 
ATOM     14  C   UNL     1       8.191   5.824  19.192  0.00  0.00    +0.000 A 
ATOM     15  C   UNL     1       8.313   7.136  18.996  0.00  0.00    +0.000 A 
ATOM     16  C   UNL     1       7.813   7.756  17.761  0.00  0.00    +0.000 A 
ATOM     17  O   UNL     1       7.938   8.961  17.571  0.00  0.00    +0.000 OA
ATOM     18  O   UNL     1       7.217   6.929  16.847  0.00  0.00    +0.000 OA
BRANCH  14  19
ATOM     19  O   UNL     1       8.673   5.224  20.331  0.00  0.00    +0.000 OA
ATOM     20  H   UNL     1       8.607   5.843  21.077  0.00  0.00    +0.000 HD
ENDBRANCH  14  19
ENDBRANCH  11  12
ENDBRANCH   1  11
TORSDOF 11
ENDMDL
MODEL 8
REMARK VINA RESULT:      -5.8      1.081      1.199
REMARK  Name = 
REMARK  12 active torsions:
REMARK  status: ('A' for Active; 'I' for Inactive)
REMARK    1  A    between atoms: C_1  and  C_2
REMARK    2  A    between atoms: C_2  and  C_3
REMARK    3  A    between atoms: C_3  and  C_4
REMARK    4  A    between atoms: C_4  and  C_5
REMARK    5  A    between atoms: C_5  and  C_6
REMARK    6  A    between atoms: C_6  and  C_7
REMARK    7  A    between atoms: C_7  and  C_8
REMARK    8  A    between atoms: C_8  and  C_9
REMARK    9  A    between atoms: C_9  and  C_10
REMARK   10  A    between atoms: C_10  and  C_11
REMARK   11  A    between atoms: C_11  and  C_12
REMARK   12  A    between atoms: C_14  and  O_15
REMARK                            x       y       z     vdW  Elec       q    Type
REMARK                         _______ _______ _______ _____ _____    ______ ____
ROOT
ATOM      1  C   UNL     1       3.178   7.499  17.995  0.00  0.00    +0.000 C 
ENDROOT
BRANCH   1   2
ATOM      2  C   UNL     1       2.330   7.543  19.257  0.00  0.00    +0.000 C 
BRANCH   2   3
ATOM      3  C   UNL     1       1.709   6.178  19.518  0.00  0.00    +0.000 C 
BRANCH   3   4
ATOM      4  C   UNL     1       1.984   5.734  20.945  0.00  0.00    +0.000 C 
BRANCH   4   5
ATOM      5  C   UNL     1       2.345   4.257  20.975  0.00  0.00    +0.000 C 
BRANCH   5   6
ATOM      6  C   UNL     1       1.099   3.408  20.776  0.00  0.00    +0.000 C 
BRANCH   6   7
ATOM      7  C   UNL     1       1.355   2.328  19.735  0.00  0.00    +0.000 C 
BRANCH   7   8
ATOM      8  C   UNL     1       1.467   2.945  18.349  0.00  0.00    +0.000 C 
BRANCH   8  10
ATOM      9  C   UNL     1       3.884   2.314  18.230  0.00  0.00    +0.000 C 
ATOM     10  C   UNL     1       2.541   2.241  17.529  0.00  0.00    +0.000 C 
ENDBRANCH   8  10
ENDBRANCH   7   8
ENDBRANCH   6   7
ENDBRANCH   5   6
ENDBRANCH   4   5
ENDBRANCH   3   4
ENDBRANCH   2   3
ENDBRANCH   1   2
BRANCH   1  11
ATOM     11  C   UNL     1       3.390   6.058  17.540  0.00  0.00    +0.000 C 
BRANCH  11  12
ATOM     12  C   UNL     1       4.843   5.694  17.549  0.00  0.00    +0.000 A 
ATOM     13  C   UNL     1       5.540   5.385  16.447  0.00  0.00    +0.000 A 
ATOM     14  C   UNL     1       6.927   5.051  16.580  0.00  0.00    +0.000 A 
ATOM     15  C   UNL     1       7.522   5.034  17.771  0.00  0.00    +0.000 A 
ATOM     16  C   UNL     1       6.771   5.380  18.987  0.00  0.00    +0.000 A 
ATOM     17  O   UNL     1       7.322   5.379  20.083  0.00  0.00    +0.000 OA
ATOM     18  O   UNL     1       5.451   5.705  18.830  0.00  0.00    +0.000 OA
BRANCH  14  19
ATOM     19  O   UNL     1       7.619   4.752  15.431  0.00  0.00    +0.000 OA
ATOM     20  H   UNL     1       7.498   5.466  14.783  0.00  0.00    +0.000 HD
ENDBRANCH  14  19
ENDBRANCH  11  12
ENDBRANCH   1  11
TORSDOF 11
ENDMDL
MODEL 9
REMARK VINA RESULT:      -5.8      1.710      3.606
REMARK  Name = 
REMARK  12 active torsions:
REMARK  status: ('A' for Active; 'I' for Inactive)
REMARK    1  A    between atoms: C_1  and  C_2
REMARK    2  A    between atoms: C_2  and  C_3
REMARK    3  A    between atoms: C_3  and  C_4
REMARK    4  A    between atoms: C_4  and  C_5
REMARK    5  A    between atoms: C_5  and  C_6
REMARK    6  A    between atoms: C_6  and  C_7
REMARK    7  A    between atoms: C_7  and  C_8
REMARK    8  A    between atoms: C_8  and  C_9
REMARK    9  A    between atoms: C_9  and  C_10
REMARK   10  A    between atoms: C_10  and  C_11
REMARK   11  A    between atoms: C_11  and  C_12
REMARK   12  A    between atoms: C_14  and  O_15
REMARK                            x       y       z     vdW  Elec       q    Type
REMARK                         _______ _______ _______ _____ _____    ______ ____
ROOT
ATOM      1  C   UNL     1       4.669   5.049  16.734  0.00  0.00    +0.000 C 
ENDROOT
BRANCH   1   2
ATOM      2  C   UNL     1       3.743   3.851  16.887  0.00  0.00    +0.000 C 
BRANCH   2   3
ATOM      3  C   UNL     1       4.190   2.993  18.062  0.00  0.00    +0.000 C 
BRANCH   3   4
ATOM      4  C   UNL     1       3.336   1.739  18.156  0.00  0.00    +0.000 C 
BRANCH   4   5
ATOM      5  C   UNL     1       2.236   1.930  19.189  0.00  0.00    +0.000 C 
BRANCH   5   6
ATOM      6  C   UNL     1       2.731   2.808  20.328  0.00  0.00    +0.000 C 
BRANCH   6   7
ATOM      7  C   UNL     1       1.556   3.419  21.076  0.00  0.00    +0.000 C 
BRANCH   7   8
ATOM      8  C   UNL     1       1.349   4.864  20.646  0.00  0.00    +0.000 C 
BRANCH   8  10
ATOM      9  C   UNL     1       2.421   6.882  19.631  0.00  0.00    +0.000 C 
ATOM     10  C   UNL     1       2.614   5.426  20.011  0.00  0.00    +0.000 C 
ENDBRANCH   8  10
ENDBRANCH   7   8
ENDBRANCH   6   7
ENDBRANCH   5   6
ENDBRANCH   4   5
ENDBRANCH   3   4
ENDBRANCH   2   3
ENDBRANCH   1   2
BRANCH   1  11
ATOM     11  C   UNL     1       6.113   4.592  16.550  0.00  0.00    +0.000 C 
BRANCH  11  12
ATOM     12  C   UNL     1       6.480   4.521  15.100  0.00  0.00    +0.000 A 
ATOM     13  C   UNL     1       5.838   3.758  14.205  0.00  0.00    +0.000 A 
ATOM     14  C   UNL     1       6.282   3.772  12.843  0.00  0.00    +0.000 A 
ATOM     15  C   UNL     1       7.318   4.516  12.462  0.00  0.00    +0.000 A 
ATOM     16  C   UNL     1       8.025   5.365  13.431  0.00  0.00    +0.000 A 
ATOM     17  O   UNL     1       8.971   6.063  13.079  0.00  0.00    +0.000 OA
ATOM     18  O   UNL     1       7.575   5.341  14.723  0.00  0.00    +0.000 OA
BRANCH  14  19
ATOM     19  O   UNL     1       5.595   2.990  11.945  0.00  0.00    +0.000 OA
ATOM     20  H   UNL     1       5.782   2.053  12.122  0.00  0.00    +0.000 HD
ENDBRANCH  14  19
ENDBRANCH  11  12
ENDBRANCH   1  11
TORSDOF 11
ENDMDL
