MODEL 1
REMARK VINA RESULT:      -6.5      0.000      0.000
REMARK  Name = 
REMARK  7 active torsions:
REMARK  status: ('A' for Active; 'I' for Inactive)
REMARK    1  A    between atoms: C_1  and  C_2
REMARK    2  A    between atoms: C_3  and  N_4
REMARK    3  A    between atoms: N_4  and  C_5
REMARK    4  A    between atoms: C_5  and  C_6
REMARK    5  A    between atoms: C_5  and  C_7
REMARK    6  A    between atoms: N_10  and  C_11
REMARK    7  A    between atoms: N_17  and  C_18
REMARK                            x       y       z     vdW  Elec       q    Type
REMARK                         _______ _______ _______ _____ _____    ______ ____
ROOT
ATOM      1  C   UNL     1       7.452   6.611  16.942  0.00  0.00    +0.000 C 
ATOM      2  C   UNL     1       6.183   5.856  17.162  0.00  0.00    +0.000 A 
ATOM      3  C   UNL     1       5.442   5.257  16.209  0.00  0.00    +0.000 A 
ATOM      4  C   UNL     1       4.465   4.388  16.993  0.00  0.00    +0.000 A 
ATOM      5  O   UNL     1       3.602   3.709  16.470  0.00  0.00    +0.000 OA
ATOM      6  N   UNL     1       4.748   4.605  18.353  0.00  0.00    +0.000 N 
ATOM      7  N   UNL     1       5.739   5.599  18.467  0.00  0.00    +0.000 N 
ATOM      8  C   UNL     1       6.684   5.487  19.583  0.00  0.00    +0.000 C 
ENDROOT
BRANCH   6   9
ATOM      9  C   UNL     1       3.913   4.255  19.432  0.00  0.00    +0.000 A 
ATOM     10  C   UNL     1       3.004   5.184  19.948  0.00  0.00    +0.000 A 
ATOM     11  C   UNL     1       2.065   4.798  20.908  0.00  0.00    +0.000 A 
ATOM     12  C   UNL     1       2.057   3.487  21.395  0.00  0.00    +0.000 A 
ATOM     13  C   UNL     1       2.992   2.570  20.923  0.00  0.00    +0.000 A 
ATOM     14  C   UNL     1       3.909   2.949  19.951  0.00  0.00    +0.000 A 
ENDBRANCH   6   9
BRANCH   3  15
ATOM     15  N   UNL     1       5.541   5.203  14.825  0.00  0.00    +0.000 N 
ATOM     16  H   UNL     1       5.505   6.140  14.422  0.00  0.00    +0.000 HD
BRANCH  15  17
ATOM     17  C   UNL     1       6.450   4.301  14.108  0.00  0.00    +0.000 C 
ATOM     18  C   UNL     1       5.644   3.564  13.042  0.00  0.00    +0.000 C 
ATOM     19  C   UNL     1       7.593   5.069  13.432  0.00  0.00    +0.000 C 
ENDBRANCH  15  17
ENDBRANCH   3  15
TORSDOF 3
ENDMDL
MODEL 2
REMARK VINA RESULT:      -6.4      1.865      3.378
REMARK  Name = 
REMARK  7 active torsions:
REMARK  status: ('A' for Active; 'I' for Inactive)
REMARK    1  A    between atoms: C_1  and  C_2
REMARK    2  A    between atoms: C_3  and  N_4
REMARK    3  A    between atoms: N_4  and  C_5
REMARK    4  A    between atoms: C_5  and  C_6
REMARK    5  A    between atoms: C_5  and  C_7
REMARK    6  A    between atoms: N_10  and  C_11
REMARK    7  A    between atoms: N_17  and  C_18
REMARK                            x       y       z     vdW  Elec       q    Type
REMARK                         _______ _______ _______ _____ _____    ______ ____
ROOT
ATOM      1  C   UNL     1       5.999   4.010  15.658  0.00  0.00    +0.000 C 
ATOM      2  C   UNL     1       5.323   4.407  16.929  0.00  0.00    +0.000 A 
ATOM      3  C   UNL     1       5.385   5.620  17.514  0.00  0.00    +0.000 A 
ATOM      4  C   UNL     1       4.290   5.574  18.573  0.00  0.00    +0.000 A 
ATOM      5  O   UNL     1       4.058   6.491  19.338  0.00  0.00    +0.000 OA
ATOM      6  N   UNL     1       3.713   4.295  18.490  0.00  0.00    +0.000 N 
ATOM      7  N   UNL     1       4.424   3.527  17.547  0.00  0.00    +0.000 N 
ATOM      8  C   UNL     1       3.666   2.543  16.768  0.00  0.00    +0.000 C 
ENDROOT
BRANCH   6   9
ATOM      9  C   UNL     1       2.882   3.703  19.462  0.00  0.00    +0.000 A 
ATOM     10  C   UNL     1       3.440   2.952  20.501  0.00  0.00    +0.000 A 
ATOM     11  C   UNL     1       2.642   2.497  21.554  0.00  0.00    +0.000 A 
ATOM     12  C   UNL     1       1.267   2.751  21.553  0.00  0.00    +0.000 A 
ATOM     13  C   UNL     1       0.696   3.455  20.495  0.00  0.00    +0.000 A 
ATOM     14  C   UNL     1       1.495   3.928  19.462  0.00  0.00    +0.000 A 
ENDBRANCH   6   9
BRANCH   3  15
ATOM     15  N   UNL     1       6.088   6.780  17.219  0.00  0.00    +0.000 N 
ATOM     16  H   UNL     1       5.523   7.607  17.415  0.00  0.00    +0.000 HD
BRANCH  15  17
ATOM     17  C   UNL     1       7.512   6.969  17.522  0.00  0.00    +0.000 C 
ATOM     18  C   UNL     1       7.775   8.467  17.649  0.00  0.00    +0.000 C 
ATOM     19  C   UNL     1       7.908   6.277  18.832  0.00  0.00    +0.000 C 
ENDBRANCH  15  17
ENDBRANCH   3  15
TORSDOF 3
ENDMDL
MODEL 3
REMARK VINA RESULT:      -6.3      0.171      1.149
REMARK  Name = 
REMARK  7 active torsions:
REMARK  status: ('A' for Active; 'I' for Inactive)
REMARK    1  A    between atoms: C_1  and  C_2
REMARK    2  A    between atoms: C_3  and  N_4
REMARK    3  A    between atoms: N_4  and  C_5
REMARK    4  A    between atoms: C_5  and  C_6
REMARK    5  A    between atoms: C_5  and  C_7
REMARK    6  A    between atoms: N_10  and  C_11
REMARK    7  A    between atoms: N_17  and  C_18
REMARK                            x       y       z     vdW  Elec       q    Type
REMARK                         _______ _______ _______ _____ _____    ______ ____
ROOT
ATOM      1  C   UNL     1       7.444   6.744  17.140  0.00  0.00    +0.000 C 
ATOM      2  C   UNL     1       6.179   5.956  17.241  0.00  0.00    +0.000 A 
ATOM      3  C   UNL     1       5.514   5.389  16.214  0.00  0.00    +0.000 A 
ATOM      4  C   UNL     1       4.507   4.467  16.892  0.00  0.00    +0.000 A 
ATOM      5  O   UNL     1       3.695   3.798  16.282  0.00  0.00    +0.000 OA
ATOM      6  N   UNL     1       4.697   4.624  18.276  0.00  0.00    +0.000 N 
ATOM      7  N   UNL     1       5.657   5.630  18.501  0.00  0.00    +0.000 N 
ATOM      8  C   UNL     1       6.529   5.482  19.670  0.00  0.00    +0.000 C 
ENDROOT
BRANCH   6   9
ATOM      9  C   UNL     1       3.801   4.209  19.281  0.00  0.00    +0.000 A 
ATOM     10  C   UNL     1       3.892   2.919  19.814  0.00  0.00    +0.000 A 
ATOM     11  C   UNL     1       3.116   2.552  20.916  0.00  0.00    +0.000 A 
ATOM     12  C   UNL     1       2.207   3.460  21.469  0.00  0.00    +0.000 A 
ATOM     13  C   UNL     1       2.075   4.729  20.911  0.00  0.00    +0.000 A 
ATOM     14  C   UNL     1       2.864   5.101  19.830  0.00  0.00    +0.000 A 
ENDBRANCH   6   9
BRANCH   3  15
ATOM     15  N   UNL     1       5.704   5.403  14.839  0.00  0.00    +0.000 N 
ATOM     16  H   UNL     1       5.780   6.360  14.492  0.00  0.00    +0.000 HD
BRANCH  15  17
ATOM     17  C   UNL     1       6.577   4.461  14.128  0.00  0.00    +0.000 C 
ATOM     18  C   UNL     1       5.723   3.687  13.127  0.00  0.00    +0.000 C 
ATOM     19  C   UNL     1       7.699   5.186  13.376  0.00  0.00    +0.000 C 
ENDBRANCH  15  17
ENDBRANCH   3  15
TORSDOF 3
ENDMDL
MODEL 4
REMARK VINA RESULT:      -6.3      1.791      3.222
REMARK  Name = 
REMARK  7 active torsions:
REMARK  status: ('A' for Active; 'I' for Inactive)
REMARK    1  A    between atoms: C_1  and  C_2
REMARK    2  A    between atoms: C_3  and  N_4
REMARK    3  A    between atoms: N_4  and  C_5
REMARK    4  A    between atoms: C_5  and  C_6
REMARK    5  A    between atoms: C_5  and  C_7
REMARK    6  A    between atoms: N_10  and  C_11
REMARK    7  A    between atoms: N_17  and  C_18
REMARK                            x       y       z     vdW  Elec       q    Type
REMARK                         _______ _______ _______ _____ _____    ______ ____
ROOT
ATOM      1  C   UNL     1       5.573   4.018  15.318  0.00  0.00    +0.000 C 
ATOM      2  C   UNL     1       5.084   4.471  16.655  0.00  0.00    +0.000 A 
ATOM      3  C   UNL     1       5.345   5.660  17.233  0.00  0.00    +0.000 A 
ATOM      4  C   UNL     1       4.370   5.723  18.402  0.00  0.00    +0.000 A 
ATOM      5  O   UNL     1       4.326   6.649  19.189  0.00  0.00    +0.000 OA
ATOM      6  N   UNL     1       3.647   4.518  18.378  0.00  0.00    +0.000 N 
ATOM      7  N   UNL     1       4.162   3.688  17.363  0.00  0.00    +0.000 N 
ATOM      8  C   UNL     1       3.219   2.807  16.667  0.00  0.00    +0.000 C 
ENDROOT
BRANCH   6   9
ATOM      9  C   UNL     1       2.861   4.009  19.432  0.00  0.00    +0.000 A 
ATOM     10  C   UNL     1       1.482   4.240  19.455  0.00  0.00    +0.000 A 
ATOM     11  C   UNL     1       0.674   3.609  20.404  0.00  0.00    +0.000 A 
ATOM     12  C   UNL     1       1.246   2.775  21.370  0.00  0.00    +0.000 A 
ATOM     13  C   UNL     1       2.625   2.581  21.384  0.00  0.00    +0.000 A 
ATOM     14  C   UNL     1       3.424   3.190  20.424  0.00  0.00    +0.000 A 
ENDBRANCH   6   9
BRANCH   3  15
ATOM     15  N   UNL     1       6.140   6.738  16.867  0.00  0.00    +0.000 N 
ATOM     16  H   UNL     1       5.596   7.601  16.846  0.00  0.00    +0.000 HD
BRANCH  15  17
ATOM     17  C   UNL     1       7.515   6.935  17.344  0.00  0.00    +0.000 C 
ATOM     18  C   UNL     1       7.713   8.424  17.616  0.00  0.00    +0.000 C 
ATOM     19  C   UNL     1       7.785   6.148  18.632  0.00  0.00    +0.000 C 
ENDBRANCH  15  17
ENDBRANCH   3  15
TORSDOF 3
ENDMDL
MODEL 5
REMARK VINA RESULT:      -6.2      1.891      3.112
REMARK  Name = 
REMARK  7 active torsions:
REMARK  status: ('A' for Active; 'I' for Inactive)
REMARK    1  A    between atoms: C_1  and  C_2
REMARK    2  A    between atoms: C_3  and  N_4
REMARK    3  A    between atoms: N_4  and  C_5
REMARK    4  A    between atoms: C_5  and  C_6
REMARK    5  A    between atoms: C_5  and  C_7
REMARK    6  A    between atoms: N_10  and  C_11
REMARK    7  A    between atoms: N_17  and  C_18
REMARK                            x       y       z     vdW  Elec       q    Type
REMARK                         _______ _______ _______ _____ _____    ______ ____
ROOT
ATOM      1  C   UNL     1       5.633   3.807  15.361  0.00  0.00    +0.000 C 
ATOM      2  C   UNL     1       5.446   4.011  16.828  0.00  0.00    +0.000 A 
ATOM      3  C   UNL     1       6.257   4.719  17.639  0.00  0.00    +0.000 A 
ATOM      4  C   UNL     1       5.453   4.867  18.926  0.00  0.00    +0.000 A 
ATOM      5  O   UNL     1       5.874   5.430  19.918  0.00  0.00    +0.000 OA
ATOM      6  N   UNL     1       4.239   4.191  18.713  0.00  0.00    +0.000 N 
ATOM      7  N   UNL     1       4.274   3.562  17.453  0.00  0.00    +0.000 N 
ATOM      8  C   UNL     1       3.011   3.457  16.715  0.00  0.00    +0.000 C 
ENDROOT
BRANCH   6   9
ATOM      9  C   UNL     1       3.325   3.807  19.714  0.00  0.00    +0.000 A 
ATOM     10  C   UNL     1       2.104   4.476  19.846  0.00  0.00    +0.000 A 
ATOM     11  C   UNL     1       1.129   4.002  20.726  0.00  0.00    +0.000 A 
ATOM     12  C   UNL     1       1.384   2.879  21.520  0.00  0.00    +0.000 A 
ATOM     13  C   UNL     1       2.617   2.238  21.430  0.00  0.00    +0.000 A 
ATOM     14  C   UNL     1       3.577   2.695  20.537  0.00  0.00    +0.000 A 
ENDBRANCH   6   9
BRANCH   3  15
ATOM     15  N   UNL     1       7.465   5.373  17.437  0.00  0.00    +0.000 N 
ATOM     16  H   UNL     1       8.077   4.824  16.831  0.00  0.00    +0.000 HD
BRANCH  15  17
ATOM     17  C   UNL     1       7.581   6.819  17.217  0.00  0.00    +0.000 C 
ATOM     18  C   UNL     1       6.179   7.378  16.986  0.00  0.00    +0.000 C 
ATOM     19  C   UNL     1       8.211   7.526  18.423  0.00  0.00    +0.000 C 
ENDBRANCH  15  17
ENDBRANCH   3  15
TORSDOF 3
ENDMDL
MODEL 6
REMARK VINA RESULT:      -6.2      1.858      3.291
REMARK  Name = 
REMARK  7 active torsions:
REMARK  status: ('A' for Active; 'I' for Inactive)
REMARK    1  A    between atoms: C_1  and  C_2
REMARK    2  A    between atoms: C_3  and  N_4
REMARK    3  A    between atoms: N_4  and  C_5
REMARK    4  A    between atoms: C_5  and  C_6
REMARK    5  A    between atoms: C_5  and  C_7
REMARK    6  A    between atoms: N_10  and  C_11
REMARK    7  A    between atoms: N_17  and  C_18
REMARK                            x       y       z     vdW  Elec       q    Type
REMARK                         _______ _______ _______ _____ _____    ______ ____
ROOT
ATOM      1  C   UNL     1       5.705   3.894  15.248  0.00  0.00    +0.000 C 
ATOM      2  C   UNL     1       5.476   4.027  16.718  0.00  0.00    +0.000 A 
ATOM      3  C   UNL     1       6.261   4.698  17.584  0.00  0.00    +0.000 A 
ATOM      4  C   UNL     1       5.421   4.781  18.853  0.00  0.00    +0.000 A 
ATOM      5  O   UNL     1       5.811   5.298  19.883  0.00  0.00    +0.000 OA
ATOM      6  N   UNL     1       4.217   4.112  18.574  0.00  0.00    +0.000 N 
ATOM      7  N   UNL     1       4.289   3.544  17.287  0.00  0.00    +0.000 N 
ATOM      8  C   UNL     1       3.048   3.471  16.510  0.00  0.00    +0.000 C 
ENDROOT
BRANCH   6   9
ATOM      9  C   UNL     1       3.277   3.678  19.530  0.00  0.00    +0.000 A 
ATOM     10  C   UNL     1       3.607   2.657  20.428  0.00  0.00    +0.000 A 
ATOM     11  C   UNL     1       2.745   2.331  21.478  0.00  0.00    +0.000 A 
ATOM     12  C   UNL     1       1.520   2.993  21.612  0.00  0.00    +0.000 A 
ATOM     13  C   UNL     1       1.162   3.974  20.691  0.00  0.00    +0.000 A 
ATOM     14  C   UNL     1       2.031   4.315  19.663  0.00  0.00    +0.000 A 
ENDBRANCH   6   9
BRANCH   3  15
ATOM     15  N   UNL     1       7.471   5.364  17.447  0.00  0.00    +0.000 N 
ATOM     16  H   UNL     1       8.119   4.825  16.871  0.00  0.00    +0.000 HD
BRANCH  15  17
ATOM     17  C   UNL     1       7.585   6.813  17.241  0.00  0.00    +0.000 C 
ATOM     18  C   UNL     1       6.183   7.368  17.001  0.00  0.00    +0.000 C 
ATOM     19  C   UNL     1       8.199   7.512  18.461  0.00  0.00    +0.000 C 
ENDBRANCH  15  17
ENDBRANCH   3  15
TORSDOF 3
ENDMDL
MODEL 7
REMARK VINA RESULT:      -6.1      2.689      3.897
REMARK  Name = 
REMARK  7 active torsions:
REMARK  status: ('A' for Active; 'I' for Inactive)
REMARK    1  A    between atoms: C_1  and  C_2
REMARK    2  A    between atoms: C_3  and  N_4
REMARK    3  A    between atoms: N_4  and  C_5
REMARK    4  A    between atoms: C_5  and  C_6
REMARK    5  A    between atoms: C_5  and  C_7
REMARK    6  A    between atoms: N_10  and  C_11
REMARK    7  A    between atoms: N_17  and  C_18
REMARK                            x       y       z     vdW  Elec       q    Type
REMARK                         _______ _______ _______ _____ _____    ______ ____
ROOT
ATOM      1  C   UNL     1       3.502   2.349  17.761  0.00  0.00    +0.000 C 
ATOM      2  C   UNL     1       3.797   3.803  17.928  0.00  0.00    +0.000 A 
ATOM      3  C   UNL     1       4.943   4.424  17.583  0.00  0.00    +0.000 A 
ATOM      4  C   UNL     1       4.598   5.906  17.668  0.00  0.00    +0.000 A 
ATOM      5  O   UNL     1       5.401   6.794  17.453  0.00  0.00    +0.000 OA
ATOM      6  N   UNL     1       3.258   5.977  18.082  0.00  0.00    +0.000 N 
ATOM      7  N   UNL     1       2.787   4.677  18.354  0.00  0.00    +0.000 N 
ATOM      8  C   UNL     1       1.374   4.398  18.077  0.00  0.00    +0.000 C 
ENDROOT
BRANCH   6   9
ATOM      9  C   UNL     1       2.611   7.125  18.582  0.00  0.00    +0.000 A 
ATOM     10  C   UNL     1       2.247   8.161  17.716  0.00  0.00    +0.000 A 
ATOM     11  C   UNL     1       1.467   9.225  18.174  0.00  0.00    +0.000 A 
ATOM     12  C   UNL     1       1.082   9.288  19.517  0.00  0.00    +0.000 A 
ATOM     13  C   UNL     1       1.484   8.286  20.396  0.00  0.00    +0.000 A 
ATOM     14  C   UNL     1       2.239   7.215  19.934  0.00  0.00    +0.000 A 
ENDBRANCH   6   9
BRANCH   3  15
ATOM     15  N   UNL     1       6.154   3.968  17.080  0.00  0.00    +0.000 N 
ATOM     16  H   UNL     1       6.454   3.122  17.566  0.00  0.00    +0.000 HD
BRANCH  15  17
ATOM     17  C   UNL     1       6.492   3.963  15.651  0.00  0.00    +0.000 C 
ATOM     18  C   UNL     1       5.200   4.148  14.858  0.00  0.00    +0.000 C 
ATOM     19  C   UNL     1       7.465   5.093  15.295  0.00  0.00    +0.000 C 
ENDBRANCH  15  17
ENDBRANCH   3  15
TORSDOF 3
ENDMDL
MODEL 8
REMARK VINA RESULT:      -6.1      2.024      3.348
REMARK  Name = 
REMARK  7 active torsions:
REMARK  status: ('A' for Active; 'I' for Inactive)
REMARK    1  A    between atoms: C_1  and  C_2
REMARK    2  A    between atoms: C_3  and  N_4
REMARK    3  A    between atoms: N_4  and  C_5
REMARK    4  A    between atoms: C_5  and  C_6
REMARK    5  A    between atoms: C_5  and  C_7
REMARK    6  A    between atoms: N_10  and  C_11
REMARK    7  A    between atoms: N_17  and  C_18
REMARK                            x       y       z     vdW  Elec       q    Type
REMARK                         _______ _______ _______ _____ _____    ______ ____
ROOT
ATOM      1  C   UNL     1       6.842   4.252  16.117  0.00  0.00    +0.000 C 
ATOM      2  C   UNL     1       5.795   4.820  17.018  0.00  0.00    +0.000 A 
ATOM      3  C   UNL     1       5.622   6.124  17.309  0.00  0.00    +0.000 A 
ATOM      4  C   UNL     1       4.261   6.172  17.993  0.00  0.00    +0.000 A 
ATOM      5  O   UNL     1       3.767   7.193  18.433  0.00  0.00    +0.000 OA
ATOM      6  N   UNL     1       3.795   4.847  18.038  0.00  0.00    +0.000 N 
ATOM      7  N   UNL     1       4.792   3.988  17.535  0.00  0.00    +0.000 N 
ATOM      8  C   UNL     1       4.351   2.790  16.813  0.00  0.00    +0.000 C 
ENDROOT
BRANCH   6   9
ATOM      9  C   UNL     1       2.736   4.374  18.839  0.00  0.00    +0.000 A 
ATOM     10  C   UNL     1       1.628   3.758  18.247  0.00  0.00    +0.000 A 
ATOM     11  C   UNL     1       0.653   3.147  19.038  0.00  0.00    +0.000 A 
ATOM     12  C   UNL     1       0.753   3.185  20.433  0.00  0.00    +0.000 A 
ATOM     13  C   UNL     1       1.827   3.841  21.029  0.00  0.00    +0.000 A 
ATOM     14  C   UNL     1       2.809   4.427  20.241  0.00  0.00    +0.000 A 
ENDBRANCH   6   9
BRANCH   3  15
ATOM     15  N   UNL     1       6.329   7.272  16.974  0.00  0.00    +0.000 N 
ATOM     16  H   UNL     1       5.724   8.094  17.009  0.00  0.00    +0.000 HD
BRANCH  15  17
ATOM     17  C   UNL     1       7.699   7.545  17.424  0.00  0.00    +0.000 C 
ATOM     18  C   UNL     1       7.815   9.039  17.712  0.00  0.00    +0.000 C 
ATOM     19  C   UNL     1       8.044   6.761  18.697  0.00  0.00    +0.000 C 
ENDBRANCH  15  17
ENDBRANCH   3  15
TORSDOF 3
ENDMDL
MODEL 9
REMARK VINA RESULT:      -6.1      1.726      2.231
REMARK  Name = 
REMARK  7 active torsions:
REMARK  status: ('A' for Active; 'I' for Inactive)
REMARK    1  A    between atoms: C_1  and  C_2
REMARK    2  A    between atoms: C_3  and  N_4
REMARK    3  A    between atoms: N_4  and  C_5
REMARK    4  A    between atoms: C_5  and  C_6
REMARK    5  A    between atoms: C_5  and  C_7
REMARK    6  A    between atoms: N_10  and  C_11
REMARK    7  A    between atoms: N_17  and  C_18
REMARK                            x       y       z     vdW  Elec       q    Type
REMARK                         _______ _______ _______ _____ _____    ______ ____
ROOT
ATOM      1  C   UNL     1       7.419   6.920  17.385  0.00  0.00    +0.000 C 
ATOM      2  C   UNL     1       6.493   5.825  16.966  0.00  0.00    +0.000 A 
ATOM      3  C   UNL     1       6.650   5.021  15.896  0.00  0.00    +0.000 A 
ATOM      4  C   UNL     1       5.627   3.913  16.115  0.00  0.00    +0.000 A 
ATOM      5  O   UNL     1       5.447   3.002  15.329  0.00  0.00    +0.000 OA
ATOM      6  N   UNL     1       4.962   4.221  17.314  0.00  0.00    +0.000 N 
ATOM      7  N   UNL     1       5.417   5.466  17.790  0.00  0.00    +0.000 N 
ATOM      8  C   UNL     1       5.477   5.653  19.244  0.00  0.00    +0.000 C 
ENDROOT
BRANCH   6   9
ATOM      9  C   UNL     1       3.748   3.654  17.750  0.00  0.00    +0.000 A 
ATOM     10  C   UNL     1       3.747   2.429  18.426  0.00  0.00    +0.000 A 
ATOM     11  C   UNL     1       2.572   1.938  19.000  0.00  0.00    +0.000 A 
ATOM     12  C   UNL     1       1.374   2.647  18.864  0.00  0.00    +0.000 A 
ATOM     13  C   UNL     1       1.357   3.842  18.148  0.00  0.00    +0.000 A 
ATOM     14  C   UNL     1       2.532   4.341  17.599  0.00  0.00    +0.000 A 
ENDBRANCH   6   9
BRANCH   3  15
ATOM     15  N   UNL     1       7.583   4.982  14.869  0.00  0.00    +0.000 N 
ATOM     16  H   UNL     1       8.226   4.198  14.992  0.00  0.00    +0.000 HD
BRANCH  15  17
ATOM     17  C   UNL     1       7.257   5.244  13.462  0.00  0.00    +0.000 C 
ATOM     18  C   UNL     1       8.485   5.861  12.797  0.00  0.00    +0.000 C 
ATOM     19  C   UNL     1       6.877   3.957  12.719  0.00  0.00    +0.000 C 
ENDBRANCH  15  17
ENDBRANCH   3  15
TORSDOF 3
ENDMDL
