MODEL 1
REMARK VINA RESULT:      -7.8      0.000      0.000
REMARK  Name = 
REMARK  5 active torsions:
REMARK  status: ('A' for Active; 'I' for Inactive)
REMARK    1  A    between atoms: C_1  and  C_2
REMARK    2  A    between atoms: C_4  and  C_5
REMARK    3  A    between atoms: C_8  and  C_9
REMARK    4  A    between atoms: N_11  and  S_12
REMARK    5  A    between atoms: S_12  and  C_15
REMARK                            x       y       z     vdW  Elec       q    Type
REMARK                         _______ _______ _______ _____ _____    ______ ____
ROOT
ATOM      1  C   UNL     1       2.141   6.116  19.961  0.00  0.00    +0.000 C 
ATOM      2  O   UNL     1       1.750   5.221  20.714  0.00  0.00    +0.000 OA
ATOM      3  N   UNL     1       2.997   5.831  18.890  0.00  0.00    +0.000 N 
ATOM      4  H   UNL     1       3.336   6.588  18.304  0.00  0.00    +0.000 HD
ENDROOT
BRANCH   1  12
ATOM      5  C   UNL     1       0.286  13.116  19.531  0.00  0.00    +0.000 C 
ATOM      6  C   UNL     1       0.505  11.701  20.021  0.00  0.00    +0.000 A 
ATOM      7  C   UNL     1       0.024  11.407  21.409  0.00  0.00    +0.000 A 
ATOM      8  C   UNL     1       0.214  10.155  21.853  0.00  0.00    +0.000 A 
ATOM      9  C   UNL     1      -0.207   9.707  23.218  0.00  0.00    +0.000 C 
ATOM     10  N   UNL     1       0.833   9.226  21.009  0.00  0.00    +0.000 N 
ATOM     11  N   UNL     1       1.112   7.934  21.248  0.00  0.00    +0.000 NA
ATOM     12  C   UNL     1       1.691   7.516  20.116  0.00  0.00    +0.000 A 
ATOM     13  N   UNL     1       1.796   8.502  19.146  0.00  0.00    +0.000 NA
ATOM     14  C   UNL     1       1.257   9.569  19.717  0.00  0.00    +0.000 A 
ATOM     15  N   UNL     1       1.081  10.839  19.229  0.00  0.00    +0.000 NA
ENDBRANCH   1  12
BRANCH   3  16
ATOM     16  S   UNL     1       3.551   4.262  18.648  0.00  0.00    +0.000 S 
ATOM     17  O   UNL     1       4.018   3.774  19.934  0.00  0.00    +0.000 OA
ATOM     18  O   UNL     1       2.542   3.545  17.901  0.00  0.00    +0.000 OA
BRANCH  16  19
ATOM     19  C   UNL     1       5.001   4.364  17.616  0.00  0.00    +0.000 A 
ATOM     20  C   UNL     1       6.220   4.661  18.225  0.00  0.00    +0.000 A 
ATOM     21  C   UNL     1       7.380   4.744  17.457  0.00  0.00    +0.000 A 
ATOM     22  C   UNL     1       7.323   4.522  16.081  0.00  0.00    +0.000 A 
ATOM     23  C   UNL     1       6.104   4.204  15.482  0.00  0.00    +0.000 A 
ATOM     24 BR   UNL     1       6.038   3.900  13.615  0.00  0.00    +0.000 Br
ATOM     25  C   UNL     1       4.932   4.110  16.238  0.00  0.00    +0.000 A 
ENDBRANCH  16  19
ENDBRANCH   3  16
TORSDOF 3
ENDMDL
MODEL 2
REMARK VINA RESULT:      -7.8      1.259      2.146
REMARK  Name = 
REMARK  5 active torsions:
REMARK  status: ('A' for Active; 'I' for Inactive)
REMARK    1  A    between atoms: C_1  and  C_2
REMARK    2  A    between atoms: C_4  and  C_5
REMARK    3  A    between atoms: C_8  and  C_9
REMARK    4  A    between atoms: N_11  and  S_12
REMARK    5  A    between atoms: S_12  and  C_15
REMARK                            x       y       z     vdW  Elec       q    Type
REMARK                         _______ _______ _______ _____ _____    ______ ____
ROOT
ATOM      1  C   UNL     1       2.729   5.791  18.902  0.00  0.00    +0.000 C 
ATOM      2  O   UNL     1       2.673   5.637  17.680  0.00  0.00    +0.000 OA
ATOM      3  N   UNL     1       3.479   4.922  19.703  0.00  0.00    +0.000 N 
ATOM      4  H   UNL     1       3.482   5.046  20.711  0.00  0.00    +0.000 HD
ENDROOT
BRANCH   1  12
ATOM      5  C   UNL     1      -0.736  10.540  23.153  0.00  0.00    +0.000 C 
ATOM      6  C   UNL     1       0.011   9.898  22.005  0.00  0.00    +0.000 A 
ATOM      7  C   UNL     1       0.340  10.798  20.852  0.00  0.00    +0.000 A 
ATOM      8  C   UNL     1       1.002  10.238  19.829  0.00  0.00    +0.000 A 
ATOM      9  C   UNL     1       1.398  11.003  18.604  0.00  0.00    +0.000 C 
ATOM     10  N   UNL     1       1.339   8.881  19.904  0.00  0.00    +0.000 N 
ATOM     11  N   UNL     1       1.999   8.132  19.005  0.00  0.00    +0.000 NA
ATOM     12  C   UNL     1       2.054   6.922  19.575  0.00  0.00    +0.000 A 
ATOM     13  N   UNL     1       1.448   6.865  20.821  0.00  0.00    +0.000 NA
ATOM     14  C   UNL     1       1.003   8.097  21.016  0.00  0.00    +0.000 A 
ATOM     15  N   UNL     1       0.324   8.633  22.081  0.00  0.00    +0.000 NA
ENDBRANCH   1  12
BRANCH   3  16
ATOM     16  S   UNL     1       4.276   3.613  19.010  0.00  0.00    +0.000 S 
ATOM     17  O   UNL     1       5.118   3.034  20.041  0.00  0.00    +0.000 OA
ATOM     18  O   UNL     1       3.292   2.813  18.315  0.00  0.00    +0.000 OA
BRANCH  16  19
ATOM     19  C   UNL     1       5.393   4.262  17.782  0.00  0.00    +0.000 A 
ATOM     20  C   UNL     1       6.385   5.148  18.201  0.00  0.00    +0.000 A 
ATOM     21  C   UNL     1       7.284   5.675  17.277  0.00  0.00    +0.000 A 
ATOM     22  C   UNL     1       7.199   5.308  15.934  0.00  0.00    +0.000 A 
ATOM     23  C   UNL     1       6.218   4.404  15.524  0.00  0.00    +0.000 A 
ATOM     24 BR   UNL     1       6.114   3.909  13.701  0.00  0.00    +0.000 Br
ATOM     25  C   UNL     1       5.313   3.861  16.440  0.00  0.00    +0.000 A 
ENDBRANCH  16  19
ENDBRANCH   3  16
TORSDOF 3
ENDMDL
MODEL 3
REMARK VINA RESULT:      -7.8      1.010      1.106
REMARK  Name = 
REMARK  5 active torsions:
REMARK  status: ('A' for Active; 'I' for Inactive)
REMARK    1  A    between atoms: C_1  and  C_2
REMARK    2  A    between atoms: C_4  and  C_5
REMARK    3  A    between atoms: C_8  and  C_9
REMARK    4  A    between atoms: N_11  and  S_12
REMARK    5  A    between atoms: S_12  and  C_15
REMARK                            x       y       z     vdW  Elec       q    Type
REMARK                         _______ _______ _______ _____ _____    ______ ____
ROOT
ATOM      1  C   UNL     1       2.940   6.027  19.495  0.00  0.00    +0.000 C 
ATOM      2  O   UNL     1       2.857   5.173  20.380  0.00  0.00    +0.000 OA
ATOM      3  N   UNL     1       3.686   5.789  18.334  0.00  0.00    +0.000 N 
ATOM      4  H   UNL     1       3.772   6.520  17.634  0.00  0.00    +0.000 HD
ENDROOT
BRANCH   1  12
ATOM      5  C   UNL     1      -0.281  12.484  18.744  0.00  0.00    +0.000 C 
ATOM      6  C   UNL     1       0.224  11.171  19.302  0.00  0.00    +0.000 A 
ATOM      7  C   UNL     1      -0.169  10.867  20.715  0.00  0.00    +0.000 A 
ATOM      8  C   UNL     1       0.273   9.705  21.220  0.00  0.00    +0.000 A 
ATOM      9  C   UNL     1      -0.030   9.260  22.617  0.00  0.00    +0.000 C 
ATOM     10  N   UNL     1       1.053   8.871  20.410  0.00  0.00    +0.000 N 
ATOM     11  N   UNL     1       1.587   7.675  20.710  0.00  0.00    +0.000 NA
ATOM     12  C   UNL     1       2.222   7.316  19.587  0.00  0.00    +0.000 A 
ATOM     13  N   UNL     1       2.114   8.247  18.565  0.00  0.00    +0.000 NA
ATOM     14  C   UNL     1       1.381   9.217  19.092  0.00  0.00    +0.000 A 
ATOM     15  N   UNL     1       0.949  10.397  18.542  0.00  0.00    +0.000 NA
ENDBRANCH   1  12
BRANCH   3  16
ATOM     16  S   UNL     1       4.530   4.345  18.156  0.00  0.00    +0.000 S 
ATOM     17  O   UNL     1       5.471   4.266  19.258  0.00  0.00    +0.000 OA
ATOM     18  O   UNL     1       3.565   3.294  17.923  0.00  0.00    +0.000 OA
BRANCH  16  19
ATOM     19  C   UNL     1       5.523   4.490  16.683  0.00  0.00    +0.000 A 
ATOM     20  C   UNL     1       6.779   5.085  16.794  0.00  0.00    +0.000 A 
ATOM     21  C   UNL     1       7.592   5.213  15.670  0.00  0.00    +0.000 A 
ATOM     22  C   UNL     1       7.153   4.736  14.434  0.00  0.00    +0.000 A 
ATOM     23  C   UNL     1       5.904   4.122  14.334  0.00  0.00    +0.000 A 
ATOM     24 BR   UNL     1       5.320   3.475  12.654  0.00  0.00    +0.000 Br
ATOM     25  C   UNL     1       5.079   3.980  15.453  0.00  0.00    +0.000 A 
ENDBRANCH  16  19
ENDBRANCH   3  16
TORSDOF 3
ENDMDL
MODEL 4
REMARK VINA RESULT:      -7.7      4.516      8.878
REMARK  Name = 
REMARK  5 active torsions:
REMARK  status: ('A' for Active; 'I' for Inactive)
REMARK    1  A    between atoms: C_1  and  C_2
REMARK    2  A    between atoms: C_4  and  C_5
REMARK    3  A    between atoms: C_8  and  C_9
REMARK    4  A    between atoms: N_11  and  S_12
REMARK    5  A    between atoms: S_12  and  C_15
REMARK                            x       y       z     vdW  Elec       q    Type
REMARK                         _______ _______ _______ _____ _____    ______ ____
ROOT
ATOM      1  C   UNL     1       1.945   8.949  18.330  0.00  0.00    +0.000 C 
ATOM      2  O   UNL     1       2.149   9.669  17.351  0.00  0.00    +0.000 OA
ATOM      3  N   UNL     1       1.058   9.342  19.339  0.00  0.00    +0.000 N 
ATOM      4  H   UNL     1       0.932   8.751  20.156  0.00  0.00    +0.000 HD
ENDROOT
BRANCH   1  12
ATOM      5  C   UNL     1       4.363   2.323  20.024  0.00  0.00    +0.000 C 
ATOM      6  C   UNL     1       4.120   3.643  19.327  0.00  0.00    +0.000 A 
ATOM      7  C   UNL     1       4.840   3.840  18.027  0.00  0.00    +0.000 A 
ATOM      8  C   UNL     1       4.631   5.008  17.401  0.00  0.00    +0.000 A 
ATOM      9  C   UNL     1       5.281   5.356  16.098  0.00  0.00    +0.000 C 
ATOM     10  N   UNL     1       3.772   5.944  17.988  0.00  0.00    +0.000 N 
ATOM     11  N   UNL     1       3.422   7.159  17.532  0.00  0.00    +0.000 NA
ATOM     12  C   UNL     1       2.581   7.621  18.467  0.00  0.00    +0.000 A 
ATOM     13  N   UNL     1       2.375   6.739  19.516  0.00  0.00    +0.000 NA
ATOM     14  C   UNL     1       3.127   5.693  19.206  0.00  0.00    +0.000 A 
ATOM     15  N   UNL     1       3.317   4.512  19.877  0.00  0.00    +0.000 NA
ENDBRANCH   1  12
BRANCH   3  16
ATOM     16  S   UNL     1       0.295  10.839  19.255  0.00  0.00    +0.000 S 
ATOM     17  O   UNL     1       1.340  11.846  19.214  0.00  0.00    +0.000 OA
ATOM     18  O   UNL     1      -0.710  10.766  18.218  0.00  0.00    +0.000 OA
BRANCH  16  19
ATOM     19  C   UNL     1      -0.555  11.089  20.801  0.00  0.00    +0.000 A 
ATOM     20  C   UNL     1      -0.229  10.258  21.871  0.00  0.00    +0.000 A 
ATOM     21  C   UNL     1      -0.864  10.422  23.101  0.00  0.00    +0.000 A 
ATOM     22  C   UNL     1      -1.819  11.425  23.263  0.00  0.00    +0.000 A 
ATOM     23  C   UNL     1      -2.126  12.268  22.194  0.00  0.00    +0.000 A 
ATOM     24 BR   UNL     1      -3.421  13.628  22.427  0.00  0.00    +0.000 Br
ATOM     25  C   UNL     1      -1.493  12.121  20.957  0.00  0.00    +0.000 A 
ENDBRANCH  16  19
ENDBRANCH   3  16
TORSDOF 3
ENDMDL
MODEL 5
REMARK VINA RESULT:      -7.7      5.874      7.030
REMARK  Name = 
REMARK  5 active torsions:
REMARK  status: ('A' for Active; 'I' for Inactive)
REMARK    1  A    between atoms: C_1  and  C_2
REMARK    2  A    between atoms: C_4  and  C_5
REMARK    3  A    between atoms: C_8  and  C_9
REMARK    4  A    between atoms: N_11  and  S_12
REMARK    5  A    between atoms: S_12  and  C_15
REMARK                            x       y       z     vdW  Elec       q    Type
REMARK                         _______ _______ _______ _____ _____    ______ ____
ROOT
ATOM      1  C   UNL     1       7.906   7.442  18.017  0.00  0.00    +0.000 C 
ATOM      2  O   UNL     1       7.981   6.509  18.820  0.00  0.00    +0.000 OA
ATOM      3  N   UNL     1       7.329   7.259  16.755  0.00  0.00    +0.000 N 
ATOM      4  H   UNL     1       7.310   8.030  16.095  0.00  0.00    +0.000 HD
ENDROOT
BRANCH   1  12
ATOM      5  C   UNL     1      10.938  13.544  20.507  0.00  0.00    +0.000 C 
ATOM      6  C   UNL     1      10.103  12.554  19.725  0.00  0.00    +0.000 A 
ATOM      7  C   UNL     1       9.239  13.134  18.646  0.00  0.00    +0.000 A 
ATOM      8  C   UNL     1       8.494  12.265  17.947  0.00  0.00    +0.000 A 
ATOM      9  C   UNL     1       7.578  12.689  16.842  0.00  0.00    +0.000 C 
ATOM     10  N   UNL     1       8.574  10.903  18.260  0.00  0.00    +0.000 N 
ATOM     11  N   UNL     1       7.927   9.873  17.687  0.00  0.00    +0.000 NA
ATOM     12  C   UNL     1       8.371   8.803  18.359  0.00  0.00    +0.000 A 
ATOM     13  N   UNL     1       9.289   9.109  19.352  0.00  0.00    +0.000 NA
ATOM     14  C   UNL     1       9.408  10.427  19.281  0.00  0.00    +0.000 A 
ATOM     15  N   UNL     1      10.182  11.285  20.020  0.00  0.00    +0.000 NA
ENDBRANCH   1  12
BRANCH   3  16
ATOM     16  S   UNL     1       6.775   5.738  16.294  0.00  0.00    +0.000 S 
ATOM     17  O   UNL     1       6.583   5.775  14.855  0.00  0.00    +0.000 OA
ATOM     18  O   UNL     1       7.635   4.750  16.906  0.00  0.00    +0.000 OA
BRANCH  16  19
ATOM     19  C   UNL     1       5.149   5.532  16.993  0.00  0.00    +0.000 A 
ATOM     20  C   UNL     1       4.468   6.672  17.418  0.00  0.00    +0.000 A 
ATOM     21  C   UNL     1       3.191   6.558  17.964  0.00  0.00    +0.000 A 
ATOM     22  C   UNL     1       2.590   5.304  18.077  0.00  0.00    +0.000 A 
ATOM     23  C   UNL     1       3.268   4.170  17.630  0.00  0.00    +0.000 A 
ATOM     24 BR   UNL     1       2.442   2.474  17.783  0.00  0.00    +0.000 Br
ATOM     25  C   UNL     1       4.546   4.267  17.073  0.00  0.00    +0.000 A 
ENDBRANCH  16  19
ENDBRANCH   3  16
TORSDOF 3
ENDMDL
MODEL 6
REMARK VINA RESULT:      -7.6      1.140      2.042
REMARK  Name = 
REMARK  5 active torsions:
REMARK  status: ('A' for Active; 'I' for Inactive)
REMARK    1  A    between atoms: C_1  and  C_2
REMARK    2  A    between atoms: C_4  and  C_5
REMARK    3  A    between atoms: C_8  and  C_9
REMARK    4  A    between atoms: N_11  and  S_12
REMARK    5  A    between atoms: S_12  and  C_15
REMARK                            x       y       z     vdW  Elec       q    Type
REMARK                         _______ _______ _______ _____ _____    ______ ____
ROOT
ATOM      1  C   UNL     1       2.657   5.427  19.768  0.00  0.00    +0.000 C 
ATOM      2  O   UNL     1       2.409   4.405  20.411  0.00  0.00    +0.000 OA
ATOM      3  N   UNL     1       3.528   5.393  18.672  0.00  0.00    +0.000 N 
ATOM      4  H   UNL     1       3.747   6.253  18.178  0.00  0.00    +0.000 HD
ENDROOT
BRANCH   1  12
ATOM      5  C   UNL     1      -0.780  11.244  22.409  0.00  0.00    +0.000 C 
ATOM      6  C   UNL     1       0.007  10.302  21.525  0.00  0.00    +0.000 A 
ATOM      7  C   UNL     1       0.492  10.875  20.227  0.00  0.00    +0.000 A 
ATOM      8  C   UNL     1       1.192  10.048  19.436  0.00  0.00    +0.000 A 
ATOM      9  C   UNL     1       1.740  10.469  18.107  0.00  0.00    +0.000 C 
ATOM     10  N   UNL     1       1.421   8.735  19.864  0.00  0.00    +0.000 N 
ATOM     11  N   UNL     1       2.094   7.756  19.238  0.00  0.00    +0.000 NA
ATOM     12  C   UNL     1       2.015   6.721  20.084  0.00  0.00    +0.000 A 
ATOM     13  N   UNL     1       1.308   7.002  21.243  0.00  0.00    +0.000 NA
ATOM     14  C   UNL     1       0.940   8.265  21.094  0.00  0.00    +0.000 A 
ATOM     15  N   UNL     1       0.219   9.080  21.930  0.00  0.00    +0.000 NA
ENDBRANCH   1  12
BRANCH   3  16
ATOM     16  S   UNL     1       4.296   3.957  18.251  0.00  0.00    +0.000 S 
ATOM     17  O   UNL     1       5.160   3.597  19.360  0.00  0.00    +0.000 OA
ATOM     18  O   UNL     1       3.288   3.042  17.763  0.00  0.00    +0.000 OA
BRANCH  16  19
ATOM     19  C   UNL     1       5.386   4.319  16.888  0.00  0.00    +0.000 A 
ATOM     20  C   UNL     1       6.536   5.064  17.148  0.00  0.00    +0.000 A 
ATOM     21  C   UNL     1       7.420   5.365  16.114  0.00  0.00    +0.000 A 
ATOM     22  C   UNL     1       7.159   4.913  14.820  0.00  0.00    +0.000 A 
ATOM     23  C   UNL     1       6.018   4.150  14.571  0.00  0.00    +0.000 A 
ATOM     24 BR   UNL     1       5.677   3.537  12.813  0.00  0.00    +0.000 Br
ATOM     25  C   UNL     1       5.125   3.833  15.598  0.00  0.00    +0.000 A 
ENDBRANCH  16  19
ENDBRANCH   3  16
TORSDOF 3
ENDMDL
MODEL 7
REMARK VINA RESULT:      -7.6      6.045      7.024
REMARK  Name = 
REMARK  5 active torsions:
REMARK  status: ('A' for Active; 'I' for Inactive)
REMARK    1  A    between atoms: C_1  and  C_2
REMARK    2  A    between atoms: C_4  and  C_5
REMARK    3  A    between atoms: C_8  and  C_9
REMARK    4  A    between atoms: N_11  and  S_12
REMARK    5  A    between atoms: S_12  and  C_15
REMARK                            x       y       z     vdW  Elec       q    Type
REMARK                         _______ _______ _______ _____ _____    ______ ____
ROOT
ATOM      1  C   UNL     1       8.146   8.063  18.075  0.00  0.00    +0.000 C 
ATOM      2  O   UNL     1       8.482   7.263  18.950  0.00  0.00    +0.000 OA
ATOM      3  N   UNL     1       7.427   7.639  16.951  0.00  0.00    +0.000 N 
ATOM      4  H   UNL     1       7.192   8.308  16.224  0.00  0.00    +0.000 HD
ENDROOT
BRANCH   1  12
ATOM      5  C   UNL     1       8.692  15.290  17.763  0.00  0.00    +0.000 C 
ATOM      6  C   UNL     1       8.881  13.836  18.138  0.00  0.00    +0.000 A 
ATOM      7  C   UNL     1       9.862  13.566  19.237  0.00  0.00    +0.000 A 
ATOM      8  C   UNL     1      10.038  12.280  19.576  0.00  0.00    +0.000 A 
ATOM      9  C   UNL     1      10.986  11.847  20.651  0.00  0.00    +0.000 C 
ATOM     10  N   UNL     1       9.306  11.297  18.899  0.00  0.00    +0.000 N 
ATOM     11  N   UNL     1       9.323   9.966  19.082  0.00  0.00    +0.000 NA
ATOM     12  C   UNL     1       8.440   9.508  18.186  0.00  0.00    +0.000 A 
ATOM     13  N   UNL     1       7.848  10.506  17.426  0.00  0.00    +0.000 NA
ATOM     14  C   UNL     1       8.399  11.622  17.881  0.00  0.00    +0.000 A 
ATOM     15  N   UNL     1       8.195  12.925  17.504  0.00  0.00    +0.000 NA
ENDBRANCH   1  12
BRANCH   3  16
ATOM     16  S   UNL     1       7.054   6.011  16.754  0.00  0.00    +0.000 S 
ATOM     17  O   UNL     1       7.118   5.730  15.331  0.00  0.00    +0.000 OA
ATOM     18  O   UNL     1       7.849   5.257  17.698  0.00  0.00    +0.000 OA
BRANCH  16  19
ATOM     19  C   UNL     1       5.345   5.798  17.211  0.00  0.00    +0.000 A 
ATOM     20  C   UNL     1       4.599   6.938  17.510  0.00  0.00    +0.000 A 
ATOM     21  C   UNL     1       3.257   6.819  17.866  0.00  0.00    +0.000 A 
ATOM     22  C   UNL     1       2.657   5.561  17.914  0.00  0.00    +0.000 A 
ATOM     23  C   UNL     1       3.403   4.426  17.593  0.00  0.00    +0.000 A 
ATOM     24 BR   UNL     1       2.579   2.724  17.657  0.00  0.00    +0.000 Br
ATOM     25  C   UNL     1       4.748   4.528  17.227  0.00  0.00    +0.000 A 
ENDBRANCH  16  19
ENDBRANCH   3  16
TORSDOF 3
ENDMDL
MODEL 8
REMARK VINA RESULT:      -7.5      4.770      8.616
REMARK  Name = 
REMARK  5 active torsions:
REMARK  status: ('A' for Active; 'I' for Inactive)
REMARK    1  A    between atoms: C_1  and  C_2
REMARK    2  A    between atoms: C_4  and  C_5
REMARK    3  A    between atoms: C_8  and  C_9
REMARK    4  A    between atoms: N_11  and  S_12
REMARK    5  A    between atoms: S_12  and  C_15
REMARK                            x       y       z     vdW  Elec       q    Type
REMARK                         _______ _______ _______ _____ _____    ______ ____
ROOT
ATOM      1  C   UNL     1       1.864   9.260  18.413  0.00  0.00    +0.000 C 
ATOM      2  O   UNL     1       2.105  10.050  17.497  0.00  0.00    +0.000 OA
ATOM      3  N   UNL     1       0.929   9.576  19.406  0.00  0.00    +0.000 N 
ATOM      4  H   UNL     1       0.771   8.927  20.172  0.00  0.00    +0.000 HD
ENDROOT
BRANCH   1  12
ATOM      5  C   UNL     1       4.318   2.574  19.786  0.00  0.00    +0.000 C 
ATOM      6  C   UNL     1       4.063   3.923  19.150  0.00  0.00    +0.000 A 
ATOM      7  C   UNL     1       4.766   4.177  17.852  0.00  0.00    +0.000 A 
ATOM      8  C   UNL     1       4.547   5.371  17.280  0.00  0.00    +0.000 A 
ATOM      9  C   UNL     1       5.179   5.777  15.985  0.00  0.00    +0.000 C 
ATOM     10  N   UNL     1       3.692   6.278  17.917  0.00  0.00    +0.000 N 
ATOM     11  N   UNL     1       3.334   7.511  17.519  0.00  0.00    +0.000 NA
ATOM     12  C   UNL     1       2.504   7.930  18.483  0.00  0.00    +0.000 A 
ATOM     13  N   UNL     1       2.314   7.002  19.496  0.00  0.00    +0.000 NA
ATOM     14  C   UNL     1       3.064   5.973  19.132  0.00  0.00    +0.000 A 
ATOM     15  N   UNL     1       3.265   4.764  19.748  0.00  0.00    +0.000 NA
ENDBRANCH   1  12
BRANCH   3  16
ATOM     16  S   UNL     1       0.158  11.071  19.393  0.00  0.00    +0.000 S 
ATOM     17  O   UNL     1      -0.227  11.362  20.763  0.00  0.00    +0.000 OA
ATOM     18  O   UNL     1       0.983  11.989  18.640  0.00  0.00    +0.000 OA
BRANCH  16  19
ATOM     19  C   UNL     1      -1.370  10.872  18.495  0.00  0.00    +0.000 A 
ATOM     20  C   UNL     1      -1.379  10.010  17.400  0.00  0.00    +0.000 A 
ATOM     21  C   UNL     1      -2.552   9.819  16.673  0.00  0.00    +0.000 A 
ATOM     22  C   UNL     1      -3.720  10.483  17.048  0.00  0.00    +0.000 A 
ATOM     23  C   UNL     1      -3.710  11.328  18.159  0.00  0.00    +0.000 A 
ATOM     24 BR   UNL     1      -5.301  12.220  18.662  0.00  0.00    +0.000 Br
ATOM     25  C   UNL     1      -2.543  11.525  18.902  0.00  0.00    +0.000 A 
ENDBRANCH  16  19
ENDBRANCH   3  16
TORSDOF 3
ENDMDL
MODEL 9
REMARK VINA RESULT:      -7.5      6.176      7.132
REMARK  Name = 
REMARK  5 active torsions:
REMARK  status: ('A' for Active; 'I' for Inactive)
REMARK    1  A    between atoms: C_1  and  C_2
REMARK    2  A    between atoms: C_4  and  C_5
REMARK    3  A    between atoms: C_8  and  C_9
REMARK    4  A    between atoms: N_11  and  S_12
REMARK    5  A    between atoms: S_12  and  C_15
REMARK                            x       y       z     vdW  Elec       q    Type
REMARK                         _______ _______ _______ _____ _____    ______ ____
ROOT
ATOM      1  C   UNL     1       8.176   8.112  18.120  0.00  0.00    +0.000 C 
ATOM      2  O   UNL     1       8.517   7.311  18.993  0.00  0.00    +0.000 OA
ATOM      3  N   UNL     1       7.446   7.690  17.003  0.00  0.00    +0.000 N 
ATOM      4  H   UNL     1       7.207   8.359  16.277  0.00  0.00    +0.000 HD
ENDROOT
BRANCH   1  12
ATOM      5  C   UNL     1       8.781  15.332  17.753  0.00  0.00    +0.000 C 
ATOM      6  C   UNL     1       8.943  13.882  18.153  0.00  0.00    +0.000 A 
ATOM      7  C   UNL     1       9.868  13.618  19.302  0.00  0.00    +0.000 A 
ATOM      8  C   UNL     1      10.018  12.335  19.664  0.00  0.00    +0.000 A 
ATOM      9  C   UNL     1      10.910  11.910  20.789  0.00  0.00    +0.000 C 
ATOM     10  N   UNL     1       9.314  11.349  18.963  0.00  0.00    +0.000 N 
ATOM     11  N   UNL     1       9.314  10.020  19.162  0.00  0.00    +0.000 NA
ATOM     12  C   UNL     1       8.473   9.556  18.229  0.00  0.00    +0.000 A 
ATOM     13  N   UNL     1       7.926  10.549  17.430  0.00  0.00    +0.000 NA
ATOM     14  C   UNL     1       8.461  11.667  17.898  0.00  0.00    +0.000 A 
ATOM     15  N   UNL     1       8.283  12.967  17.497  0.00  0.00    +0.000 NA
ENDBRANCH   1  12
BRANCH   3  16
ATOM     16  S   UNL     1       7.070   6.061  16.808  0.00  0.00    +0.000 S 
ATOM     17  O   UNL     1       7.166   5.771  15.389  0.00  0.00    +0.000 OA
ATOM     18  O   UNL     1       7.837   5.311  17.777  0.00  0.00    +0.000 OA
BRANCH  16  19
ATOM     19  C   UNL     1       5.348   5.862  17.226  0.00  0.00    +0.000 A 
ATOM     20  C   UNL     1       4.838   4.567  17.302  0.00  0.00    +0.000 A 
ATOM     21  C   UNL     1       3.499   4.364  17.631  0.00  0.00    +0.000 A 
ATOM     22  C   UNL     1       2.673   5.456  17.895  0.00  0.00    +0.000 A 
ATOM     23  C   UNL     1       3.195   6.749  17.839  0.00  0.00    +0.000 A 
ATOM     24 BR   UNL     1       2.067   8.223  18.203  0.00  0.00    +0.000 Br
ATOM     25  C   UNL     1       4.537   6.969  17.517  0.00  0.00    +0.000 A 
ENDBRANCH  16  19
ENDBRANCH   3  16
TORSDOF 3
ENDMDL
