MODEL 1
REMARK VINA RESULT:      -7.9      0.000      0.000
REMARK  Name = 
REMARK  8 active torsions:
REMARK  status: ('A' for Active; 'I' for Inactive)
REMARK    1  A    between atoms: C_1  and  N_2
REMARK    2  A    between atoms: N_2  and  C_3
REMARK    3  A    between atoms: N_2  and  S_4
REMARK    4  A    between atoms: S_4  and  N_7
REMARK    5  A    between atoms: N_7  and  C_8
REMARK    6  A    between atoms: N_7  and  C_23
REMARK    7  A    between atoms: C_8  and  C_9
REMARK    8  A    between atoms: N_14  and  C_15
REMARK                            x       y       z     vdW  Elec       q    Type
REMARK                         _______ _______ _______ _____ _____    ______ ____
ROOT
ATOM      1  C   UNL     1       2.770   5.633  18.531  0.00  0.00    +0.000 C 
ENDROOT
BRANCH   1   2
ATOM      2  C   UNL     1       2.066   6.350  19.676  0.00  0.00    +0.000 C 
ATOM      3  O   UNL     1       1.837   5.757  20.734  0.00  0.00    +0.000 OA
ATOM      4  N   UNL     1       1.792   7.705  19.533  0.00  0.00    +0.000 N 
ATOM      5  C   UNL     1       1.949   8.449  18.275  0.00  0.00    +0.000 C 
ATOM      6  C   UNL     1       1.003   9.652  18.183  0.00  0.00    +0.000 C 
ATOM      7  N   UNL     1       1.124  10.480  19.386  0.00  0.00    +0.000 N 
ATOM      8  C   UNL     1       0.868   9.778  20.650  0.00  0.00    +0.000 C 
ATOM      9  C   UNL     1       1.770   8.531  20.752  0.00  0.00    +0.000 C 
BRANCH   7  10
ATOM     10  C   UNL     1       1.483  11.807  19.323  0.00  0.00    +0.000 A 
ATOM     11  C   UNL     1       1.135  12.711  20.337  0.00  0.00    +0.000 A 
ATOM     12  C   UNL     1       1.473  14.068  20.259  0.00  0.00    +0.000 A 
ATOM     13  C   UNL     1       2.183  14.547  19.165  0.00  0.00    +0.000 A 
ATOM     14  C   UNL     1       2.553  13.673  18.151  0.00  0.00    +0.000 A 
ATOM     15  C   UNL     1       2.204  12.322  18.235  0.00  0.00    +0.000 A 
ENDBRANCH   7  10
ENDBRANCH   1   2
BRANCH   1  16
ATOM     16  N   UNL     1       4.007   4.924  18.926  0.00  0.00    +0.000 N 
BRANCH  16  17
ATOM     17  C   UNL     1       5.265   5.532  18.564  0.00  0.00    +0.000 A 
ATOM     18  C   UNL     1       6.419   5.295  19.315  0.00  0.00    +0.000 A 
ATOM     19  C   UNL     1       7.609   5.958  19.025  0.00  0.00    +0.000 A 
ATOM     20  C   UNL     1       7.657   6.856  17.964  0.00  0.00    +0.000 A 
ATOM     21  C   UNL     1       6.511   7.101  17.210  0.00  0.00    +0.000 A 
ATOM     22  C   UNL     1       5.311   6.446  17.512  0.00  0.00    +0.000 A 
ENDBRANCH  16  17
BRANCH  16  23
ATOM     23  S   UNL     1       3.940   3.229  18.921  0.00  0.00    +0.000 S 
ATOM     24  O   UNL     1       4.917   2.759  19.887  0.00  0.00    +0.000 OA
ATOM     25  O   UNL     1       3.987   2.749  17.562  0.00  0.00    +0.000 OA
BRANCH  23  27
ATOM     26  C   UNL     1       1.374   2.334  18.692  0.00  0.00    +0.000 C 
ATOM     27  N   UNL     1       2.420   2.883  19.552  0.00  0.00    +0.000 NA
ATOM     28  C   UNL     1       2.297   2.546  20.976  0.00  0.00    +0.000 C 
ENDBRANCH  23  27
ENDBRANCH  16  23
ENDBRANCH   1  16
TORSDOF 6
ENDMDL
MODEL 2
REMARK VINA RESULT:      -7.8      0.089      1.287
REMARK  Name = 
REMARK  8 active torsions:
REMARK  status: ('A' for Active; 'I' for Inactive)
REMARK    1  A    between atoms: C_1  and  N_2
REMARK    2  A    between atoms: N_2  and  C_3
REMARK    3  A    between atoms: N_2  and  S_4
REMARK    4  A    between atoms: S_4  and  N_7
REMARK    5  A    between atoms: N_7  and  C_8
REMARK    6  A    between atoms: N_7  and  C_23
REMARK    7  A    between atoms: C_8  and  C_9
REMARK    8  A    between atoms: N_14  and  C_15
REMARK                            x       y       z     vdW  Elec       q    Type
REMARK                         _______ _______ _______ _____ _____    ______ ____
ROOT
ATOM      1  C   UNL     1       2.764   5.672  18.526  0.00  0.00    +0.000 C 
ENDROOT
BRANCH   1   2
ATOM      2  C   UNL     1       2.050   6.390  19.663  0.00  0.00    +0.000 C 
ATOM      3  O   UNL     1       1.810   5.799  20.719  0.00  0.00    +0.000 OA
ATOM      4  N   UNL     1       1.780   7.746  19.517  0.00  0.00    +0.000 N 
ATOM      5  C   UNL     1       1.950   8.489  18.260  0.00  0.00    +0.000 C 
ATOM      6  C   UNL     1       1.007   9.693  18.158  0.00  0.00    +0.000 C 
ATOM      7  N   UNL     1       1.117  10.522  19.362  0.00  0.00    +0.000 N 
ATOM      8  C   UNL     1       0.848   9.821  20.624  0.00  0.00    +0.000 C 
ATOM      9  C   UNL     1       1.747   8.573  20.735  0.00  0.00    +0.000 C 
BRANCH   7  10
ATOM     10  C   UNL     1       1.479  11.849  19.301  0.00  0.00    +0.000 A 
ATOM     11  C   UNL     1       2.243  12.353  18.238  0.00  0.00    +0.000 A 
ATOM     12  C   UNL     1       2.637  13.696  18.190  0.00  0.00    +0.000 A 
ATOM     13  C   UNL     1       2.261  14.569  19.204  0.00  0.00    +0.000 A 
ATOM     14  C   UNL     1       1.493  14.101  20.262  0.00  0.00    +0.000 A 
ATOM     15  C   UNL     1       1.111  12.758  20.304  0.00  0.00    +0.000 A 
ENDBRANCH   7  10
ENDBRANCH   1   2
BRANCH   1  16
ATOM     16  N   UNL     1       4.013   4.988  18.927  0.00  0.00    +0.000 N 
BRANCH  16  17
ATOM     17  C   UNL     1       5.259   5.650  18.623  0.00  0.00    +0.000 A 
ATOM     18  C   UNL     1       5.365   6.512  17.528  0.00  0.00    +0.000 A 
ATOM     19  C   UNL     1       6.591   7.073  17.178  0.00  0.00    +0.000 A 
ATOM     20  C   UNL     1       7.722   6.787  17.934  0.00  0.00    +0.000 A 
ATOM     21  C   UNL     1       7.627   5.927  19.027  0.00  0.00    +0.000 A 
ATOM     22  C   UNL     1       6.398   5.352  19.371  0.00  0.00    +0.000 A 
ENDBRANCH  16  17
BRANCH  16  23
ATOM     23  S   UNL     1       4.003   3.293  18.854  0.00  0.00    +0.000 S 
ATOM     24  O   UNL     1       4.989   2.818  19.808  0.00  0.00    +0.000 OA
ATOM     25  O   UNL     1       4.074   2.869  17.478  0.00  0.00    +0.000 OA
BRANCH  23  27
ATOM     26  C   UNL     1       1.501   2.239  18.591  0.00  0.00    +0.000 C 
ATOM     27  N   UNL     1       2.491   2.872  19.460  0.00  0.00    +0.000 NA
ATOM     28  C   UNL     1       2.353   2.565  20.890  0.00  0.00    +0.000 C 
ENDBRANCH  23  27
ENDBRANCH  16  23
ENDBRANCH   1  16
TORSDOF 6
ENDMDL
MODEL 3
REMARK VINA RESULT:      -7.7      2.652      4.529
REMARK  Name = 
REMARK  8 active torsions:
REMARK  status: ('A' for Active; 'I' for Inactive)
REMARK    1  A    between atoms: C_1  and  N_2
REMARK    2  A    between atoms: N_2  and  C_3
REMARK    3  A    between atoms: N_2  and  S_4
REMARK    4  A    between atoms: S_4  and  N_7
REMARK    5  A    between atoms: N_7  and  C_8
REMARK    6  A    between atoms: N_7  and  C_23
REMARK    7  A    between atoms: C_8  and  C_9
REMARK    8  A    between atoms: N_14  and  C_15
REMARK                            x       y       z     vdW  Elec       q    Type
REMARK                         _______ _______ _______ _____ _____    ______ ____
ROOT
ATOM      1  C   UNL     1       2.645   7.364  19.231  0.00  0.00    +0.000 C 
ENDROOT
BRANCH   1   2
ATOM      2  C   UNL     1       2.029   8.522  18.457  0.00  0.00    +0.000 C 
ATOM      3  O   UNL     1       2.129   8.572  17.228  0.00  0.00    +0.000 OA
ATOM      4  N   UNL     1       1.268   9.449  19.158  0.00  0.00    +0.000 N 
ATOM      5  C   UNL     1       1.184   9.507  20.625  0.00  0.00    +0.000 C 
ATOM      6  C   UNL     1       0.880  10.918  21.141  0.00  0.00    +0.000 C 
ATOM      7  N   UNL     1      -0.294  11.462  20.453  0.00  0.00    +0.000 N 
ATOM      8  C   UNL     1      -0.189  11.511  18.990  0.00  0.00    +0.000 C 
ATOM      9  C   UNL     1       0.167  10.114  18.441  0.00  0.00    +0.000 C 
BRANCH   7  10
ATOM     10  C   UNL     1      -1.418  11.864  21.140  0.00  0.00    +0.000 A 
ATOM     11  C   UNL     1      -1.530  11.693  22.527  0.00  0.00    +0.000 A 
ATOM     12  C   UNL     1      -2.684  12.074  23.223  0.00  0.00    +0.000 A 
ATOM     13  C   UNL     1      -3.750  12.649  22.542  0.00  0.00    +0.000 A 
ATOM     14  C   UNL     1      -3.662  12.844  21.169  0.00  0.00    +0.000 A 
ATOM     15  C   UNL     1      -2.509  12.454  20.484  0.00  0.00    +0.000 A 
ENDBRANCH   7  10
ENDBRANCH   1   2
BRANCH   1  16
ATOM     16  N   UNL     1       2.753   6.106  18.460  0.00  0.00    +0.000 N 
BRANCH  16  17
ATOM     17  C   UNL     1       2.007   4.967  18.939  0.00  0.00    +0.000 A 
ATOM     18  C   UNL     1       1.784   4.780  20.306  0.00  0.00    +0.000 A 
ATOM     19  C   UNL     1       1.150   3.631  20.775  0.00  0.00    +0.000 A 
ATOM     20  C   UNL     1       0.718   2.665  19.873  0.00  0.00    +0.000 A 
ATOM     21  C   UNL     1       0.937   2.842  18.508  0.00  0.00    +0.000 A 
ATOM     22  C   UNL     1       1.587   3.989  18.038  0.00  0.00    +0.000 A 
ENDBRANCH  16  17
BRANCH  16  23
ATOM     23  S   UNL     1       4.253   5.793  17.731  0.00  0.00    +0.000 S 
ATOM     24  O   UNL     1       4.893   7.076  17.504  0.00  0.00    +0.000 OA
ATOM     25  O   UNL     1       4.074   4.876  16.633  0.00  0.00    +0.000 OA
BRANCH  23  27
ATOM     26  C   UNL     1       4.956   3.579  19.159  0.00  0.00    +0.000 C 
ATOM     27  N   UNL     1       5.131   5.012  18.934  0.00  0.00    +0.000 NA
ATOM     28  C   UNL     1       6.439   5.550  19.328  0.00  0.00    +0.000 C 
ENDBRANCH  23  27
ENDBRANCH  16  23
ENDBRANCH   1  16
TORSDOF 6
ENDMDL
MODEL 4
REMARK VINA RESULT:      -7.7      1.014      1.212
REMARK  Name = 
REMARK  8 active torsions:
REMARK  status: ('A' for Active; 'I' for Inactive)
REMARK    1  A    between atoms: C_1  and  N_2
REMARK    2  A    between atoms: N_2  and  C_3
REMARK    3  A    between atoms: N_2  and  S_4
REMARK    4  A    between atoms: S_4  and  N_7
REMARK    5  A    between atoms: N_7  and  C_8
REMARK    6  A    between atoms: N_7  and  C_23
REMARK    7  A    between atoms: C_8  and  C_9
REMARK    8  A    between atoms: N_14  and  C_15
REMARK                            x       y       z     vdW  Elec       q    Type
REMARK                         _______ _______ _______ _____ _____    ______ ____
ROOT
ATOM      1  C   UNL     1       2.754   6.487  18.234  0.00  0.00    +0.000 C 
ENDROOT
BRANCH   1   2
ATOM      2  C   UNL     1       2.021   6.915  19.499  0.00  0.00    +0.000 C 
ATOM      3  O   UNL     1       1.925   6.140  20.454  0.00  0.00    +0.000 OA
ATOM      4  N   UNL     1       1.567   8.226  19.583  0.00  0.00    +0.000 N 
ATOM      5  C   UNL     1       1.562   9.170  18.456  0.00  0.00    +0.000 C 
ATOM      6  C   UNL     1       0.464  10.233  18.586  0.00  0.00    +0.000 C 
ATOM      7  N   UNL     1       0.536  10.872  19.902  0.00  0.00    +0.000 N 
ATOM      8  C   UNL     1       0.438   9.955  21.044  0.00  0.00    +0.000 C 
ATOM      9  C   UNL     1       1.499   8.842  20.918  0.00  0.00    +0.000 C 
BRANCH   7  10
ATOM     10  C   UNL     1       0.716  12.230  20.041  0.00  0.00    +0.000 A 
ATOM     11  C   UNL     1       0.517  12.874  21.271  0.00  0.00    +0.000 A 
ATOM     12  C   UNL     1       0.670  14.260  21.407  0.00  0.00    +0.000 A 
ATOM     13  C   UNL     1       1.041  15.031  20.312  0.00  0.00    +0.000 A 
ATOM     14  C   UNL     1       1.258  14.419  19.084  0.00  0.00    +0.000 A 
ATOM     15  C   UNL     1       1.095  13.037  18.957  0.00  0.00    +0.000 A 
ENDBRANCH   7  10
ENDBRANCH   1   2
BRANCH   1  16
ATOM     16  N   UNL     1       3.738   5.401  18.439  0.00  0.00    +0.000 N 
BRANCH  16  17
ATOM     17  C   UNL     1       5.136   5.740  18.320  0.00  0.00    +0.000 A 
ATOM     18  C   UNL     1       6.065   5.292  19.262  0.00  0.00    +0.000 A 
ATOM     19  C   UNL     1       7.396   5.699  19.202  0.00  0.00    +0.000 A 
ATOM     20  C   UNL     1       7.811   6.550  18.184  0.00  0.00    +0.000 A 
ATOM     21  C   UNL     1       6.891   7.005  17.241  0.00  0.00    +0.000 A 
ATOM     22  C   UNL     1       5.551   6.607  17.310  0.00  0.00    +0.000 A 
ENDBRANCH  16  17
BRANCH  16  23
ATOM     23  S   UNL     1       3.273   3.854  17.920  0.00  0.00    +0.000 S 
ATOM     24  O   UNL     1       4.396   3.292  17.192  0.00  0.00    +0.000 OA
ATOM     25  O   UNL     1       1.975   3.924  17.295  0.00  0.00    +0.000 OA
BRANCH  23  27
ATOM     26  C   UNL     1       1.817   2.490  19.780  0.00  0.00    +0.000 C 
ATOM     27  N   UNL     1       3.126   2.977  19.347  0.00  0.00    +0.000 NA
ATOM     28  C   UNL     1       4.272   2.195  19.829  0.00  0.00    +0.000 C 
ENDBRANCH  23  27
ENDBRANCH  16  23
ENDBRANCH   1  16
TORSDOF 6
ENDMDL
MODEL 5
REMARK VINA RESULT:      -7.6      1.433      2.074
REMARK  Name = 
REMARK  8 active torsions:
REMARK  status: ('A' for Active; 'I' for Inactive)
REMARK    1  A    between atoms: C_1  and  N_2
REMARK    2  A    between atoms: N_2  and  C_3
REMARK    3  A    between atoms: N_2  and  S_4
REMARK    4  A    between atoms: S_4  and  N_7
REMARK    5  A    between atoms: N_7  and  C_8
REMARK    6  A    between atoms: N_7  and  C_23
REMARK    7  A    between atoms: C_8  and  C_9
REMARK    8  A    between atoms: N_14  and  C_15
REMARK                            x       y       z     vdW  Elec       q    Type
REMARK                         _______ _______ _______ _____ _____    ______ ____
ROOT
ATOM      1  C   UNL     1       2.547   6.648  18.702  0.00  0.00    +0.000 C 
ENDROOT
BRANCH   1   2
ATOM      2  C   UNL     1       1.918   6.868  20.071  0.00  0.00    +0.000 C 
ATOM      3  O   UNL     1       1.981   5.987  20.933  0.00  0.00    +0.000 OA
ATOM      4  N   UNL     1       1.374   8.116  20.352  0.00  0.00    +0.000 N 
ATOM      5  C   UNL     1       1.180   9.175  19.349  0.00  0.00    +0.000 C 
ATOM      6  C   UNL     1       0.023  10.115  19.705  0.00  0.00    +0.000 C 
ATOM      7  N   UNL     1       0.181  10.610  21.075  0.00  0.00    +0.000 N 
ATOM      8  C   UNL     1       0.272   9.568  22.105  0.00  0.00    +0.000 C 
ATOM      9  C   UNL     1       1.397   8.574  21.751  0.00  0.00    +0.000 C 
BRANCH   7  10
ATOM     10  C   UNL     1       0.269  11.955  21.357  0.00  0.00    +0.000 A 
ATOM     11  C   UNL     1       1.252  12.764  20.771  0.00  0.00    +0.000 A 
ATOM     12  C   UNL     1       1.362  14.126  21.079  0.00  0.00    +0.000 A 
ATOM     13  C   UNL     1       0.475  14.711  21.975  0.00  0.00    +0.000 A 
ATOM     14  C   UNL     1      -0.519  13.937  22.560  0.00  0.00    +0.000 A 
ATOM     15  C   UNL     1      -0.615  12.578  22.252  0.00  0.00    +0.000 A 
ENDBRANCH   7  10
ENDBRANCH   1   2
BRANCH   1  16
ATOM     16  N   UNL     1       3.429   5.462  18.621  0.00  0.00    +0.000 N 
BRANCH  16  17
ATOM     17  C   UNL     1       4.838   5.696  18.412  0.00  0.00    +0.000 A 
ATOM     18  C   UNL     1       5.782   5.267  19.348  0.00  0.00    +0.000 A 
ATOM     19  C   UNL     1       7.132   5.579  19.194  0.00  0.00    +0.000 A 
ATOM     20  C   UNL     1       7.549   6.310  18.088  0.00  0.00    +0.000 A 
ATOM     21  C   UNL     1       6.614   6.744  17.150  0.00  0.00    +0.000 A 
ATOM     22  C   UNL     1       5.256   6.444  17.312  0.00  0.00    +0.000 A 
ENDBRANCH  16  17
BRANCH  16  23
ATOM     23  S   UNL     1       2.763   4.074  17.908  0.00  0.00    +0.000 S 
ATOM     24  O   UNL     1       3.815   3.447  17.129  0.00  0.00    +0.000 OA
ATOM     25  O   UNL     1       1.508   4.408  17.282  0.00  0.00    +0.000 OA
BRANCH  23  27
ATOM     26  C   UNL     1       3.473   2.836  20.232  0.00  0.00    +0.000 C 
ATOM     27  N   UNL     1       2.450   3.061  19.214  0.00  0.00    +0.000 NA
ATOM     28  C   UNL     1       1.065   2.893  19.673  0.00  0.00    +0.000 C 
ENDBRANCH  23  27
ENDBRANCH  16  23
ENDBRANCH   1  16
TORSDOF 6
ENDMDL
MODEL 6
REMARK VINA RESULT:      -7.6      1.490      2.271
REMARK  Name = 
REMARK  8 active torsions:
REMARK  status: ('A' for Active; 'I' for Inactive)
REMARK    1  A    between atoms: C_1  and  N_2
REMARK    2  A    between atoms: N_2  and  C_3
REMARK    3  A    between atoms: N_2  and  S_4
REMARK    4  A    between atoms: S_4  and  N_7
REMARK    5  A    between atoms: N_7  and  C_8
REMARK    6  A    between atoms: N_7  and  C_23
REMARK    7  A    between atoms: C_8  and  C_9
REMARK    8  A    between atoms: N_14  and  C_15
REMARK                            x       y       z     vdW  Elec       q    Type
REMARK                         _______ _______ _______ _____ _____    ______ ____
ROOT
ATOM      1  C   UNL     1       2.425   6.689  18.636  0.00  0.00    +0.000 C 
ENDROOT
BRANCH   1   2
ATOM      2  C   UNL     1       1.820   6.914  20.016  0.00  0.00    +0.000 C 
ATOM      3  O   UNL     1       1.882   6.030  20.874  0.00  0.00    +0.000 OA
ATOM      4  N   UNL     1       1.301   8.170  20.308  0.00  0.00    +0.000 N 
ATOM      5  C   UNL     1       1.109   9.235  19.312  0.00  0.00    +0.000 C 
ATOM      6  C   UNL     1      -0.027  10.193  19.688  0.00  0.00    +0.000 C 
ATOM      7  N   UNL     1       0.160  10.681  21.057  0.00  0.00    +0.000 N 
ATOM      8  C   UNL     1       0.250   9.635  22.083  0.00  0.00    +0.000 C 
ATOM      9  C   UNL     1       1.353   8.624  21.708  0.00  0.00    +0.000 C 
BRANCH   7  10
ATOM     10  C   UNL     1       0.274  12.024  21.341  0.00  0.00    +0.000 A 
ATOM     11  C   UNL     1       1.279  12.813  20.764  0.00  0.00    +0.000 A 
ATOM     12  C   UNL     1       1.414  14.172  21.075  0.00  0.00    +0.000 A 
ATOM     13  C   UNL     1       0.533  14.774  21.964  0.00  0.00    +0.000 A 
ATOM     14  C   UNL     1      -0.482  14.021  22.540  0.00  0.00    +0.000 A 
ATOM     15  C   UNL     1      -0.604  12.664  22.229  0.00  0.00    +0.000 A 
ENDBRANCH   7  10
ENDBRANCH   1   2
BRANCH   1  16
ATOM     16  N   UNL     1       3.354   5.540  18.560  0.00  0.00    +0.000 N 
BRANCH  16  17
ATOM     17  C   UNL     1       4.758   5.832  18.398  0.00  0.00    +0.000 A 
ATOM     18  C   UNL     1       5.204   6.660  17.365  0.00  0.00    +0.000 A 
ATOM     19  C   UNL     1       6.565   6.862  17.149  0.00  0.00    +0.000 A 
ATOM     20  C   UNL     1       7.494   6.246  17.980  0.00  0.00    +0.000 A 
ATOM     21  C   UNL     1       7.060   5.416  19.012  0.00  0.00    +0.000 A 
ATOM     22  C   UNL     1       5.692   5.202  19.220  0.00  0.00    +0.000 A 
ENDBRANCH  16  17
BRANCH  16  23
ATOM     23  S   UNL     1       2.765   4.141  17.801  0.00  0.00    +0.000 S 
ATOM     24  O   UNL     1       3.751   3.743  16.813  0.00  0.00    +0.000 OA
ATOM     25  O   UNL     1       1.394   4.349  17.405  0.00  0.00    +0.000 OA
BRANCH  23  27
ATOM     26  C   UNL     1       1.601   2.731  19.824  0.00  0.00    +0.000 C 
ATOM     27  N   UNL     1       2.793   2.980  19.017  0.00  0.00    +0.000 NA
ATOM     28  C   UNL     1       3.716   1.843  18.900  0.00  0.00    +0.000 C 
ENDBRANCH  23  27
ENDBRANCH  16  23
ENDBRANCH   1  16
TORSDOF 6
ENDMDL
MODEL 7
REMARK VINA RESULT:      -7.6      2.083      3.032
REMARK  Name = 
REMARK  8 active torsions:
REMARK  status: ('A' for Active; 'I' for Inactive)
REMARK    1  A    between atoms: C_1  and  N_2
REMARK    2  A    between atoms: N_2  and  C_3
REMARK    3  A    between atoms: N_2  and  S_4
REMARK    4  A    between atoms: S_4  and  N_7
REMARK    5  A    between atoms: N_7  and  C_8
REMARK    6  A    between atoms: N_7  and  C_23
REMARK    7  A    between atoms: C_8  and  C_9
REMARK    8  A    between atoms: N_14  and  C_15
REMARK                            x       y       z     vdW  Elec       q    Type
REMARK                         _______ _______ _______ _____ _____    ______ ____
ROOT
ATOM      1  C   UNL     1       2.338   6.169  18.254  0.00  0.00    +0.000 C 
ENDROOT
BRANCH   1   2
ATOM      2  C   UNL     1       2.507   7.671  18.072  0.00  0.00    +0.000 C 
ATOM      3  O   UNL     1       3.098   8.116  17.084  0.00  0.00    +0.000 OA
ATOM      4  N   UNL     1       1.886   8.517  18.984  0.00  0.00    +0.000 N 
ATOM      5  C   UNL     1       1.250   8.063  20.229  0.00  0.00    +0.000 C 
ATOM      6  C   UNL     1       1.255   9.141  21.318  0.00  0.00    +0.000 C 
ATOM      7  N   UNL     1       0.708  10.393  20.790  0.00  0.00    +0.000 N 
ATOM      8  C   UNL     1       1.396  10.920  19.605  0.00  0.00    +0.000 C 
ATOM      9  C   UNL     1       1.453   9.840  18.505  0.00  0.00    +0.000 C 
BRANCH   7  10
ATOM     10  C   UNL     1      -0.392  11.001  21.353  0.00  0.00    +0.000 A 
ATOM     11  C   UNL     1      -1.217  11.858  20.610  0.00  0.00    +0.000 A 
ATOM     12  C   UNL     1      -2.318  12.501  21.190  0.00  0.00    +0.000 A 
ATOM     13  C   UNL     1      -2.625  12.287  22.528  0.00  0.00    +0.000 A 
ATOM     14  C   UNL     1      -1.834  11.432  23.285  0.00  0.00    +0.000 A 
ATOM     15  C   UNL     1      -0.733  10.801  22.699  0.00  0.00    +0.000 A 
ENDBRANCH   7  10
ENDBRANCH   1   2
BRANCH   1  16
ATOM     16  N   UNL     1       3.557   5.472  18.721  0.00  0.00    +0.000 N 
BRANCH  16  17
ATOM     17  C   UNL     1       4.675   5.407  17.810  0.00  0.00    +0.000 A 
ATOM     18  C   UNL     1       5.886   6.033  18.115  0.00  0.00    +0.000 A 
ATOM     19  C   UNL     1       6.931   6.054  17.194  0.00  0.00    +0.000 A 
ATOM     20  C   UNL     1       6.775   5.430  15.961  0.00  0.00    +0.000 A 
ATOM     21  C   UNL     1       5.571   4.805  15.646  0.00  0.00    +0.000 A 
ATOM     22  C   UNL     1       4.516   4.796  16.566  0.00  0.00    +0.000 A 
ENDBRANCH  16  17
BRANCH  16  23
ATOM     23  S   UNL     1       3.320   4.141  19.746  0.00  0.00    +0.000 S 
ATOM     24  O   UNL     1       2.708   4.643  20.963  0.00  0.00    +0.000 OA
ATOM     25  O   UNL     1       4.533   3.366  19.820  0.00  0.00    +0.000 OA
BRANCH  23  27
ATOM     26  C   UNL     1       2.555   2.159  18.036  0.00  0.00    +0.000 C 
ATOM     27  N   UNL     1       2.154   3.223  18.953  0.00  0.00    +0.000 NA
ATOM     28  C   UNL     1       0.837   3.045  19.578  0.00  0.00    +0.000 C 
ENDBRANCH  23  27
ENDBRANCH  16  23
ENDBRANCH   1  16
TORSDOF 6
ENDMDL
MODEL 8
REMARK VINA RESULT:      -7.6      2.669      4.629
REMARK  Name = 
REMARK  8 active torsions:
REMARK  status: ('A' for Active; 'I' for Inactive)
REMARK    1  A    between atoms: C_1  and  N_2
REMARK    2  A    between atoms: N_2  and  C_3
REMARK    3  A    between atoms: N_2  and  S_4
REMARK    4  A    between atoms: S_4  and  N_7
REMARK    5  A    between atoms: N_7  and  C_8
REMARK    6  A    between atoms: N_7  and  C_23
REMARK    7  A    between atoms: C_8  and  C_9
REMARK    8  A    between atoms: N_14  and  C_15
REMARK                            x       y       z     vdW  Elec       q    Type
REMARK                         _______ _______ _______ _____ _____    ______ ____
ROOT
ATOM      1  C   UNL     1       2.696   7.392  19.193  0.00  0.00    +0.000 C 
ENDROOT
BRANCH   1   2
ATOM      2  C   UNL     1       2.042   8.520  18.407  0.00  0.00    +0.000 C 
ATOM      3  O   UNL     1       2.123   8.549  17.176  0.00  0.00    +0.000 OA
ATOM      4  N   UNL     1       1.269   9.443  19.102  0.00  0.00    +0.000 N 
ATOM      5  C   UNL     1       1.205   9.527  20.569  0.00  0.00    +0.000 C 
ATOM      6  C   UNL     1       0.875  10.940  21.062  0.00  0.00    +0.000 C 
ATOM      7  N   UNL     1      -0.321  11.443  20.382  0.00  0.00    +0.000 N 
ATOM      8  C   UNL     1      -0.239  11.466  18.917  0.00  0.00    +0.000 C 
ATOM      9  C   UNL     1       0.142  10.067  18.389  0.00  0.00    +0.000 C 
BRANCH   7  10
ATOM     10  C   UNL     1      -1.444  11.832  21.078  0.00  0.00    +0.000 A 
ATOM     11  C   UNL     1      -2.544  12.411  20.431  0.00  0.00    +0.000 A 
ATOM     12  C   UNL     1      -3.675  12.834  21.141  0.00  0.00    +0.000 A 
ATOM     13  C   UNL     1      -3.732  12.673  22.520  0.00  0.00    +0.000 A 
ATOM     14  C   UNL     1      -2.662  12.090  23.187  0.00  0.00    +0.000 A 
ATOM     15  C   UNL     1      -1.536  11.678  22.470  0.00  0.00    +0.000 A 
ENDBRANCH   7  10
ENDBRANCH   1   2
BRANCH   1  16
ATOM     16  N   UNL     1       2.844   6.129  18.436  0.00  0.00    +0.000 N 
BRANCH  16  17
ATOM     17  C   UNL     1       2.145   4.970  18.935  0.00  0.00    +0.000 A 
ATOM     18  C   UNL     1       1.600   4.028  18.059  0.00  0.00    +0.000 A 
ATOM     19  C   UNL     1       0.841   2.962  18.537  0.00  0.00    +0.000 A 
ATOM     20  C   UNL     1       0.634   2.822  19.904  0.00  0.00    +0.000 A 
ATOM     21  C   UNL     1       1.171   3.758  20.787  0.00  0.00    +0.000 A 
ATOM     22  C   UNL     1       1.922   4.836  20.305  0.00  0.00    +0.000 A 
ENDBRANCH  16  17
BRANCH  16  23
ATOM     23  S   UNL     1       4.349   5.863  17.698  0.00  0.00    +0.000 S 
ATOM     24  O   UNL     1       4.980   7.160  17.535  0.00  0.00    +0.000 OA
ATOM     25  O   UNL     1       4.181   4.998  16.558  0.00  0.00    +0.000 OA
BRANCH  23  27
ATOM     26  C   UNL     1       5.087   3.585  19.004  0.00  0.00    +0.000 C 
ATOM     27  N   UNL     1       5.230   5.033  18.866  0.00  0.00    +0.000 NA
ATOM     28  C   UNL     1       6.519   5.578  19.312  0.00  0.00    +0.000 C 
ENDBRANCH  23  27
ENDBRANCH  16  23
ENDBRANCH   1  16
TORSDOF 6
ENDMDL
MODEL 9
REMARK VINA RESULT:      -7.6      1.659      2.306
REMARK  Name = 
REMARK  8 active torsions:
REMARK  status: ('A' for Active; 'I' for Inactive)
REMARK    1  A    between atoms: C_1  and  N_2
REMARK    2  A    between atoms: N_2  and  C_3
REMARK    3  A    between atoms: N_2  and  S_4
REMARK    4  A    between atoms: S_4  and  N_7
REMARK    5  A    between atoms: N_7  and  C_8
REMARK    6  A    between atoms: N_7  and  C_23
REMARK    7  A    between atoms: C_8  and  C_9
REMARK    8  A    between atoms: N_14  and  C_15
REMARK                            x       y       z     vdW  Elec       q    Type
REMARK                         _______ _______ _______ _____ _____    ______ ____
ROOT
ATOM      1  C   UNL     1       2.595   6.892  18.820  0.00  0.00    +0.000 C 
ENDROOT
BRANCH   1   2
ATOM      2  C   UNL     1       1.873   6.986  20.158  0.00  0.00    +0.000 C 
ATOM      3  O   UNL     1       1.933   6.053  20.964  0.00  0.00    +0.000 OA
ATOM      4  N   UNL     1       1.246   8.183  20.484  0.00  0.00    +0.000 N 
ATOM      5  C   UNL     1       1.054   9.296  19.542  0.00  0.00    +0.000 C 
ATOM      6  C   UNL     1      -0.172  10.149  19.884  0.00  0.00    +0.000 C 
ATOM      7  N   UNL     1      -0.125  10.558  21.291  0.00  0.00    +0.000 N 
ATOM      8  C   UNL     1      -0.038   9.454  22.255  0.00  0.00    +0.000 C 
ATOM      9  C   UNL     1       1.160   8.545  21.908  0.00  0.00    +0.000 C 
BRANCH   7  10
ATOM     10  C   UNL     1      -0.128  11.883  21.664  0.00  0.00    +0.000 A 
ATOM     11  C   UNL     1      -0.974  12.358  22.676  0.00  0.00    +0.000 A 
ATOM     12  C   UNL     1      -1.000  13.711  23.035  0.00  0.00    +0.000 A 
ATOM     13  C   UNL     1      -0.166  14.619  22.394  0.00  0.00    +0.000 A 
ATOM     14  C   UNL     1       0.693  14.175  21.397  0.00  0.00    +0.000 A 
ATOM     15  C   UNL     1       0.706  12.824  21.041  0.00  0.00    +0.000 A 
ENDBRANCH   7  10
ENDBRANCH   1   2
BRANCH   1  16
ATOM     16  N   UNL     1       3.478   5.713  18.687  0.00  0.00    +0.000 N 
BRANCH  16  17
ATOM     17  C   UNL     1       4.881   5.958  18.449  0.00  0.00    +0.000 A 
ATOM     18  C   UNL     1       5.304   6.668  17.323  0.00  0.00    +0.000 A 
ATOM     19  C   UNL     1       6.660   6.819  17.042  0.00  0.00    +0.000 A 
ATOM     20  C   UNL     1       7.607   6.271  17.900  0.00  0.00    +0.000 A 
ATOM     21  C   UNL     1       7.195   5.560  19.025  0.00  0.00    +0.000 A 
ATOM     22  C   UNL     1       5.832   5.396  19.299  0.00  0.00    +0.000 A 
ENDBRANCH  16  17
BRANCH  16  23
ATOM     23  S   UNL     1       2.800   4.341  17.954  0.00  0.00    +0.000 S 
ATOM     24  O   UNL     1       3.790   3.816  17.032  0.00  0.00    +0.000 OA
ATOM     25  O   UNL     1       1.473   4.652  17.483  0.00  0.00    +0.000 OA
BRANCH  23  27
ATOM     26  C   UNL     1       1.388   2.590  19.496  0.00  0.00    +0.000 C 
ATOM     27  N   UNL     1       2.668   3.235  19.214  0.00  0.00    +0.000 NA
ATOM     28  C   UNL     1       3.854   2.471  19.623  0.00  0.00    +0.000 C 
ENDBRANCH  23  27
ENDBRANCH  16  23
ENDBRANCH   1  16
TORSDOF 6
ENDMDL
