MODEL 1
REMARK VINA RESULT:      -9.3      0.000      0.000
REMARK  Name = 
REMARK  5 active torsions:
REMARK  status: ('A' for Active; 'I' for Inactive)
REMARK    1  A    between atoms: C_1  and  C_2
REMARK    2  A    between atoms: C_6  and  C_7
REMARK    3  A    between atoms: C_10  and  C_11
REMARK    4  A    between atoms: C_21  and  C_22
REMARK    5  A    between atoms: C_23  and  C_24
REMARK                            x       y       z     vdW  Elec       q    Type
REMARK                         _______ _______ _______ _____ _____    ______ ____
ROOT
ATOM      1  C   UNL     1       3.631   1.394  18.697  0.00  0.00    +0.000 C 
ATOM      2  C   UNL     1       2.751   2.435  19.331  0.00  0.00    +0.000 A 
ATOM      3  N   UNL     1       1.867   1.963  20.247  0.00  0.00    +0.000 NA
ATOM      4  C   UNL     1       1.091   2.859  20.880  0.00  0.00    +0.000 A 
ATOM      5  C   UNL     1       1.174   4.224  20.670  0.00  0.00    +0.000 A 
ATOM      6  C   UNL     1       2.063   4.735  19.706  0.00  0.00    +0.000 A 
ATOM      7  C   UNL     1       2.862   3.796  19.004  0.00  0.00    +0.000 A 
ENDROOT
BRANCH   6   8
ATOM      8  C   UNL     1       2.072   6.197  19.431  0.00  0.00    +0.000 A 
ATOM      9  C   UNL     1       1.849   7.136  20.447  0.00  0.00    +0.000 A 
ATOM     10  C   UNL     1       1.739   8.493  20.153  0.00  0.00    +0.000 A 
ATOM     11  C   UNL     1       1.843   8.903  18.829  0.00  0.00    +0.000 A 
ATOM     12  N   UNL     1       2.111   8.042  17.822  0.00  0.00    +0.000 NA
ATOM     13  C   UNL     1       2.258   6.736  18.156  0.00  0.00    +0.000 A 
BRANCH  11  14
ATOM     14  C   UNL     1       1.566  10.339  18.521  0.00  0.00    +0.000 C 
ATOM     15  O   UNL     1       2.422  10.933  17.858  0.00  0.00    +0.000 OA
ATOM     16  N   UNL     1       0.390  10.972  18.932  0.00  0.00    +0.000 N 
ATOM     17  C   UNL     1       0.166  12.353  18.512  0.00  0.00    +0.000 C 
ATOM     18  C   UNL     1      -0.129  13.245  19.714  0.00  0.00    +0.000 C 
ATOM     19  C   UNL     1      -1.259  12.672  20.570  0.00  0.00    +0.000 C 
ATOM     20  C   UNL     1      -0.981  11.216  20.943  0.00  0.00    +0.000 C 
ATOM     21  C   UNL     1      -0.717  10.385  19.689  0.00  0.00    +0.000 C 
ENDBRANCH  11  14
ENDBRANCH   6   8
BRANCH   7  22
ATOM     22  C   UNL     1       3.738   4.190  17.930  0.00  0.00    +0.000 C 
ATOM     23  C   UNL     1       4.509   4.472  17.048  0.00  0.00    +0.000 C 
BRANCH  23  24
ATOM     24  C   UNL     1       5.476   4.737  16.028  0.00  0.00    +0.000 A 
ATOM     25  C   UNL     1       5.341   4.213  14.746  0.00  0.00    +0.000 A 
ATOM     26  C   UNL     1       6.323   4.468  13.793  0.00  0.00    +0.000 A 
ATOM     27  C   UNL     1       7.421   5.239  14.149  0.00  0.00    +0.000 A 
ATOM     28  N   UNL     1       8.415   5.525  13.220  0.00  0.00    +0.000 N 
ATOM     29  N   UNL     1       7.564   5.776  15.375  0.00  0.00    +0.000 NA
ATOM     30  C   UNL     1       6.595   5.510  16.286  0.00  0.00    +0.000 A 
ATOM     31  H   UNL     1       8.786   4.679  12.802  0.00  0.00    +0.000 HD
ATOM     32  H   UNL     1       9.137   6.048  13.710  0.00  0.00    +0.000 HD
ENDBRANCH  23  24
ENDBRANCH   7  22
TORSDOF 4
ENDMDL
MODEL 2
REMARK VINA RESULT:      -8.8      0.899      1.158
REMARK  Name = 
REMARK  5 active torsions:
REMARK  status: ('A' for Active; 'I' for Inactive)
REMARK    1  A    between atoms: C_1  and  C_2
REMARK    2  A    between atoms: C_6  and  C_7
REMARK    3  A    between atoms: C_10  and  C_11
REMARK    4  A    between atoms: C_21  and  C_22
REMARK    5  A    between atoms: C_23  and  C_24
REMARK                            x       y       z     vdW  Elec       q    Type
REMARK                         _______ _______ _______ _____ _____    ______ ____
ROOT
ATOM      1  C   UNL     1       4.519   1.690  19.665  0.00  0.00    +0.000 C 
ATOM      2  C   UNL     1       3.446   2.624  20.151  0.00  0.00    +0.000 A 
ATOM      3  N   UNL     1       2.656   2.132  21.140  0.00  0.00    +0.000 NA
ATOM      4  C   UNL     1       1.714   2.946  21.644  0.00  0.00    +0.000 A 
ATOM      5  C   UNL     1       1.535   4.255  21.233  0.00  0.00    +0.000 A 
ATOM      6  C   UNL     1       2.324   4.779  20.191  0.00  0.00    +0.000 A 
ATOM      7  C   UNL     1       3.299   3.918  19.625  0.00  0.00    +0.000 A 
ENDROOT
BRANCH   6   8
ATOM      8  C   UNL     1       2.055   6.158  19.703  0.00  0.00    +0.000 A 
ATOM      9  C   UNL     1       2.220   6.504  18.354  0.00  0.00    +0.000 A 
ATOM     10  C   UNL     1       2.083   7.826  17.935  0.00  0.00    +0.000 A 
ATOM     11  C   UNL     1       1.789   8.802  18.880  0.00  0.00    +0.000 A 
ATOM     12  N   UNL     1       1.569   8.509  20.181  0.00  0.00    +0.000 NA
ATOM     13  C   UNL     1       1.664   7.206  20.540  0.00  0.00    +0.000 A 
BRANCH  11  14
ATOM     14  C   UNL     1       1.802  10.228  18.434  0.00  0.00    +0.000 C 
ATOM     15  O   UNL     1       2.583  10.511  17.519  0.00  0.00    +0.000 OA
ATOM     16  N   UNL     1       0.955  11.188  18.995  0.00  0.00    +0.000 N 
ATOM     17  C   UNL     1       0.977  12.538  18.437  0.00  0.00    +0.000 C 
ATOM     18  C   UNL     1       1.217  13.574  19.532  0.00  0.00    +0.000 C 
ATOM     19  C   UNL     1       0.232  13.403  20.689  0.00  0.00    +0.000 C 
ATOM     20  C   UNL     1       0.233  11.963  21.200  0.00  0.00    +0.000 C 
ATOM     21  C   UNL     1      -0.035  10.989  20.054  0.00  0.00    +0.000 C 
ENDBRANCH  11  14
ENDBRANCH   6   8
BRANCH   7  22
ATOM     22  C   UNL     1       4.097   4.310  18.492  0.00  0.00    +0.000 C 
ATOM     23  C   UNL     1       4.781   4.576  17.536  0.00  0.00    +0.000 C 
BRANCH  23  24
ATOM     24  C   UNL     1       5.611   4.804  16.394  0.00  0.00    +0.000 A 
ATOM     25  C   UNL     1       5.316   4.238  15.157  0.00  0.00    +0.000 A 
ATOM     26  C   UNL     1       6.169   4.458  14.079  0.00  0.00    +0.000 A 
ATOM     27  C   UNL     1       7.302   5.237  14.268  0.00  0.00    +0.000 A 
ATOM     28  N   UNL     1       8.171   5.489  13.212  0.00  0.00    +0.000 N 
ATOM     29  N   UNL     1       7.599   5.814  15.448  0.00  0.00    +0.000 NA
ATOM     30  C   UNL     1       6.753   5.582  16.482  0.00  0.00    +0.000 A 
ATOM     31  H   UNL     1       8.487   4.629  12.778  0.00  0.00    +0.000 HD
ATOM     32  H   UNL     1       8.948   6.025  13.589  0.00  0.00    +0.000 HD
ENDBRANCH  23  24
ENDBRANCH   7  22
TORSDOF 4
ENDMDL
MODEL 3
REMARK VINA RESULT:      -8.0      7.632      9.470
REMARK  Name = 
REMARK  5 active torsions:
REMARK  status: ('A' for Active; 'I' for Inactive)
REMARK    1  A    between atoms: C_1  and  C_2
REMARK    2  A    between atoms: C_6  and  C_7
REMARK    3  A    between atoms: C_10  and  C_11
REMARK    4  A    between atoms: C_21  and  C_22
REMARK    5  A    between atoms: C_23  and  C_24
REMARK                            x       y       z     vdW  Elec       q    Type
REMARK                         _______ _______ _______ _____ _____    ______ ____
ROOT
ATOM      1  C   UNL     1      11.477  11.811  17.363  0.00  0.00    +0.000 C 
ATOM      2  C   UNL     1      11.153  12.532  18.642  0.00  0.00    +0.000 A 
ATOM      3  N   UNL     1      11.911  13.630  18.894  0.00  0.00    +0.000 NA
ATOM      4  C   UNL     1      11.629  14.338  20.000  0.00  0.00    +0.000 A 
ATOM      5  C   UNL     1      10.594  14.027  20.864  0.00  0.00    +0.000 A 
ATOM      6  C   UNL     1       9.811  12.878  20.639  0.00  0.00    +0.000 A 
ATOM      7  C   UNL     1      10.123  12.101  19.494  0.00  0.00    +0.000 A 
ENDROOT
BRANCH   6   8
ATOM      8  C   UNL     1       8.763  12.511  21.628  0.00  0.00    +0.000 A 
ATOM      9  C   UNL     1       7.600  13.278  21.783  0.00  0.00    +0.000 A 
ATOM     10  C   UNL     1       6.687  12.991  22.796  0.00  0.00    +0.000 A 
ATOM     11  C   UNL     1       6.953  11.936  23.660  0.00  0.00    +0.000 A 
ATOM     12  N   UNL     1       8.033  11.136  23.517  0.00  0.00    +0.000 NA
ATOM     13  C   UNL     1       8.872  11.418  22.490  0.00  0.00    +0.000 A 
BRANCH  11  14
ATOM     14  C   UNL     1       6.041  11.747  24.829  0.00  0.00    +0.000 C 
ATOM     15  O   UNL     1       5.134  10.920  24.691  0.00  0.00    +0.000 OA
ATOM     16  N   UNL     1       6.220  12.443  26.028  0.00  0.00    +0.000 N 
ATOM     17  C   UNL     1       5.332  12.132  27.146  0.00  0.00    +0.000 C 
ATOM     18  C   UNL     1       4.670  13.397  27.682  0.00  0.00    +0.000 C 
ATOM     19  C   UNL     1       5.704  14.476  28.002  0.00  0.00    +0.000 C 
ATOM     20  C   UNL     1       6.622  14.727  26.806  0.00  0.00    +0.000 C 
ATOM     21  C   UNL     1       7.263  13.421  26.341  0.00  0.00    +0.000 C 
ENDBRANCH  11  14
ENDBRANCH   6   8
BRANCH   7  22
ATOM     22  C   UNL     1       9.456  10.855  19.212  0.00  0.00    +0.000 C 
ATOM     23  C   UNL     1       8.922   9.816  18.918  0.00  0.00    +0.000 C 
BRANCH  23  24
ATOM     24  C   UNL     1       8.326   8.589  18.487  0.00  0.00    +0.000 A 
ATOM     25  C   UNL     1       8.509   7.404  19.195  0.00  0.00    +0.000 A 
ATOM     26  C   UNL     1       7.939   6.226  18.721  0.00  0.00    +0.000 A 
ATOM     27  C   UNL     1       7.204   6.262  17.545  0.00  0.00    +0.000 A 
ATOM     28  N   UNL     1       6.610   5.107  17.048  0.00  0.00    +0.000 N 
ATOM     29  N   UNL     1       6.993   7.397  16.854  0.00  0.00    +0.000 NA
ATOM     30  C   UNL     1       7.561   8.531  17.335  0.00  0.00    +0.000 A 
ATOM     31  H   UNL     1       7.286   4.360  16.937  0.00  0.00    +0.000 HD
ATOM     32  H   UNL     1       6.177   5.354  16.161  0.00  0.00    +0.000 HD
ENDBRANCH  23  24
ENDBRANCH   7  22
TORSDOF 4
ENDMDL
MODEL 4
REMARK VINA RESULT:      -8.0      3.288      8.907
REMARK  Name = 
REMARK  5 active torsions:
REMARK  status: ('A' for Active; 'I' for Inactive)
REMARK    1  A    between atoms: C_1  and  C_2
REMARK    2  A    between atoms: C_6  and  C_7
REMARK    3  A    between atoms: C_10  and  C_11
REMARK    4  A    between atoms: C_21  and  C_22
REMARK    5  A    between atoms: C_23  and  C_24
REMARK                            x       y       z     vdW  Elec       q    Type
REMARK                         _______ _______ _______ _____ _____    ______ ____
ROOT
ATOM      1  C   UNL     1      -3.910  13.244  20.580  0.00  0.00    +0.000 C 
ATOM      2  C   UNL     1      -2.688  12.676  21.247  0.00  0.00    +0.000 A 
ATOM      3  N   UNL     1      -2.463  13.116  22.512  0.00  0.00    +0.000 NA
ATOM      4  C   UNL     1      -1.412  12.601  23.170  0.00  0.00    +0.000 A 
ATOM      5  C   UNL     1      -0.580  11.630  22.641  0.00  0.00    +0.000 A 
ATOM      6  C   UNL     1      -0.777  11.176  21.323  0.00  0.00    +0.000 A 
ATOM      7  C   UNL     1      -1.862  11.740  20.603  0.00  0.00    +0.000 A 
ENDROOT
BRANCH   6   8
ATOM      8  C   UNL     1       0.182  10.200  20.742  0.00  0.00    +0.000 A 
ATOM      9  C   UNL     1       0.677  10.344  19.438  0.00  0.00    +0.000 A 
ATOM     10  C   UNL     1       1.477   9.357  18.866  0.00  0.00    +0.000 A 
ATOM     11  C   UNL     1       1.770   8.218  19.607  0.00  0.00    +0.000 A 
ATOM     12  N   UNL     1       1.361   8.059  20.885  0.00  0.00    +0.000 NA
ATOM     13  C   UNL     1       0.625   9.063  21.422  0.00  0.00    +0.000 A 
BRANCH  11  14
ATOM     14  C   UNL     1       2.497   7.109  18.918  0.00  0.00    +0.000 C 
ATOM     15  O   UNL     1       3.130   7.414  17.902  0.00  0.00    +0.000 OA
ATOM     16  N   UNL     1       2.491   5.800  19.410  0.00  0.00    +0.000 N 
ATOM     17  C   UNL     1       3.299   4.799  18.719  0.00  0.00    +0.000 C 
ATOM     18  C   UNL     1       2.454   3.586  18.341  0.00  0.00    +0.000 C 
ATOM     19  C   UNL     1       1.695   3.036  19.548  0.00  0.00    +0.000 C 
ATOM     20  C   UNL     1       0.901   4.140  20.246  0.00  0.00    +0.000 C 
ATOM     21  C   UNL     1       1.817   5.307  20.612  0.00  0.00    +0.000 C 
ENDBRANCH  11  14
ENDBRANCH   6   8
BRANCH   7  22
ATOM     22  C   UNL     1      -2.105  11.426  19.218  0.00  0.00    +0.000 C 
ATOM     23  C   UNL     1      -2.365  11.142  18.077  0.00  0.00    +0.000 C 
BRANCH  23  24
ATOM     24  C   UNL     1      -2.756  10.779  16.750  0.00  0.00    +0.000 A 
ATOM     25  C   UNL     1      -2.148   9.723  16.077  0.00  0.00    +0.000 A 
ATOM     26  C   UNL     1      -2.536   9.424  14.774  0.00  0.00    +0.000 A 
ATOM     27  C   UNL     1      -3.521  10.197  14.173  0.00  0.00    +0.000 A 
ATOM     28  N   UNL     1      -3.942   9.921  12.877  0.00  0.00    +0.000 N 
ATOM     29  N   UNL     1      -4.139  11.209  14.809  0.00  0.00    +0.000 NA
ATOM     30  C   UNL     1      -3.742  11.480  16.077  0.00  0.00    +0.000 A 
ATOM     31  H   UNL     1      -3.163   9.901  12.229  0.00  0.00    +0.000 HD
ATOM     32  H   UNL     1      -4.619  10.638  12.626  0.00  0.00    +0.000 HD
ENDBRANCH  23  24
ENDBRANCH   7  22
TORSDOF 4
ENDMDL
MODEL 5
REMARK VINA RESULT:      -7.8      3.299      8.868
REMARK  Name = 
REMARK  5 active torsions:
REMARK  status: ('A' for Active; 'I' for Inactive)
REMARK    1  A    between atoms: C_1  and  C_2
REMARK    2  A    between atoms: C_6  and  C_7
REMARK    3  A    between atoms: C_10  and  C_11
REMARK    4  A    between atoms: C_21  and  C_22
REMARK    5  A    between atoms: C_23  and  C_24
REMARK                            x       y       z     vdW  Elec       q    Type
REMARK                         _______ _______ _______ _____ _____    ______ ____
ROOT
ATOM      1  C   UNL     1      -0.643  15.480  22.542  0.00  0.00    +0.000 C 
ATOM      2  C   UNL     1      -0.968  14.018  22.670  0.00  0.00    +0.000 A 
ATOM      3  N   UNL     1      -1.972  13.723  23.535  0.00  0.00    +0.000 NA
ATOM      4  C   UNL     1      -2.335  12.435  23.649  0.00  0.00    +0.000 A 
ATOM      5  C   UNL     1      -1.766  11.412  22.911  0.00  0.00    +0.000 A 
ATOM      6  C   UNL     1      -0.706  11.689  22.027  0.00  0.00    +0.000 A 
ATOM      7  C   UNL     1      -0.288  13.041  21.925  0.00  0.00    +0.000 A 
ENDROOT
BRANCH   6   8
ATOM      8  C   UNL     1      -0.048  10.563  21.311  0.00  0.00    +0.000 A 
ATOM      9  C   UNL     1       0.774   9.647  21.982  0.00  0.00    +0.000 A 
ATOM     10  C   UNL     1       1.479   8.673  21.279  0.00  0.00    +0.000 A 
ATOM     11  C   UNL     1       1.364   8.630  19.894  0.00  0.00    +0.000 A 
ATOM     12  N   UNL     1       0.544   9.457  19.209  0.00  0.00    +0.000 NA
ATOM     13  C   UNL     1      -0.162  10.359  19.934  0.00  0.00    +0.000 A 
BRANCH  11  14
ATOM     14  C   UNL     1       2.249   7.682  19.152  0.00  0.00    +0.000 C 
ATOM     15  O   UNL     1       2.861   8.145  18.184  0.00  0.00    +0.000 OA
ATOM     16  N   UNL     1       2.402   6.349  19.544  0.00  0.00    +0.000 N 
ATOM     17  C   UNL     1       3.352   5.518  18.810  0.00  0.00    +0.000 C 
ATOM     18  C   UNL     1       2.685   4.240  18.312  0.00  0.00    +0.000 C 
ATOM     19  C   UNL     1       1.973   3.503  19.446  0.00  0.00    +0.000 C 
ATOM     20  C   UNL     1       1.023   4.436  20.196  0.00  0.00    +0.000 C 
ATOM     21  C   UNL     1       1.767   5.679  20.680  0.00  0.00    +0.000 C 
ENDBRANCH  11  14
ENDBRANCH   6   8
BRANCH   7  22
ATOM     22  C   UNL     1       0.847  13.431  21.128  0.00  0.00    +0.000 C 
ATOM     23  C   UNL     1       1.824  13.777  20.514  0.00  0.00    +0.000 C 
BRANCH  23  24
ATOM     24  C   UNL     1       3.021  14.215  19.865  0.00  0.00    +0.000 A 
ATOM     25  C   UNL     1       3.152  14.177  18.480  0.00  0.00    +0.000 A 
ATOM     26  C   UNL     1       4.348  14.580  17.891  0.00  0.00    +0.000 A 
ATOM     27  C   UNL     1       5.387  15.007  18.707  0.00  0.00    +0.000 A 
ATOM     28  N   UNL     1       6.591  15.429  18.154  0.00  0.00    +0.000 N 
ATOM     29  N   UNL     1       5.278  15.074  20.046  0.00  0.00    +0.000 NA
ATOM     30  C   UNL     1       4.105  14.673  20.595  0.00  0.00    +0.000 A 
ATOM     31  H   UNL     1       6.984  14.725  17.538  0.00  0.00    +0.000 HD
ATOM     32  H   UNL     1       7.215  15.638  18.929  0.00  0.00    +0.000 HD
ENDBRANCH  23  24
ENDBRANCH   7  22
TORSDOF 4
ENDMDL
MODEL 6
REMARK VINA RESULT:      -7.7      3.311      8.802
REMARK  Name = 
REMARK  5 active torsions:
REMARK  status: ('A' for Active; 'I' for Inactive)
REMARK    1  A    between atoms: C_1  and  C_2
REMARK    2  A    between atoms: C_6  and  C_7
REMARK    3  A    between atoms: C_10  and  C_11
REMARK    4  A    between atoms: C_21  and  C_22
REMARK    5  A    between atoms: C_23  and  C_24
REMARK                            x       y       z     vdW  Elec       q    Type
REMARK                         _______ _______ _______ _____ _____    ______ ____
ROOT
ATOM      1  C   UNL     1      -0.732  15.039  22.641  0.00  0.00    +0.000 C 
ATOM      2  C   UNL     1      -0.908  13.547  22.615  0.00  0.00    +0.000 A 
ATOM      3  N   UNL     1      -1.934  13.073  23.368  0.00  0.00    +0.000 NA
ATOM      4  C   UNL     1      -2.165  11.750  23.340  0.00  0.00    +0.000 A 
ATOM      5  C   UNL     1      -1.439  10.864  22.563  0.00  0.00    +0.000 A 
ATOM      6  C   UNL     1      -0.355  11.327  21.795  0.00  0.00    +0.000 A 
ATOM      7  C   UNL     1      -0.077  12.717  21.844  0.00  0.00    +0.000 A 
ENDROOT
BRANCH   6   8
ATOM      8  C   UNL     1       0.468  10.346  21.038  0.00  0.00    +0.000 A 
ATOM      9  C   UNL     1       0.595  10.415  19.644  0.00  0.00    +0.000 A 
ATOM     10  C   UNL     1       1.268   9.419  18.938  0.00  0.00    +0.000 A 
ATOM     11  C   UNL     1       1.805   8.347  19.640  0.00  0.00    +0.000 A 
ATOM     12  N   UNL     1       1.755   8.263  20.988  0.00  0.00    +0.000 NA
ATOM     13  C   UNL     1       1.133   9.276  21.641  0.00  0.00    +0.000 A 
BRANCH  11  14
ATOM     14  C   UNL     1       2.383   7.217  18.850  0.00  0.00    +0.000 C 
ATOM     15  O   UNL     1       2.892   7.512  17.764  0.00  0.00    +0.000 OA
ATOM     16  N   UNL     1       2.377   5.902  19.323  0.00  0.00    +0.000 N 
ATOM     17  C   UNL     1       3.040   4.878  18.521  0.00  0.00    +0.000 C 
ATOM     18  C   UNL     1       2.097   3.712  18.240  0.00  0.00    +0.000 C 
ATOM     19  C   UNL     1       1.474   3.175  19.529  0.00  0.00    +0.000 C 
ATOM     20  C   UNL     1       0.830   4.302  20.338  0.00  0.00    +0.000 C 
ATOM     21  C   UNL     1       1.840   5.418  20.595  0.00  0.00    +0.000 C 
ENDBRANCH  11  14
ENDBRANCH   6   8
BRANCH   7  22
ATOM     22  C   UNL     1       1.064  13.292  21.178  0.00  0.00    +0.000 C 
ATOM     23  C   UNL     1       2.051  13.721  20.637  0.00  0.00    +0.000 C 
BRANCH  23  24
ATOM     24  C   UNL     1       3.266  14.154  20.019  0.00  0.00    +0.000 A 
ATOM     25  C   UNL     1       4.330  14.645  20.770  0.00  0.00    +0.000 A 
ATOM     26  C   UNL     1       5.481  15.087  20.125  0.00  0.00    +0.000 A 
ATOM     27  C   UNL     1       5.536  15.033  18.739  0.00  0.00    +0.000 A 
ATOM     28  N   UNL     1       6.675  15.454  18.060  0.00  0.00    +0.000 N 
ATOM     29  N   UNL     1       4.531  14.543  17.990  0.00  0.00    +0.000 NA
ATOM     30  C   UNL     1       3.420  14.120  18.643  0.00  0.00    +0.000 A 
ATOM     31  H   UNL     1       6.931  16.401  18.317  0.00  0.00    +0.000 HD
ATOM     32  H   UNL     1       6.472  15.379  17.066  0.00  0.00    +0.000 HD
ENDBRANCH  23  24
ENDBRANCH   7  22
TORSDOF 4
ENDMDL
MODEL 7
REMARK VINA RESULT:      -7.6      3.342      8.778
REMARK  Name = 
REMARK  5 active torsions:
REMARK  status: ('A' for Active; 'I' for Inactive)
REMARK    1  A    between atoms: C_1  and  C_2
REMARK    2  A    between atoms: C_6  and  C_7
REMARK    3  A    between atoms: C_10  and  C_11
REMARK    4  A    between atoms: C_21  and  C_22
REMARK    5  A    between atoms: C_23  and  C_24
REMARK                            x       y       z     vdW  Elec       q    Type
REMARK                         _______ _______ _______ _____ _____    ______ ____
ROOT
ATOM      1  C   UNL     1      -0.975  14.913  19.480  0.00  0.00    +0.000 C 
ATOM      2  C   UNL     1      -1.223  13.431  19.458  0.00  0.00    +0.000 A 
ATOM      3  N   UNL     1      -2.527  13.062  19.541  0.00  0.00    +0.000 NA
ATOM      4  C   UNL     1      -2.806  11.749  19.475  0.00  0.00    +0.000 A 
ATOM      5  C   UNL     1      -1.843  10.772  19.293  0.00  0.00    +0.000 A 
ATOM      6  C   UNL     1      -0.482  11.127  19.231  0.00  0.00    +0.000 A 
ATOM      7  C   UNL     1      -0.171  12.507  19.336  0.00  0.00    +0.000 A 
ENDROOT
BRANCH   6   8
ATOM      8  C   UNL     1       0.542  10.054  19.126  0.00  0.00    +0.000 A 
ATOM      9  C   UNL     1       1.075   9.666  17.888  0.00  0.00    +0.000 A 
ATOM     10  C   UNL     1       1.941   8.579  17.794  0.00  0.00    +0.000 A 
ATOM     11  C   UNL     1       2.263   7.876  18.949  0.00  0.00    +0.000 A 
ATOM     12  N   UNL     1       1.817   8.244  20.171  0.00  0.00    +0.000 NA
ATOM     13  C   UNL     1       1.015   9.336  20.226  0.00  0.00    +0.000 A 
BRANCH  11  14
ATOM     14  C   UNL     1       3.066   6.624  18.800  0.00  0.00    +0.000 C 
ATOM     15  O   UNL     1       3.983   6.655  17.973  0.00  0.00    +0.000 OA
ATOM     16  N   UNL     1       2.817   5.487  19.574  0.00  0.00    +0.000 N 
ATOM     17  C   UNL     1       3.707   4.339  19.421  0.00  0.00    +0.000 C 
ATOM     18  C   UNL     1       2.912   3.072  19.120  0.00  0.00    +0.000 C 
ATOM     19  C   UNL     1       1.800   2.854  20.146  0.00  0.00    +0.000 C 
ATOM     20  C   UNL     1       0.929   4.103  20.285  0.00  0.00    +0.000 C 
ATOM     21  C   UNL     1       1.792   5.322  20.606  0.00  0.00    +0.000 C 
ENDBRANCH  11  14
ENDBRANCH   6   8
BRANCH   7  22
ATOM     22  C   UNL     1       1.188  12.982  19.382  0.00  0.00    +0.000 C 
ATOM     23  C   UNL     1       2.302  13.439  19.423  0.00  0.00    +0.000 C 
BRANCH  23  24
ATOM     24  C   UNL     1       3.588  14.063  19.478  0.00  0.00    +0.000 A 
ATOM     25  C   UNL     1       4.292  14.381  18.320  0.00  0.00    +0.000 A 
ATOM     26  C   UNL     1       5.555  14.958  18.421  0.00  0.00    +0.000 A 
ATOM     27  C   UNL     1       6.086  15.196  19.681  0.00  0.00    +0.000 A 
ATOM     28  N   UNL     1       7.340  15.781  19.820  0.00  0.00    +0.000 N 
ATOM     29  N   UNL     1       5.418  14.918  20.815  0.00  0.00    +0.000 NA
ATOM     30  C   UNL     1       4.190  14.355  20.690  0.00  0.00    +0.000 A 
ATOM     31  H   UNL     1       8.048  15.269  19.306  0.00  0.00    +0.000 HD
ATOM     32  H   UNL     1       7.546  15.807  20.816  0.00  0.00    +0.000 HD
ENDBRANCH  23  24
ENDBRANCH   7  22
TORSDOF 4
ENDMDL
MODEL 8
REMARK VINA RESULT:      -7.5      3.269      8.788
REMARK  Name = 
REMARK  5 active torsions:
REMARK  status: ('A' for Active; 'I' for Inactive)
REMARK    1  A    between atoms: C_1  and  C_2
REMARK    2  A    between atoms: C_6  and  C_7
REMARK    3  A    between atoms: C_10  and  C_11
REMARK    4  A    between atoms: C_21  and  C_22
REMARK    5  A    between atoms: C_23  and  C_24
REMARK                            x       y       z     vdW  Elec       q    Type
REMARK                         _______ _______ _______ _____ _____    ______ ____
ROOT
ATOM      1  C   UNL     1      -3.382  12.938  20.235  0.00  0.00    +0.000 C 
ATOM      2  C   UNL     1      -2.161  12.277  20.813  0.00  0.00    +0.000 A 
ATOM      3  N   UNL     1      -1.811  12.698  22.056  0.00  0.00    +0.000 NA
ATOM      4  C   UNL     1      -0.757  12.103  22.638  0.00  0.00    +0.000 A 
ATOM      5  C   UNL     1      -0.042  11.072  22.053  0.00  0.00    +0.000 A 
ATOM      6  C   UNL     1      -0.369  10.637  20.755  0.00  0.00    +0.000 A 
ATOM      7  C   UNL     1      -1.458  11.283  20.114  0.00  0.00    +0.000 A 
ENDROOT
BRANCH   6   8
ATOM      8  C   UNL     1       0.468   9.591  20.110  0.00  0.00    +0.000 A 
ATOM      9  C   UNL     1       0.946   8.487  20.829  0.00  0.00    +0.000 A 
ATOM     10  C   UNL     1       1.828   7.581  20.243  0.00  0.00    +0.000 A 
ATOM     11  C   UNL     1       2.237   7.796  18.932  0.00  0.00    +0.000 A 
ATOM     12  N   UNL     1       1.763   8.815  18.182  0.00  0.00    +0.000 NA
ATOM     13  C   UNL     1       0.870   9.647  18.773  0.00  0.00    +0.000 A 
BRANCH  11  14
ATOM     14  C   UNL     1       3.300   6.903  18.380  0.00  0.00    +0.000 C 
ATOM     15  O   UNL     1       4.283   7.462  17.881  0.00  0.00    +0.000 OA
ATOM     16  N   UNL     1       3.208   5.510  18.449  0.00  0.00    +0.000 N 
ATOM     17  C   UNL     1       4.334   4.719  17.960  0.00  0.00    +0.000 C 
ATOM     18  C   UNL     1       3.870   3.690  16.933  0.00  0.00    +0.000 C 
ATOM     19  C   UNL     1       2.714   2.846  17.472  0.00  0.00    +0.000 C 
ATOM     20  C   UNL     1       1.588   3.733  18.001  0.00  0.00    +0.000 C 
ATOM     21  C   UNL     1       2.125   4.720  19.036  0.00  0.00    +0.000 C 
ENDBRANCH  11  14
ENDBRANCH   6   8
BRANCH   7  22
ATOM     22  C   UNL     1      -1.824  10.990  18.752  0.00  0.00    +0.000 C 
ATOM     23  C   UNL     1      -2.191  10.759  17.628  0.00  0.00    +0.000 C 
BRANCH  23  24
ATOM     24  C   UNL     1      -2.710  10.508  16.319  0.00  0.00    +0.000 A 
ATOM     25  C   UNL     1      -2.173   9.517  15.502  0.00  0.00    +0.000 A 
ATOM     26  C   UNL     1      -2.687   9.329  14.222  0.00  0.00    +0.000 A 
ATOM     27  C   UNL     1      -3.723  10.145  13.788  0.00  0.00    +0.000 A 
ATOM     28  N   UNL     1      -4.269   9.978  12.520  0.00  0.00    +0.000 N 
ATOM     29  N   UNL     1      -4.274  11.095  14.566  0.00  0.00    +0.000 NA
ATOM     30  C   UNL     1      -3.754  11.259  15.807  0.00  0.00    +0.000 A 
ATOM     31  H   UNL     1      -3.557  10.019  11.800  0.00  0.00    +0.000 HD
ATOM     32  H   UNL     1      -4.965  10.710  12.399  0.00  0.00    +0.000 HD
ENDBRANCH  23  24
ENDBRANCH   7  22
TORSDOF 4
ENDMDL
MODEL 9
REMARK VINA RESULT:      -7.5      9.012     10.845
REMARK  Name = 
REMARK  5 active torsions:
REMARK  status: ('A' for Active; 'I' for Inactive)
REMARK    1  A    between atoms: C_1  and  C_2
REMARK    2  A    between atoms: C_6  and  C_7
REMARK    3  A    between atoms: C_10  and  C_11
REMARK    4  A    between atoms: C_21  and  C_22
REMARK    5  A    between atoms: C_23  and  C_24
REMARK                            x       y       z     vdW  Elec       q    Type
REMARK                         _______ _______ _______ _____ _____    ______ ____
ROOT
ATOM      1  C   UNL     1      12.126  12.215  19.960  0.00  0.00    +0.000 C 
ATOM      2  C   UNL     1      11.520  13.195  18.995  0.00  0.00    +0.000 A 
ATOM      3  N   UNL     1      12.333  13.585  17.980  0.00  0.00    +0.000 NA
ATOM      4  C   UNL     1      11.823  14.422  17.062  0.00  0.00    +0.000 A 
ATOM      5  C   UNL     1      10.514  14.872  17.082  0.00  0.00    +0.000 A 
ATOM      6  C   UNL     1       9.660  14.504  18.138  0.00  0.00    +0.000 A 
ATOM      7  C   UNL     1      10.198  13.649  19.135  0.00  0.00    +0.000 A 
ENDROOT
BRANCH   6   8
ATOM      8  C   UNL     1       8.286  15.071  18.190  0.00  0.00    +0.000 A 
ATOM      9  C   UNL     1       8.021  16.296  18.819  0.00  0.00    +0.000 A 
ATOM     10  C   UNL     1       6.713  16.754  18.965  0.00  0.00    +0.000 A 
ATOM     11  C   UNL     1       5.671  15.970  18.486  0.00  0.00    +0.000 A 
ATOM     12  N   UNL     1       5.879  14.809  17.826  0.00  0.00    +0.000 NA
ATOM     13  C   UNL     1       7.168  14.421  17.662  0.00  0.00    +0.000 A 
BRANCH  11  14
ATOM     14  C   UNL     1       4.274  16.406  18.793  0.00  0.00    +0.000 C 
ATOM     15  O   UNL     1       3.727  17.127  17.953  0.00  0.00    +0.000 OA
ATOM     16  N   UNL     1       3.608  15.998  19.952  0.00  0.00    +0.000 N 
ATOM     17  C   UNL     1       2.216  16.404  20.127  0.00  0.00    +0.000 C 
ATOM     18  C   UNL     1       2.018  17.099  21.471  0.00  0.00    +0.000 C 
ATOM     19  C   UNL     1       2.560  16.252  22.622  0.00  0.00    +0.000 C 
ATOM     20  C   UNL     1       4.006  15.831  22.360  0.00  0.00    +0.000 C 
ATOM     21  C   UNL     1       4.119  15.125  21.010  0.00  0.00    +0.000 C 
ENDBRANCH  11  14
ENDBRANCH   6   8
BRANCH   7  22
ATOM     22  C   UNL     1       9.451  13.283  20.311  0.00  0.00    +0.000 C 
ATOM     23  C   UNL     1       8.811  13.038  21.302  0.00  0.00    +0.000 C 
BRANCH  23  24
ATOM     24  C   UNL     1       8.029  12.835  22.482  0.00  0.00    +0.000 A 
ATOM     25  C   UNL     1       8.219  11.723  23.298  0.00  0.00    +0.000 A 
ATOM     26  C   UNL     1       7.413  11.547  24.419  0.00  0.00    +0.000 A 
ATOM     27  C   UNL     1       6.429  12.488  24.692  0.00  0.00    +0.000 A 
ATOM     28  N   UNL     1       5.613  12.352  25.810  0.00  0.00    +0.000 N 
ATOM     29  N   UNL     1       6.239  13.582  23.933  0.00  0.00    +0.000 NA
ATOM     30  C   UNL     1       7.037  13.729  22.845  0.00  0.00    +0.000 A 
ATOM     31  H   UNL     1       5.154  11.448  25.826  0.00  0.00    +0.000 HD
ATOM     32  H   UNL     1       4.940  13.113  25.779  0.00  0.00    +0.000 HD
ENDBRANCH  23  24
ENDBRANCH   7  22
TORSDOF 4
ENDMDL
