MODEL 1
REMARK VINA RESULT:      -7.4      0.000      0.000
REMARK  Name = 
REMARK  8 active torsions:
REMARK  status: ('A' for Active; 'I' for Inactive)
REMARK    1  A    between atoms: C_1  and  C_2
REMARK    2  A    between atoms: C_2  and  O_3
REMARK    3  A    between atoms: O_3  and  C_4
REMARK    4  A    between atoms: C_7  and  S_8
REMARK    5  A    between atoms: S_8  and  N_11
REMARK    6  A    between atoms: C_14  and  C_15
REMARK    7  A    between atoms: N_17  and  C_18
REMARK    8  A    between atoms: C_23  and  N_24
REMARK                            x       y       z     vdW  Elec       q    Type
REMARK                         _______ _______ _______ _____ _____    ______ ____
ROOT
ATOM      1  N   UNL     1       0.329  10.477  20.334  0.00  0.00    +0.000 NA
ATOM      2  C   UNL     1      -1.042  10.456  19.776  0.00  0.00    +0.000 C 
ATOM      3  C   UNL     1      -1.330  11.659  18.880  0.00  0.00    +0.000 C 
ATOM      4  C   UNL     1      -0.951  12.990  19.537  0.00  0.00    +0.000 C 
ATOM      5  C   UNL     1       0.539  12.931  19.864  0.00  0.00    +0.000 C 
ATOM      6  C   UNL     1       0.870  11.776  20.806  0.00  0.00    +0.000 C 
ENDROOT
BRANCH   4   7
ATOM      7  C   UNL     1      -1.809  13.267  20.775  0.00  0.00    +0.000 C 
ATOM      8  O   UNL     1      -1.595  14.237  21.501  0.00  0.00    +0.000 OA
ATOM      9  N   UNL     1      -2.806  12.340  21.017  0.00  0.00    +0.000 N 
ATOM     10  H   UNL     1      -2.619  11.368  20.799  0.00  0.00    +0.000 HD
BRANCH   9  11
ATOM     11  C   UNL     1      -3.738  12.527  22.070  0.00  0.00    +0.000 A 
ATOM     12  C   UNL     1      -3.299  12.382  23.397  0.00  0.00    +0.000 A 
ATOM     13  C   UNL     1      -4.167  12.602  24.460  0.00  0.00    +0.000 A 
ATOM     14  C   UNL     1      -5.483  12.955  24.198  0.00  0.00    +0.000 A 
ATOM     15  C   UNL     1      -5.927  13.098  22.875  0.00  0.00    +0.000 A 
ATOM     16  C   UNL     1      -5.071  12.906  21.775  0.00  0.00    +0.000 A 
BRANCH  16  17
ATOM     17  N   UNL     1      -5.512  12.999  20.437  0.00  0.00    +0.000 N 
ATOM     18  C   UNL     1      -6.195  14.220  19.965  0.00  0.00    +0.000 C 
ATOM     19  C   UNL     1      -7.570  13.759  19.490  0.00  0.00    +0.000 C 
ATOM     20  C   UNL     1      -7.310  12.350  19.001  0.00  0.00    +0.000 C 
ATOM     21  C   UNL     1      -6.285  11.814  19.995  0.00  0.00    +0.000 C 
ENDBRANCH  16  17
ENDBRANCH   9  11
ENDBRANCH   4   7
BRANCH   1  22
ATOM     22  S   UNL     1       0.740   9.127  21.320  0.00  0.00    +0.000 S 
ATOM     23  O   UNL     1      -0.515   8.496  21.693  0.00  0.00    +0.000 OA
ATOM     24  O   UNL     1       1.691   9.547  22.326  0.00  0.00    +0.000 OA
BRANCH  22  28
ATOM     25  C   UNL     1       2.914   6.240  18.485  0.00  0.00    +0.000 A 
ATOM     26  C   UNL     1       2.476   5.795  19.735  0.00  0.00    +0.000 A 
ATOM     27  C   UNL     1       1.790   6.654  20.600  0.00  0.00    +0.000 A 
ATOM     28  C   UNL     1       1.580   7.982  20.229  0.00  0.00    +0.000 A 
ATOM     29  C   UNL     1       2.026   8.436  18.980  0.00  0.00    +0.000 A 
ATOM     30  C   UNL     1       2.696   7.567  18.112  0.00  0.00    +0.000 A 
BRANCH  25  31
ATOM     31  O   UNL     1       3.548   5.297  17.725  0.00  0.00    +0.000 OA
BRANCH  31  33
ATOM     32  C   UNL     1       2.680   3.125  17.288  0.00  0.00    +0.000 C 
ATOM     33  C   UNL     1       3.528   3.961  18.230  0.00  0.00    +0.000 C 
ENDBRANCH  31  33
ENDBRANCH  25  31
ENDBRANCH  22  28
ENDBRANCH   1  22
TORSDOF 7
ENDMDL
MODEL 2
REMARK VINA RESULT:      -7.3      0.524      1.128
REMARK  Name = 
REMARK  8 active torsions:
REMARK  status: ('A' for Active; 'I' for Inactive)
REMARK    1  A    between atoms: C_1  and  C_2
REMARK    2  A    between atoms: C_2  and  O_3
REMARK    3  A    between atoms: O_3  and  C_4
REMARK    4  A    between atoms: C_7  and  S_8
REMARK    5  A    between atoms: S_8  and  N_11
REMARK    6  A    between atoms: C_14  and  C_15
REMARK    7  A    between atoms: N_17  and  C_18
REMARK    8  A    between atoms: C_23  and  N_24
REMARK                            x       y       z     vdW  Elec       q    Type
REMARK                         _______ _______ _______ _____ _____    ______ ____
ROOT
ATOM      1  N   UNL     1       0.412  10.354  20.291  0.00  0.00    +0.000 NA
ATOM      2  C   UNL     1      -0.954  10.349  19.720  0.00  0.00    +0.000 C 
ATOM      3  C   UNL     1      -1.217  11.550  18.814  0.00  0.00    +0.000 C 
ATOM      4  C   UNL     1      -0.827  12.880  19.467  0.00  0.00    +0.000 C 
ATOM      5  C   UNL     1       0.660  12.802  19.809  0.00  0.00    +0.000 C 
ATOM      6  C   UNL     1       0.965  11.649  20.761  0.00  0.00    +0.000 C 
ENDROOT
BRANCH   4   7
ATOM      7  C   UNL     1      -1.692  13.176  20.696  0.00  0.00    +0.000 C 
ATOM      8  O   UNL     1      -1.454  14.130  21.434  0.00  0.00    +0.000 OA
ATOM      9  N   UNL     1      -2.726  12.283  20.912  0.00  0.00    +0.000 N 
ATOM     10  H   UNL     1      -2.571  11.307  20.688  0.00  0.00    +0.000 HD
BRANCH   9  11
ATOM     11  C   UNL     1      -3.666  12.494  21.954  0.00  0.00    +0.000 A 
ATOM     12  C   UNL     1      -3.233  12.400  23.288  0.00  0.00    +0.000 A 
ATOM     13  C   UNL     1      -4.110  12.644  24.337  0.00  0.00    +0.000 A 
ATOM     14  C   UNL     1      -5.429  12.971  24.057  0.00  0.00    +0.000 A 
ATOM     15  C   UNL     1      -5.867  13.063  22.728  0.00  0.00    +0.000 A 
ATOM     16  C   UNL     1      -5.003  12.844  21.639  0.00  0.00    +0.000 A 
BRANCH  16  17
ATOM     17  N   UNL     1      -5.437  12.886  20.296  0.00  0.00    +0.000 N 
ATOM     18  C   UNL     1      -6.012  14.128  19.741  0.00  0.00    +0.000 C 
ATOM     19  C   UNL     1      -7.423  13.758  19.293  0.00  0.00    +0.000 C 
ATOM     20  C   UNL     1      -7.288  12.302  18.901  0.00  0.00    +0.000 C 
ATOM     21  C   UNL     1      -6.311  11.746  19.932  0.00  0.00    +0.000 C 
ENDBRANCH  16  17
ENDBRANCH   9  11
ENDBRANCH   4   7
BRANCH   1  22
ATOM     22  S   UNL     1       0.794   9.005  21.289  0.00  0.00    +0.000 S 
ATOM     23  O   UNL     1      -0.472   8.387  21.646  0.00  0.00    +0.000 OA
ATOM     24  O   UNL     1       1.734   9.421  22.308  0.00  0.00    +0.000 OA
BRANCH  22  28
ATOM     25  C   UNL     1       2.944   5.988  18.572  0.00  0.00    +0.000 A 
ATOM     26  C   UNL     1       2.764   7.307  18.148  0.00  0.00    +0.000 A 
ATOM     27  C   UNL     1       2.134   8.245  18.973  0.00  0.00    +0.000 A 
ATOM     28  C   UNL     1       1.640   7.848  20.216  0.00  0.00    +0.000 A 
ATOM     29  C   UNL     1       1.809   6.523  20.642  0.00  0.00    +0.000 A 
ATOM     30  C   UNL     1       2.456   5.594  19.819  0.00  0.00    +0.000 A 
BRANCH  25  31
ATOM     31  O   UNL     1       3.596   5.179  17.684  0.00  0.00    +0.000 OA
BRANCH  31  33
ATOM     32  C   UNL     1       5.830   5.089  18.498  0.00  0.00    +0.000 C 
ATOM     33  C   UNL     1       4.566   4.288  18.236  0.00  0.00    +0.000 C 
ENDBRANCH  31  33
ENDBRANCH  25  31
ENDBRANCH  22  28
ENDBRANCH   1  22
TORSDOF 7
ENDMDL
MODEL 3
REMARK VINA RESULT:      -6.9      1.635      2.000
REMARK  Name = 
REMARK  8 active torsions:
REMARK  status: ('A' for Active; 'I' for Inactive)
REMARK    1  A    between atoms: C_1  and  C_2
REMARK    2  A    between atoms: C_2  and  O_3
REMARK    3  A    between atoms: O_3  and  C_4
REMARK    4  A    between atoms: C_7  and  S_8
REMARK    5  A    between atoms: S_8  and  N_11
REMARK    6  A    between atoms: C_14  and  C_15
REMARK    7  A    between atoms: N_17  and  C_18
REMARK    8  A    between atoms: C_23  and  N_24
REMARK                            x       y       z     vdW  Elec       q    Type
REMARK                         _______ _______ _______ _____ _____    ______ ____
ROOT
ATOM      1  N   UNL     1       0.370  10.298  20.152  0.00  0.00    +0.000 NA
ATOM      2  C   UNL     1      -0.780  10.072  19.249  0.00  0.00    +0.000 C 
ATOM      3  C   UNL     1      -1.020  11.243  18.297  0.00  0.00    +0.000 C 
ATOM      4  C   UNL     1      -1.059  12.594  19.020  0.00  0.00    +0.000 C 
ATOM      5  C   UNL     1       0.280  12.768  19.734  0.00  0.00    +0.000 C 
ATOM      6  C   UNL     1       0.539  11.650  20.740  0.00  0.00    +0.000 C 
ENDROOT
BRANCH   4   7
ATOM      7  C   UNL     1      -2.247  12.679  19.982  0.00  0.00    +0.000 C 
ATOM      8  O   UNL     1      -3.348  12.216  19.687  0.00  0.00    +0.000 OA
ATOM      9  N   UNL     1      -1.990  13.329  21.175  0.00  0.00    +0.000 N 
ATOM     10  H   UNL     1      -1.356  14.120  21.162  0.00  0.00    +0.000 HD
BRANCH   9  11
ATOM     11  C   UNL     1      -2.970  13.391  22.199  0.00  0.00    +0.000 A 
ATOM     12  C   UNL     1      -3.019  12.363  23.155  0.00  0.00    +0.000 A 
ATOM     13  C   UNL     1      -3.934  12.409  24.200  0.00  0.00    +0.000 A 
ATOM     14  C   UNL     1      -4.813  13.478  24.285  0.00  0.00    +0.000 A 
ATOM     15  C   UNL     1      -4.771  14.506  23.332  0.00  0.00    +0.000 A 
ATOM     16  C   UNL     1      -3.845  14.505  22.272  0.00  0.00    +0.000 A 
BRANCH  16  17
ATOM     17  N   UNL     1      -3.819  15.506  21.277  0.00  0.00    +0.000 N 
ATOM     18  C   UNL     1      -3.370  16.872  21.611  0.00  0.00    +0.000 C 
ATOM     19  C   UNL     1      -4.554  17.779  21.288  0.00  0.00    +0.000 C 
ATOM     20  C   UNL     1      -5.233  17.062  20.141  0.00  0.00    +0.000 C 
ATOM     21  C   UNL     1      -5.080  15.589  20.503  0.00  0.00    +0.000 C 
ENDBRANCH  16  17
ENDBRANCH   9  11
ENDBRANCH   4   7
BRANCH   1  22
ATOM     22  S   UNL     1       0.726   8.999  21.224  0.00  0.00    +0.000 S 
ATOM     23  O   UNL     1      -0.549   8.401  21.581  0.00  0.00    +0.000 OA
ATOM     24  O   UNL     1       1.643   9.463  22.242  0.00  0.00    +0.000 OA
BRANCH  22  28
ATOM     25  C   UNL     1       2.974   5.943  18.634  0.00  0.00    +0.000 A 
ATOM     26  C   UNL     1       2.450   5.560  19.871  0.00  0.00    +0.000 A 
ATOM     27  C   UNL     1       1.740   6.471  20.660  0.00  0.00    +0.000 A 
ATOM     28  C   UNL     1       1.594   7.789  20.229  0.00  0.00    +0.000 A 
ATOM     29  C   UNL     1       2.128   8.181  18.993  0.00  0.00    +0.000 A 
ATOM     30  C   UNL     1       2.821   7.260  18.200  0.00  0.00    +0.000 A 
BRANCH  25  31
ATOM     31  O   UNL     1       3.623   4.953  17.950  0.00  0.00    +0.000 OA
BRANCH  31  33
ATOM     32  C   UNL     1       3.625   2.573  17.944  0.00  0.00    +0.000 C 
ATOM     33  C   UNL     1       4.030   3.818  18.715  0.00  0.00    +0.000 C 
ENDBRANCH  31  33
ENDBRANCH  25  31
ENDBRANCH  22  28
ENDBRANCH   1  22
TORSDOF 7
ENDMDL
MODEL 4
REMARK VINA RESULT:      -6.9      1.651      2.204
REMARK  Name = 
REMARK  8 active torsions:
REMARK  status: ('A' for Active; 'I' for Inactive)
REMARK    1  A    between atoms: C_1  and  C_2
REMARK    2  A    between atoms: C_2  and  O_3
REMARK    3  A    between atoms: O_3  and  C_4
REMARK    4  A    between atoms: C_7  and  S_8
REMARK    5  A    between atoms: S_8  and  N_11
REMARK    6  A    between atoms: C_14  and  C_15
REMARK    7  A    between atoms: N_17  and  C_18
REMARK    8  A    between atoms: C_23  and  N_24
REMARK                            x       y       z     vdW  Elec       q    Type
REMARK                         _______ _______ _______ _____ _____    ______ ____
ROOT
ATOM      1  N   UNL     1       0.433  10.269  20.185  0.00  0.00    +0.000 NA
ATOM      2  C   UNL     1      -0.688  10.051  19.243  0.00  0.00    +0.000 C 
ATOM      3  C   UNL     1      -0.905  11.235  18.303  0.00  0.00    +0.000 C 
ATOM      4  C   UNL     1      -0.973  12.574  19.044  0.00  0.00    +0.000 C 
ATOM      5  C   UNL     1       0.342  12.745  19.802  0.00  0.00    +0.000 C 
ATOM      6  C   UNL     1       0.576  11.613  20.798  0.00  0.00    +0.000 C 
ENDROOT
BRANCH   4   7
ATOM      7  C   UNL     1      -2.191  12.639  19.970  0.00  0.00    +0.000 C 
ATOM      8  O   UNL     1      -3.269  12.142  19.649  0.00  0.00    +0.000 OA
ATOM      9  N   UNL     1      -1.986  13.310  21.162  0.00  0.00    +0.000 N 
ATOM     10  H   UNL     1      -1.373  14.118  21.157  0.00  0.00    +0.000 HD
BRANCH   9  11
ATOM     11  C   UNL     1      -2.998  13.358  22.156  0.00  0.00    +0.000 A 
ATOM     12  C   UNL     1      -2.998  12.387  23.171  0.00  0.00    +0.000 A 
ATOM     13  C   UNL     1      -3.943  12.425  24.189  0.00  0.00    +0.000 A 
ATOM     14  C   UNL     1      -4.901  13.428  24.188  0.00  0.00    +0.000 A 
ATOM     15  C   UNL     1      -4.907  14.399  23.175  0.00  0.00    +0.000 A 
ATOM     16  C   UNL     1      -3.953  14.406  22.140  0.00  0.00    +0.000 A 
BRANCH  16  17
ATOM     17  N   UNL     1      -3.973  15.345  21.087  0.00  0.00    +0.000 N 
ATOM     18  C   UNL     1      -3.487  16.721  21.313  0.00  0.00    +0.000 C 
ATOM     19  C   UNL     1      -4.675  17.628  21.006  0.00  0.00    +0.000 C 
ATOM     20  C   UNL     1      -5.430  16.857  19.944  0.00  0.00    +0.000 C 
ATOM     21  C   UNL     1      -5.276  15.405  20.384  0.00  0.00    +0.000 C 
ENDBRANCH  16  17
ENDBRANCH   9  11
ENDBRANCH   4   7
BRANCH   1  22
ATOM     22  S   UNL     1       0.763   8.956  21.248  0.00  0.00    +0.000 S 
ATOM     23  O   UNL     1      -0.523   8.375  21.593  0.00  0.00    +0.000 OA
ATOM     24  O   UNL     1       1.681   9.397  22.275  0.00  0.00    +0.000 OA
BRANCH  22  28
ATOM     25  C   UNL     1       2.930   5.794  18.717  0.00  0.00    +0.000 A 
ATOM     26  C   UNL     1       2.820   7.106  18.251  0.00  0.00    +0.000 A 
ATOM     27  C   UNL     1       2.186   8.087  19.021  0.00  0.00    +0.000 A 
ATOM     28  C   UNL     1       1.617   7.741  20.247  0.00  0.00    +0.000 A 
ATOM     29  C   UNL     1       1.716   6.423  20.714  0.00  0.00    +0.000 A 
ATOM     30  C   UNL     1       2.368   5.450  19.947  0.00  0.00    +0.000 A 
BRANCH  25  31
ATOM     31  O   UNL     1       3.594   4.938  17.883  0.00  0.00    +0.000 OA
BRANCH  31  33
ATOM     32  C   UNL     1       5.834   4.824  18.681  0.00  0.00    +0.000 C 
ATOM     33  C   UNL     1       4.936   5.296  17.549  0.00  0.00    +0.000 C 
ENDBRANCH  31  33
ENDBRANCH  25  31
ENDBRANCH  22  28
ENDBRANCH   1  22
TORSDOF 7
ENDMDL
MODEL 5
REMARK VINA RESULT:      -6.9      1.819      3.229
REMARK  Name = 
REMARK  8 active torsions:
REMARK  status: ('A' for Active; 'I' for Inactive)
REMARK    1  A    between atoms: C_1  and  C_2
REMARK    2  A    between atoms: C_2  and  O_3
REMARK    3  A    between atoms: O_3  and  C_4
REMARK    4  A    between atoms: C_7  and  S_8
REMARK    5  A    between atoms: S_8  and  N_11
REMARK    6  A    between atoms: C_14  and  C_15
REMARK    7  A    between atoms: N_17  and  C_18
REMARK    8  A    between atoms: C_23  and  N_24
REMARK                            x       y       z     vdW  Elec       q    Type
REMARK                         _______ _______ _______ _____ _____    ______ ____
ROOT
ATOM      1  N   UNL     1      -0.421  10.617  18.656  0.00  0.00    +0.000 NA
ATOM      2  C   UNL     1      -1.274   9.544  18.097  0.00  0.00    +0.000 C 
ATOM      3  C   UNL     1      -1.989   9.968  16.816  0.00  0.00    +0.000 C 
ATOM      4  C   UNL     1      -2.706  11.315  16.957  0.00  0.00    +0.000 C 
ATOM      5  C   UNL     1      -1.653  12.355  17.334  0.00  0.00    +0.000 C 
ATOM      6  C   UNL     1      -0.949  12.005  18.642  0.00  0.00    +0.000 C 
ENDROOT
BRANCH   4   7
ATOM      7  C   UNL     1      -3.843  11.239  17.980  0.00  0.00    +0.000 C 
ATOM      8  O   UNL     1      -4.391  10.172  18.253  0.00  0.00    +0.000 OA
ATOM      9  N   UNL     1      -4.208  12.449  18.541  0.00  0.00    +0.000 N 
ATOM     10  H   UNL     1      -4.175  13.277  17.957  0.00  0.00    +0.000 HD
BRANCH   9  11
ATOM     11  C   UNL     1      -5.177  12.511  19.576  0.00  0.00    +0.000 A 
ATOM     12  C   UNL     1      -6.520  12.239  19.266  0.00  0.00    +0.000 A 
ATOM     13  C   UNL     1      -7.492  12.244  20.258  0.00  0.00    +0.000 A 
ATOM     14  C   UNL     1      -7.126  12.534  21.565  0.00  0.00    +0.000 A 
ATOM     15  C   UNL     1      -5.787  12.809  21.879  0.00  0.00    +0.000 A 
ATOM     16  C   UNL     1      -4.772  12.792  20.905  0.00  0.00    +0.000 A 
BRANCH  16  17
ATOM     17  N   UNL     1      -3.428  13.112  21.194  0.00  0.00    +0.000 N 
ATOM     18  C   UNL     1      -2.654  12.281  22.137  0.00  0.00    +0.000 C 
ATOM     19  C   UNL     1      -2.228  13.224  23.258  0.00  0.00    +0.000 C 
ATOM     20  C   UNL     1      -2.091  14.556  22.552  0.00  0.00    +0.000 C 
ATOM     21  C   UNL     1      -3.232  14.540  21.540  0.00  0.00    +0.000 C 
ENDBRANCH  16  17
ENDBRANCH   9  11
ENDBRANCH   4   7
BRANCH   1  22
ATOM     22  S   UNL     1       0.451  10.195  20.079  0.00  0.00    +0.000 S 
ATOM     23  O   UNL     1      -0.536   9.742  21.045  0.00  0.00    +0.000 OA
ATOM     24  O   UNL     1       1.376  11.260  20.401  0.00  0.00    +0.000 OA
BRANCH  22  28
ATOM     25  C   UNL     1       2.961   6.540  18.878  0.00  0.00    +0.000 A 
ATOM     26  C   UNL     1       2.340   6.581  20.129  0.00  0.00    +0.000 A 
ATOM     27  C   UNL     1       1.551   7.675  20.500  0.00  0.00    +0.000 A 
ATOM     28  C   UNL     1       1.420   8.757  19.630  0.00  0.00    +0.000 A 
ATOM     29  C   UNL     1       2.050   8.725  18.378  0.00  0.00    +0.000 A 
ATOM     30  C   UNL     1       2.823   7.620  18.006  0.00  0.00    +0.000 A 
BRANCH  25  31
ATOM     31  O   UNL     1       3.682   5.406  18.628  0.00  0.00    +0.000 OA
BRANCH  31  33
ATOM     32  C   UNL     1       1.956   4.065  17.686  0.00  0.00    +0.000 C 
ATOM     33  C   UNL     1       3.326   4.678  17.452  0.00  0.00    +0.000 C 
ENDBRANCH  31  33
ENDBRANCH  25  31
ENDBRANCH  22  28
ENDBRANCH   1  22
TORSDOF 7
ENDMDL
MODEL 6
REMARK VINA RESULT:      -6.9      1.905      3.429
REMARK  Name = 
REMARK  8 active torsions:
REMARK  status: ('A' for Active; 'I' for Inactive)
REMARK    1  A    between atoms: C_1  and  C_2
REMARK    2  A    between atoms: C_2  and  O_3
REMARK    3  A    between atoms: O_3  and  C_4
REMARK    4  A    between atoms: C_7  and  S_8
REMARK    5  A    between atoms: S_8  and  N_11
REMARK    6  A    between atoms: C_14  and  C_15
REMARK    7  A    between atoms: N_17  and  C_18
REMARK    8  A    between atoms: C_23  and  N_24
REMARK                            x       y       z     vdW  Elec       q    Type
REMARK                         _______ _______ _______ _____ _____    ______ ____
ROOT
ATOM      1  N   UNL     1      -0.407  10.467  18.702  0.00  0.00    +0.000 NA
ATOM      2  C   UNL     1      -1.325   9.518  18.034  0.00  0.00    +0.000 C 
ATOM      3  C   UNL     1      -2.016  10.126  16.814  0.00  0.00    +0.000 C 
ATOM      4  C   UNL     1      -2.649  11.489  17.113  0.00  0.00    +0.000 C 
ATOM      5  C   UNL     1      -1.534  12.415  17.596  0.00  0.00    +0.000 C 
ATOM      6  C   UNL     1      -0.850  11.877  18.849  0.00  0.00    +0.000 C 
ENDROOT
BRANCH   4   7
ATOM      7  C   UNL     1      -3.786  11.367  18.132  0.00  0.00    +0.000 C 
ATOM      8  O   UNL     1      -4.338  10.290  18.351  0.00  0.00    +0.000 OA
ATOM      9  N   UNL     1      -4.147  12.549  18.751  0.00  0.00    +0.000 N 
ATOM     10  H   UNL     1      -4.111  13.404  18.209  0.00  0.00    +0.000 HD
BRANCH   9  11
ATOM     11  C   UNL     1      -5.115  12.563  19.789  0.00  0.00    +0.000 A 
ATOM     12  C   UNL     1      -6.464  12.341  19.462  0.00  0.00    +0.000 A 
ATOM     13  C   UNL     1      -7.437  12.301  20.453  0.00  0.00    +0.000 A 
ATOM     14  C   UNL     1      -7.066  12.496  21.775  0.00  0.00    +0.000 A 
ATOM     15  C   UNL     1      -5.722  12.721  22.107  0.00  0.00    +0.000 A 
ATOM     16  C   UNL     1      -4.706  12.747  21.134  0.00  0.00    +0.000 A 
BRANCH  16  17
ATOM     17  N   UNL     1      -3.356  13.018  21.443  0.00  0.00    +0.000 N 
ATOM     18  C   UNL     1      -2.692  12.307  22.554  0.00  0.00    +0.000 C 
ATOM     19  C   UNL     1      -2.247  13.395  23.526  0.00  0.00    +0.000 C 
ATOM     20  C   UNL     1      -1.975  14.576  22.618  0.00  0.00    +0.000 C 
ATOM     21  C   UNL     1      -3.066  14.467  21.558  0.00  0.00    +0.000 C 
ENDBRANCH  16  17
ENDBRANCH   9  11
ENDBRANCH   4   7
BRANCH   1  22
ATOM     22  S   UNL     1       0.440   9.835  20.060  0.00  0.00    +0.000 S 
ATOM     23  O   UNL     1      -0.536   9.102  20.847  0.00  0.00    +0.000 OA
ATOM     24  O   UNL     1       1.237  10.887  20.653  0.00  0.00    +0.000 OA
BRANCH  22  28
ATOM     25  C   UNL     1       3.316   6.671  18.381  0.00  0.00    +0.000 A 
ATOM     26  C   UNL     1       3.026   7.817  17.637  0.00  0.00    +0.000 A 
ATOM     27  C   UNL     1       2.173   8.803  18.144  0.00  0.00    +0.000 A 
ATOM     28  C   UNL     1       1.569   8.618  19.388  0.00  0.00    +0.000 A 
ATOM     29  C   UNL     1       1.849   7.464  20.134  0.00  0.00    +0.000 A 
ATOM     30  C   UNL     1       2.718   6.491  19.628  0.00  0.00    +0.000 A 
BRANCH  25  31
ATOM     31  O   UNL     1       4.184   5.799  17.784  0.00  0.00    +0.000 OA
BRANCH  31  33
ATOM     32  C   UNL     1       6.431   6.517  17.471  0.00  0.00    +0.000 C 
ATOM     33  C   UNL     1       5.071   6.355  16.814  0.00  0.00    +0.000 C 
ENDBRANCH  31  33
ENDBRANCH  25  31
ENDBRANCH  22  28
ENDBRANCH   1  22
TORSDOF 7
ENDMDL
MODEL 7
REMARK VINA RESULT:      -6.9      2.069      2.663
REMARK  Name = 
REMARK  8 active torsions:
REMARK  status: ('A' for Active; 'I' for Inactive)
REMARK    1  A    between atoms: C_1  and  C_2
REMARK    2  A    between atoms: C_2  and  O_3
REMARK    3  A    between atoms: O_3  and  C_4
REMARK    4  A    between atoms: C_7  and  S_8
REMARK    5  A    between atoms: S_8  and  N_11
REMARK    6  A    between atoms: C_14  and  C_15
REMARK    7  A    between atoms: N_17  and  C_18
REMARK    8  A    between atoms: C_23  and  N_24
REMARK                            x       y       z     vdW  Elec       q    Type
REMARK                         _______ _______ _______ _____ _____    ______ ____
ROOT
ATOM      1  N   UNL     1       0.526  10.086  20.151  0.00  0.00    +0.000 NA
ATOM      2  C   UNL     1      -0.665   9.938  19.285  0.00  0.00    +0.000 C 
ATOM      3  C   UNL     1      -0.814  11.086  18.289  0.00  0.00    +0.000 C 
ATOM      4  C   UNL     1      -0.701  12.462  18.952  0.00  0.00    +0.000 C 
ATOM      5  C   UNL     1       0.667  12.533  19.627  0.00  0.00    +0.000 C 
ATOM      6  C   UNL     1       0.843  11.438  20.675  0.00  0.00    +0.000 C 
ENDROOT
BRANCH   4   7
ATOM      7  C   UNL     1      -1.849  12.705  19.936  0.00  0.00    +0.000 C 
ATOM      8  O   UNL     1      -3.018  12.472  19.630  0.00  0.00    +0.000 OA
ATOM      9  N   UNL     1      -1.471  13.220  21.162  0.00  0.00    +0.000 N 
ATOM     10  H   UNL     1      -0.701  13.879  21.187  0.00  0.00    +0.000 HD
BRANCH   9  11
ATOM     11  C   UNL     1      -2.418  13.398  22.203  0.00  0.00    +0.000 A 
ATOM     12  C   UNL     1      -2.757  12.297  23.007  0.00  0.00    +0.000 A 
ATOM     13  C   UNL     1      -3.646  12.438  24.066  0.00  0.00    +0.000 A 
ATOM     14  C   UNL     1      -4.210  13.680  24.316  0.00  0.00    +0.000 A 
ATOM     15  C   UNL     1      -3.877  14.782  23.515  0.00  0.00    +0.000 A 
ATOM     16  C   UNL     1      -2.965  14.683  22.448  0.00  0.00    +0.000 A 
BRANCH  16  17
ATOM     17  N   UNL     1      -2.655  15.769  21.602  0.00  0.00    +0.000 N 
ATOM     18  C   UNL     1      -2.065  17.001  22.163  0.00  0.00    +0.000 C 
ATOM     19  C   UNL     1      -3.047  18.116  21.819  0.00  0.00    +0.000 C 
ATOM     20  C   UNL     1      -3.654  17.648  20.514  0.00  0.00    +0.000 C 
ATOM     21  C   UNL     1      -3.769  16.139  20.698  0.00  0.00    +0.000 C 
ENDBRANCH  16  17
ENDBRANCH   9  11
ENDBRANCH   4   7
BRANCH   1  22
ATOM     22  S   UNL     1       0.783   8.804  21.271  0.00  0.00    +0.000 S 
ATOM     23  O   UNL     1      -0.532   8.289  21.612  0.00  0.00    +0.000 OA
ATOM     24  O   UNL     1       1.698   9.249  22.299  0.00  0.00    +0.000 OA
BRANCH  22  28
ATOM     25  C   UNL     1       2.868   5.460  18.911  0.00  0.00    +0.000 A 
ATOM     26  C   UNL     1       2.809   6.753  18.387  0.00  0.00    +0.000 A 
ATOM     27  C   UNL     1       2.200   7.789  19.103  0.00  0.00    +0.000 A 
ATOM     28  C   UNL     1       1.606   7.517  20.336  0.00  0.00    +0.000 A 
ATOM     29  C   UNL     1       1.654   6.219  20.862  0.00  0.00    +0.000 A 
ATOM     30  C   UNL     1       2.280   5.191  20.148  0.00  0.00    +0.000 A 
BRANCH  25  31
ATOM     31  O   UNL     1       3.512   4.546  18.125  0.00  0.00    +0.000 OA
BRANCH  31  33
ATOM     32  C   UNL     1       2.752   2.303  17.892  0.00  0.00    +0.000 C 
ATOM     33  C   UNL     1       2.681   3.708  17.320  0.00  0.00    +0.000 C 
ENDBRANCH  31  33
ENDBRANCH  25  31
ENDBRANCH  22  28
ENDBRANCH   1  22
TORSDOF 7
ENDMDL
MODEL 8
REMARK VINA RESULT:      -6.9      2.094      3.154
REMARK  Name = 
REMARK  8 active torsions:
REMARK  status: ('A' for Active; 'I' for Inactive)
REMARK    1  A    between atoms: C_1  and  C_2
REMARK    2  A    between atoms: C_2  and  O_3
REMARK    3  A    between atoms: O_3  and  C_4
REMARK    4  A    between atoms: C_7  and  S_8
REMARK    5  A    between atoms: S_8  and  N_11
REMARK    6  A    between atoms: C_14  and  C_15
REMARK    7  A    between atoms: N_17  and  C_18
REMARK    8  A    between atoms: C_23  and  N_24
REMARK                            x       y       z     vdW  Elec       q    Type
REMARK                         _______ _______ _______ _____ _____    ______ ____
ROOT
ATOM      1  N   UNL     1       0.504  11.413  19.472  0.00  0.00    +0.000 NA
ATOM      2  C   UNL     1      -0.851  11.884  19.108  0.00  0.00    +0.000 C 
ATOM      3  C   UNL     1      -0.826  13.010  18.075  0.00  0.00    +0.000 C 
ATOM      4  C   UNL     1       0.137  14.139  18.456  0.00  0.00    +0.000 C 
ATOM      5  C   UNL     1       1.529  13.525  18.592  0.00  0.00    +0.000 C 
ATOM      6  C   UNL     1       1.569  12.431  19.655  0.00  0.00    +0.000 C 
ENDROOT
BRANCH   4   7
ATOM      7  C   UNL     1      -0.313  14.851  19.735  0.00  0.00    +0.000 C 
ATOM      8  O   UNL     1       0.490  15.160  20.614  0.00  0.00    +0.000 OA
ATOM      9  N   UNL     1      -1.672  15.089  19.827  0.00  0.00    +0.000 N 
ATOM     10  H   UNL     1      -2.306  14.398  19.442  0.00  0.00    +0.000 HD
BRANCH   9  11
ATOM     11  C   UNL     1      -2.212  15.829  20.910  0.00  0.00    +0.000 A 
ATOM     12  C   UNL     1      -2.150  17.232  20.869  0.00  0.00    +0.000 A 
ATOM     13  C   UNL     1      -2.708  17.996  21.887  0.00  0.00    +0.000 A 
ATOM     14  C   UNL     1      -3.318  17.359  22.957  0.00  0.00    +0.000 A 
ATOM     15  C   UNL     1      -3.380  15.958  23.004  0.00  0.00    +0.000 A 
ATOM     16  C   UNL     1      -2.846  15.152  21.982  0.00  0.00    +0.000 A 
BRANCH  16  17
ATOM     17  N   UNL     1      -2.856  13.742  22.034  0.00  0.00    +0.000 N 
ATOM     18  C   UNL     1      -4.042  13.027  22.546  0.00  0.00    +0.000 C 
ATOM     19  C   UNL     1      -3.548  12.219  23.741  0.00  0.00    +0.000 C 
ATOM     20  C   UNL     1      -2.113  11.906  23.374  0.00  0.00    +0.000 C 
ATOM     21  C   UNL     1      -1.643  13.175  22.670  0.00  0.00    +0.000 C 
ENDBRANCH  16  17
ENDBRANCH   9  11
ENDBRANCH   4   7
BRANCH   1  22
ATOM     22  S   UNL     1       0.551  10.114  20.599  0.00  0.00    +0.000 S 
ATOM     23  O   UNL     1      -0.821   9.663  20.762  0.00  0.00    +0.000 OA
ATOM     24  O   UNL     1       1.346  10.507  21.742  0.00  0.00    +0.000 OA
BRANCH  22  28
ATOM     25  C   UNL     1       2.806   6.767  18.407  0.00  0.00    +0.000 A 
ATOM     26  C   UNL     1       2.452   6.608  19.748  0.00  0.00    +0.000 A 
ATOM     27  C   UNL     1       1.743   7.607  20.424  0.00  0.00    +0.000 A 
ATOM     28  C   UNL     1       1.425   8.793  19.763  0.00  0.00    +0.000 A 
ATOM     29  C   UNL     1       1.787   8.961  18.419  0.00  0.00    +0.000 A 
ATOM     30  C   UNL     1       2.481   7.951  17.744  0.00  0.00    +0.000 A 
BRANCH  25  31
ATOM     31  O   UNL     1       3.474   5.709  17.856  0.00  0.00    +0.000 OA
BRANCH  31  33
ATOM     32  C   UNL     1       2.213   3.723  17.495  0.00  0.00    +0.000 C 
ATOM     33  C   UNL     1       3.195   4.425  18.417  0.00  0.00    +0.000 C 
ENDBRANCH  31  33
ENDBRANCH  25  31
ENDBRANCH  22  28
ENDBRANCH   1  22
TORSDOF 7
ENDMDL
MODEL 9
REMARK VINA RESULT:      -6.9      2.145      3.632
REMARK  Name = 
REMARK  8 active torsions:
REMARK  status: ('A' for Active; 'I' for Inactive)
REMARK    1  A    between atoms: C_1  and  C_2
REMARK    2  A    between atoms: C_2  and  O_3
REMARK    3  A    between atoms: O_3  and  C_4
REMARK    4  A    between atoms: C_7  and  S_8
REMARK    5  A    between atoms: S_8  and  N_11
REMARK    6  A    between atoms: C_14  and  C_15
REMARK    7  A    between atoms: N_17  and  C_18
REMARK    8  A    between atoms: C_23  and  N_24
REMARK                            x       y       z     vdW  Elec       q    Type
REMARK                         _______ _______ _______ _____ _____    ______ ____
ROOT
ATOM      1  N   UNL     1       0.042  11.299  21.998  0.00  0.00    +0.000 NA
ATOM      2  C   UNL     1       0.985  11.942  21.055  0.00  0.00    +0.000 C 
ATOM      3  C   UNL     1       0.660  13.414  20.810  0.00  0.00    +0.000 C 
ATOM      4  C   UNL     1      -0.814  13.645  20.462  0.00  0.00    +0.000 C 
ATOM      5  C   UNL     1      -1.647  13.115  21.627  0.00  0.00    +0.000 C 
ATOM      6  C   UNL     1      -1.400  11.629  21.875  0.00  0.00    +0.000 C 
ENDROOT
BRANCH   4   7
ATOM      7  C   UNL     1      -1.185  12.982  19.132  0.00  0.00    +0.000 C 
ATOM      8  O   UNL     1      -0.479  13.109  18.133  0.00  0.00    +0.000 OA
ATOM      9  N   UNL     1      -2.367  12.265  19.145  0.00  0.00    +0.000 N 
ATOM     10  H   UNL     1      -3.133  12.615  19.710  0.00  0.00    +0.000 HD
BRANCH   9  11
ATOM     11  C   UNL     1      -2.779  11.517  18.011  0.00  0.00    +0.000 A 
ATOM     12  C   UNL     1      -1.827  10.744  17.326  0.00  0.00    +0.000 A 
ATOM     13  C   UNL     1      -2.198   9.961  16.240  0.00  0.00    +0.000 A 
ATOM     14  C   UNL     1      -3.521   9.959  15.826  0.00  0.00    +0.000 A 
ATOM     15  C   UNL     1      -4.476  10.731  16.504  0.00  0.00    +0.000 A 
ATOM     16  C   UNL     1      -4.142  11.519  17.622  0.00  0.00    +0.000 A 
BRANCH  16  17
ATOM     17  N   UNL     1      -5.078  12.339  18.287  0.00  0.00    +0.000 N 
ATOM     18  C   UNL     1      -5.761  11.850  19.502  0.00  0.00    +0.000 C 
ATOM     19  C   UNL     1      -7.250  11.879  19.172  0.00  0.00    +0.000 C 
ATOM     20  C   UNL     1      -7.364  13.034  18.201  0.00  0.00    +0.000 C 
ATOM     21  C   UNL     1      -6.086  12.931  17.375  0.00  0.00    +0.000 C 
ENDBRANCH  16  17
ENDBRANCH   9  11
ENDBRANCH   4   7
BRANCH   1  22
ATOM     22  S   UNL     1       0.373   9.649  22.355  0.00  0.00    +0.000 S 
ATOM     23  O   UNL     1      -0.916   8.999  22.525  0.00  0.00    +0.000 OA
ATOM     24  O   UNL     1       1.383   9.581  23.389  0.00  0.00    +0.000 OA
BRANCH  22  28
ATOM     25  C   UNL     1       2.200   7.978  18.486  0.00  0.00    +0.000 A 
ATOM     26  C   UNL     1       2.320   7.264  19.681  0.00  0.00    +0.000 A 
ATOM     27  C   UNL     1       1.748   7.746  20.863  0.00  0.00    +0.000 A 
ATOM     28  C   UNL     1       1.088   8.975  20.858  0.00  0.00    +0.000 A 
ATOM     29  C   UNL     1       0.974   9.700  19.664  0.00  0.00    +0.000 A 
ATOM     30  C   UNL     1       1.533   9.203  18.481  0.00  0.00    +0.000 A 
BRANCH  25  31
ATOM     31  O   UNL     1       2.781   7.387  17.399  0.00  0.00    +0.000 OA
BRANCH  31  33
ATOM     32  C   UNL     1       4.832   6.632  16.456  0.00  0.00    +0.000 C 
ATOM     33  C   UNL     1       3.910   6.553  17.661  0.00  0.00    +0.000 C 
ENDBRANCH  31  33
ENDBRANCH  25  31
ENDBRANCH  22  28
ENDBRANCH   1  22
TORSDOF 7
ENDMDL
