MODEL 1
REMARK VINA RESULT:      -7.3      0.000      0.000
REMARK  Name = 
REMARK  6 active torsions:
REMARK  status: ('A' for Active; 'I' for Inactive)
REMARK    1  A    between atoms: C_2  and  C_3
REMARK    2  A    between atoms: C_2  and  N_8
REMARK    3  A    between atoms: N_8  and  C_13
REMARK    4  A    between atoms: C_9  and  C_11
REMARK    5  A    between atoms: C_14  and  C_15
REMARK    6  A    between atoms: C_19  and  C_20
REMARK                            x       y       z     vdW  Elec       q    Type
REMARK                         _______ _______ _______ _____ _____    ______ ____
ROOT
ATOM      1  N   UNL     1       4.285   4.907  18.429  0.00  0.00    +0.000 N 
ATOM      2  C   UNL     1       5.418   4.517  19.188  0.00  0.00    +0.000 C 
ATOM      3  O   UNL     1       5.432   3.517  19.918  0.00  0.00    +0.000 OA
ENDROOT
BRANCH   1   4
ATOM      4  C   UNL     1       3.025   4.314  18.823  0.00  0.00    +0.000 A 
ATOM      5  C   UNL     1       2.175   5.004  19.725  0.00  0.00    +0.000 A 
ATOM      6  C   UNL     1       2.400   6.423  20.182  0.00  0.00    +0.000 C 
ATOM      7  C   UNL     1       1.011   4.378  20.202  0.00  0.00    +0.000 A 
ATOM      8  C   UNL     1       0.662   3.104  19.777  0.00  0.00    +0.000 A 
ATOM      9  C   UNL     1       1.466   2.439  18.860  0.00  0.00    +0.000 A 
ATOM     10  C   UNL     1       2.653   3.020  18.375  0.00  0.00    +0.000 A 
ATOM     11  C   UNL     1       3.489   2.181  17.446  0.00  0.00    +0.000 C 
ENDBRANCH   1   4
BRANCH   1  13
ATOM     12  C   UNL     1       3.733   6.819  17.092  0.00  0.00    +0.000 C 
ATOM     13  C   UNL     1       4.399   5.657  17.254  0.00  0.00    +0.000 C 
BRANCH  13  14
ATOM     14  C   UNL     1       5.202   5.172  16.164  0.00  0.00    +0.000 A 
ATOM     15  C   UNL     1       5.127   3.985  15.439  0.00  0.00    +0.000 A 
ATOM     16  C   UNL     1       6.081   4.029  14.395  0.00  0.00    +0.000 A 
ATOM     17  C   UNL     1       6.717   5.233  14.526  0.00  0.00    +0.000 A 
ATOM     18  O   UNL     1       6.212   5.921  15.576  0.00  0.00    +0.000 OA
ENDBRANCH  13  14
ENDBRANCH   1  13
BRANCH   2  19
ATOM     19  C   UNL     1       6.630   5.438  19.139  0.00  0.00    +0.000 C 
ATOM     20 CL   UNL     1       7.912   4.651  18.176  0.00  0.00    +0.000 Cl
ENDBRANCH   2  19
TORSDOF 4
ENDMDL
MODEL 2
REMARK VINA RESULT:      -7.2      0.677      2.137
REMARK  Name = 
REMARK  6 active torsions:
REMARK  status: ('A' for Active; 'I' for Inactive)
REMARK    1  A    between atoms: C_2  and  C_3
REMARK    2  A    between atoms: C_2  and  N_8
REMARK    3  A    between atoms: N_8  and  C_13
REMARK    4  A    between atoms: C_9  and  C_11
REMARK    5  A    between atoms: C_14  and  C_15
REMARK    6  A    between atoms: C_19  and  C_20
REMARK                            x       y       z     vdW  Elec       q    Type
REMARK                         _______ _______ _______ _____ _____    ______ ____
ROOT
ATOM      1  N   UNL     1       4.122   4.770  18.594  0.00  0.00    +0.000 N 
ATOM      2  C   UNL     1       5.303   4.412  19.294  0.00  0.00    +0.000 C 
ATOM      3  O   UNL     1       5.399   3.386  19.979  0.00  0.00    +0.000 OA
ENDROOT
BRANCH   1   4
ATOM      4  C   UNL     1       2.912   4.092  19.009  0.00  0.00    +0.000 A 
ATOM      5  C   UNL     1       2.576   2.840  18.432  0.00  0.00    +0.000 A 
ATOM      6  C   UNL     1       3.489   2.052  17.528  0.00  0.00    +0.000 C 
ATOM      7  C   UNL     1       1.344   2.239  18.743  0.00  0.00    +0.000 A 
ATOM      8  C   UNL     1       0.464   2.837  19.634  0.00  0.00    +0.000 A 
ATOM      9  C   UNL     1       0.806   4.041  20.237  0.00  0.00    +0.000 A 
ATOM     10  C   UNL     1       2.019   4.689  19.936  0.00  0.00    +0.000 A 
ATOM     11  C   UNL     1       2.254   6.026  20.585  0.00  0.00    +0.000 C 
ENDBRANCH   1   4
BRANCH   1  13
ATOM     12  C   UNL     1       3.440   6.716  17.373  0.00  0.00    +0.000 C 
ATOM     13  C   UNL     1       4.149   5.572  17.449  0.00  0.00    +0.000 C 
BRANCH  13  14
ATOM     14  C   UNL     1       4.908   5.160  16.298  0.00  0.00    +0.000 A 
ATOM     15  C   UNL     1       5.501   5.911  15.286  0.00  0.00    +0.000 A 
ATOM     16  C   UNL     1       6.224   5.040  14.438  0.00  0.00    +0.000 A 
ATOM     17  C   UNL     1       6.036   3.785  14.950  0.00  0.00    +0.000 A 
ATOM     18  O   UNL     1       5.250   3.839  16.050  0.00  0.00    +0.000 OA
ENDBRANCH  13  14
ENDBRANCH   1  13
BRANCH   2  19
ATOM     19  C   UNL     1       6.461   5.400  19.239  0.00  0.00    +0.000 C 
ATOM     20 CL   UNL     1       7.734   4.735  18.178  0.00  0.00    +0.000 Cl
ENDBRANCH   2  19
TORSDOF 4
ENDMDL
MODEL 3
REMARK VINA RESULT:      -7.0      2.139      3.535
REMARK  Name = 
REMARK  6 active torsions:
REMARK  status: ('A' for Active; 'I' for Inactive)
REMARK    1  A    between atoms: C_2  and  C_3
REMARK    2  A    between atoms: C_2  and  N_8
REMARK    3  A    between atoms: N_8  and  C_13
REMARK    4  A    between atoms: C_9  and  C_11
REMARK    5  A    between atoms: C_14  and  C_15
REMARK    6  A    between atoms: C_19  and  C_20
REMARK                            x       y       z     vdW  Elec       q    Type
REMARK                         _______ _______ _______ _____ _____    ______ ____
ROOT
ATOM      1  N   UNL     1       3.200   4.916  18.364  0.00  0.00    +0.000 N 
ATOM      2  C   UNL     1       2.282   4.110  17.644  0.00  0.00    +0.000 C 
ATOM      3  O   UNL     1       1.113   4.448  17.421  0.00  0.00    +0.000 OA
ENDROOT
BRANCH   1   4
ATOM      4  C   UNL     1       2.620   5.981  19.154  0.00  0.00    +0.000 A 
ATOM      5  C   UNL     1       2.048   5.686  20.419  0.00  0.00    +0.000 A 
ATOM      6  C   UNL     1       2.154   4.348  21.103  0.00  0.00    +0.000 C 
ATOM      7  C   UNL     1       1.378   6.695  21.132  0.00  0.00    +0.000 A 
ATOM      8  C   UNL     1       1.297   7.988  20.632  0.00  0.00    +0.000 A 
ATOM      9  C   UNL     1       1.894   8.295  19.416  0.00  0.00    +0.000 A 
ATOM     10  C   UNL     1       2.554   7.310  18.658  0.00  0.00    +0.000 A 
ATOM     11  C   UNL     1       3.096   7.732  17.319  0.00  0.00    +0.000 C 
ENDBRANCH   1   4
BRANCH   1  13
ATOM     12  C   UNL     1       5.441   4.847  19.212  0.00  0.00    +0.000 C 
ATOM     13  C   UNL     1       4.582   4.824  18.172  0.00  0.00    +0.000 C 
BRANCH  13  14
ATOM     14  C   UNL     1       5.123   4.749  16.842  0.00  0.00    +0.000 A 
ATOM     15  C   UNL     1       5.255   5.728  15.859  0.00  0.00    +0.000 A 
ATOM     16  C   UNL     1       5.948   5.174  14.757  0.00  0.00    +0.000 A 
ATOM     17  C   UNL     1       6.201   3.873  15.094  0.00  0.00    +0.000 A 
ATOM     18  O   UNL     1       5.710   3.602  16.326  0.00  0.00    +0.000 OA
ENDBRANCH  13  14
ENDBRANCH   1  13
BRANCH   2  19
ATOM     19  C   UNL     1       2.770   2.735  17.206  0.00  0.00    +0.000 C 
ATOM     20 CL   UNL     1       3.001   1.717  18.655  0.00  0.00    +0.000 Cl
ENDBRANCH   2  19
TORSDOF 4
ENDMDL
MODEL 4
REMARK VINA RESULT:      -7.0      2.118      3.450
REMARK  Name = 
REMARK  6 active torsions:
REMARK  status: ('A' for Active; 'I' for Inactive)
REMARK    1  A    between atoms: C_2  and  C_3
REMARK    2  A    between atoms: C_2  and  N_8
REMARK    3  A    between atoms: N_8  and  C_13
REMARK    4  A    between atoms: C_9  and  C_11
REMARK    5  A    between atoms: C_14  and  C_15
REMARK    6  A    between atoms: C_19  and  C_20
REMARK                            x       y       z     vdW  Elec       q    Type
REMARK                         _______ _______ _______ _____ _____    ______ ____
ROOT
ATOM      1  N   UNL     1       3.206   4.991  18.415  0.00  0.00    +0.000 N 
ATOM      2  C   UNL     1       2.387   4.125  17.647  0.00  0.00    +0.000 C 
ATOM      3  O   UNL     1       1.209   4.379  17.367  0.00  0.00    +0.000 OA
ENDROOT
BRANCH   1   4
ATOM      4  C   UNL     1       2.512   6.006  19.177  0.00  0.00    +0.000 A 
ATOM      5  C   UNL     1       2.465   7.340  18.693  0.00  0.00    +0.000 A 
ATOM      6  C   UNL     1       2.940   7.760  17.326  0.00  0.00    +0.000 C 
ATOM      7  C   UNL     1       1.896   8.349  19.488  0.00  0.00    +0.000 A 
ATOM      8  C   UNL     1       1.349   8.056  20.730  0.00  0.00    +0.000 A 
ATOM      9  C   UNL     1       1.351   6.746  21.191  0.00  0.00    +0.000 A 
ATOM     10  C   UNL     1       1.931   5.708  20.437  0.00  0.00    +0.000 A 
ATOM     11  C   UNL     1       1.949   4.340  21.066  0.00  0.00    +0.000 C 
ENDBRANCH   1   4
BRANCH   1  13
ATOM     12  C   UNL     1       5.400   5.130  19.371  0.00  0.00    +0.000 C 
ATOM     13  C   UNL     1       4.600   5.000  18.293  0.00  0.00    +0.000 C 
BRANCH  13  14
ATOM     14  C   UNL     1       5.211   4.918  16.994  0.00  0.00    +0.000 A 
ATOM     15  C   UNL     1       5.090   5.746  15.880  0.00  0.00    +0.000 A 
ATOM     16  C   UNL     1       5.981   5.292  14.878  0.00  0.00    +0.000 A 
ATOM     17  C   UNL     1       6.604   4.195  15.406  0.00  0.00    +0.000 A 
ATOM     18  O   UNL     1       6.152   3.955  16.659  0.00  0.00    +0.000 OA
ENDBRANCH  13  14
ENDBRANCH   1  13
BRANCH   2  19
ATOM     19  C   UNL     1       2.996   2.792  17.231  0.00  0.00    +0.000 C 
ATOM     20 CL   UNL     1       3.105   1.735  18.666  0.00  0.00    +0.000 Cl
ENDBRANCH   2  19
TORSDOF 4
ENDMDL
MODEL 5
REMARK VINA RESULT:      -6.6      2.401      3.779
REMARK  Name = 
REMARK  6 active torsions:
REMARK  status: ('A' for Active; 'I' for Inactive)
REMARK    1  A    between atoms: C_2  and  C_3
REMARK    2  A    between atoms: C_2  and  N_8
REMARK    3  A    between atoms: N_8  and  C_13
REMARK    4  A    between atoms: C_9  and  C_11
REMARK    5  A    between atoms: C_14  and  C_15
REMARK    6  A    between atoms: C_19  and  C_20
REMARK                            x       y       z     vdW  Elec       q    Type
REMARK                         _______ _______ _______ _____ _____    ______ ____
ROOT
ATOM      1  N   UNL     1       3.106   4.315  18.618  0.00  0.00    +0.000 N 
ATOM      2  C   UNL     1       2.201   3.704  17.713  0.00  0.00    +0.000 C 
ATOM      3  O   UNL     1       1.290   4.321  17.147  0.00  0.00    +0.000 OA
ENDROOT
BRANCH   1   4
ATOM      4  C   UNL     1       2.699   5.599  19.149  0.00  0.00    +0.000 A 
ATOM      5  C   UNL     1       1.942   5.656  20.348  0.00  0.00    +0.000 A 
ATOM      6  C   UNL     1       1.670   4.466  21.233  0.00  0.00    +0.000 C 
ATOM      7  C   UNL     1       1.444   6.890  20.799  0.00  0.00    +0.000 A 
ATOM      8  C   UNL     1       1.711   8.062  20.105  0.00  0.00    +0.000 A 
ATOM      9  C   UNL     1       2.489   8.021  18.955  0.00  0.00    +0.000 A 
ATOM     10  C   UNL     1       2.988   6.803  18.455  0.00  0.00    +0.000 A 
ATOM     11  C   UNL     1       3.752   6.862  17.160  0.00  0.00    +0.000 C 
ENDBRANCH   1   4
BRANCH   1  13
ATOM     12  C   UNL     1       4.702   3.122  19.951  0.00  0.00    +0.000 C 
ATOM     13  C   UNL     1       4.394   3.814  18.835  0.00  0.00    +0.000 C 
BRANCH  13  14
ATOM     14  C   UNL     1       5.439   4.073  17.881  0.00  0.00    +0.000 A 
ATOM     15  C   UNL     1       5.429   4.028  16.489  0.00  0.00    +0.000 A 
ATOM     16  C   UNL     1       6.684   4.471  16.011  0.00  0.00    +0.000 A 
ATOM     17  C   UNL     1       7.424   4.757  17.125  0.00  0.00    +0.000 A 
ATOM     18  O   UNL     1       6.702   4.519  18.244  0.00  0.00    +0.000 OA
ENDBRANCH  13  14
ENDBRANCH   1  13
BRANCH   2  19
ATOM     19  C   UNL     1       2.339   2.201  17.511  0.00  0.00    +0.000 C 
ATOM     20 CL   UNL     1       1.695   1.365  18.951  0.00  0.00    +0.000 Cl
ENDBRANCH   2  19
TORSDOF 4
ENDMDL
MODEL 6
REMARK VINA RESULT:      -6.5      0.895      2.150
REMARK  Name = 
REMARK  6 active torsions:
REMARK  status: ('A' for Active; 'I' for Inactive)
REMARK    1  A    between atoms: C_2  and  C_3
REMARK    2  A    between atoms: C_2  and  N_8
REMARK    3  A    between atoms: N_8  and  C_13
REMARK    4  A    between atoms: C_9  and  C_11
REMARK    5  A    between atoms: C_14  and  C_15
REMARK    6  A    between atoms: C_19  and  C_20
REMARK                            x       y       z     vdW  Elec       q    Type
REMARK                         _______ _______ _______ _____ _____    ______ ____
ROOT
ATOM      1  N   UNL     1       4.731   5.197  17.910  0.00  0.00    +0.000 N 
ATOM      2  C   UNL     1       5.853   4.973  18.748  0.00  0.00    +0.000 C 
ATOM      3  O   UNL     1       5.911   4.048  19.568  0.00  0.00    +0.000 OA
ENDROOT
BRANCH   1   4
ATOM      4  C   UNL     1       3.505   4.538  18.305  0.00  0.00    +0.000 A 
ATOM      5  C   UNL     1       3.244   3.216  17.862  0.00  0.00    +0.000 A 
ATOM      6  C   UNL     1       4.246   2.353  17.138  0.00  0.00    +0.000 C 
ATOM      7  C   UNL     1       2.003   2.619  18.144  0.00  0.00    +0.000 A 
ATOM      8  C   UNL     1       1.039   3.294  18.880  0.00  0.00    +0.000 A 
ATOM      9  C   UNL     1       1.304   4.572  19.356  0.00  0.00    +0.000 A 
ATOM     10  C   UNL     1       2.525   5.215  19.077  0.00  0.00    +0.000 A 
ATOM     11  C   UNL     1       2.678   6.628  19.573  0.00  0.00    +0.000 C 
ENDBRANCH   1   4
BRANCH   1  13
ATOM     12  C   UNL     1       4.240   7.030  16.444  0.00  0.00    +0.000 C 
ATOM     13  C   UNL     1       4.842   5.845  16.675  0.00  0.00    +0.000 C 
BRANCH  13  14
ATOM     14  C   UNL     1       5.571   5.229  15.599  0.00  0.00    +0.000 A 
ATOM     15  C   UNL     1       5.180   4.263  14.675  0.00  0.00    +0.000 A 
ATOM     16  C   UNL     1       6.234   4.065  13.751  0.00  0.00    +0.000 A 
ATOM     17  C   UNL     1       7.238   4.904  14.151  0.00  0.00    +0.000 A 
ATOM     18  O   UNL     1       6.863   5.596  15.251  0.00  0.00    +0.000 OA
ENDBRANCH  13  14
ENDBRANCH   1  13
BRANCH   2  19
ATOM     19  C   UNL     1       6.989   5.984  18.662  0.00  0.00    +0.000 C 
ATOM     20 CL   UNL     1       8.203   5.593  19.912  0.00  0.00    +0.000 Cl
ENDBRANCH   2  19
TORSDOF 4
ENDMDL
MODEL 7
REMARK VINA RESULT:      -6.5      1.818      3.234
REMARK  Name = 
REMARK  6 active torsions:
REMARK  status: ('A' for Active; 'I' for Inactive)
REMARK    1  A    between atoms: C_2  and  C_3
REMARK    2  A    between atoms: C_2  and  N_8
REMARK    3  A    between atoms: N_8  and  C_13
REMARK    4  A    between atoms: C_9  and  C_11
REMARK    5  A    between atoms: C_14  and  C_15
REMARK    6  A    between atoms: C_19  and  C_20
REMARK                            x       y       z     vdW  Elec       q    Type
REMARK                         _______ _______ _______ _____ _____    ______ ____
ROOT
ATOM      1  N   UNL     1       3.901   5.023  18.708  0.00  0.00    +0.000 N 
ATOM      2  C   UNL     1       5.138   4.519  19.185  0.00  0.00    +0.000 C 
ATOM      3  O   UNL     1       5.314   3.333  19.487  0.00  0.00    +0.000 OA
ENDROOT
BRANCH   1   4
ATOM      4  C   UNL     1       2.745   4.185  18.941  0.00  0.00    +0.000 A 
ATOM      5  C   UNL     1       2.085   4.231  20.196  0.00  0.00    +0.000 A 
ATOM      6  C   UNL     1       2.389   5.239  21.275  0.00  0.00    +0.000 C 
ATOM      7  C   UNL     1       1.038   3.332  20.466  0.00  0.00    +0.000 A 
ATOM      8  C   UNL     1       0.618   2.419  19.508  0.00  0.00    +0.000 A 
ATOM      9  C   UNL     1       1.230   2.398  18.261  0.00  0.00    +0.000 A 
ATOM     10  C   UNL     1       2.297   3.264  17.958  0.00  0.00    +0.000 A 
ATOM     11  C   UNL     1       2.940   3.103  16.606  0.00  0.00    +0.000 C 
ENDBRANCH   1   4
BRANCH   1  13
ATOM     12  C   UNL     1       4.559   6.266  16.767  0.00  0.00    +0.000 C 
ATOM     13  C   UNL     1       3.824   6.157  17.892  0.00  0.00    +0.000 C 
BRANCH  13  14
ATOM     14  C   UNL     1       2.983   7.261  18.269  0.00  0.00    +0.000 A 
ATOM     15  C   UNL     1       2.393   8.258  17.495  0.00  0.00    +0.000 A 
ATOM     16  C   UNL     1       1.570   9.052  18.329  0.00  0.00    +0.000 A 
ATOM     17  C   UNL     1       1.697   8.526  19.584  0.00  0.00    +0.000 A 
ATOM     18  O   UNL     1       2.539   7.466  19.568  0.00  0.00    +0.000 OA
ENDBRANCH  13  14
ENDBRANCH   1  13
BRANCH   2  19
ATOM     19  C   UNL     1       6.258   5.530  19.396  0.00  0.00    +0.000 C 
ATOM     20 CL   UNL     1       7.618   5.117  18.316  0.00  0.00    +0.000 Cl
ENDBRANCH   2  19
TORSDOF 4
ENDMDL
MODEL 8
REMARK VINA RESULT:      -6.4      1.824      3.734
REMARK  Name = 
REMARK  6 active torsions:
REMARK  status: ('A' for Active; 'I' for Inactive)
REMARK    1  A    between atoms: C_2  and  C_3
REMARK    2  A    between atoms: C_2  and  N_8
REMARK    3  A    between atoms: N_8  and  C_13
REMARK    4  A    between atoms: C_9  and  C_11
REMARK    5  A    between atoms: C_14  and  C_15
REMARK    6  A    between atoms: C_19  and  C_20
REMARK                            x       y       z     vdW  Elec       q    Type
REMARK                         _______ _______ _______ _____ _____    ______ ____
ROOT
ATOM      1  N   UNL     1       3.926   5.014  18.746  0.00  0.00    +0.000 N 
ATOM      2  C   UNL     1       5.192   4.559  19.195  0.00  0.00    +0.000 C 
ATOM      3  O   UNL     1       5.425   3.378  19.481  0.00  0.00    +0.000 OA
ENDROOT
BRANCH   1   4
ATOM      4  C   UNL     1       2.812   4.124  18.992  0.00  0.00    +0.000 A 
ATOM      5  C   UNL     1       2.375   3.245  17.967  0.00  0.00    +0.000 A 
ATOM      6  C   UNL     1       3.108   3.030  16.668  0.00  0.00    +0.000 C 
ATOM      7  C   UNL     1       1.220   2.468  18.161  0.00  0.00    +0.000 A 
ATOM      8  C   UNL     1       0.517   2.523  19.357  0.00  0.00    +0.000 A 
ATOM      9  C   UNL     1       0.964   3.348  20.382  0.00  0.00    +0.000 A 
ATOM     10  C   UNL     1       2.102   4.160  20.221  0.00  0.00    +0.000 A 
ATOM     11  C   UNL     1       2.452   5.074  21.364  0.00  0.00    +0.000 C 
ENDBRANCH   1   4
BRANCH   1  13
ATOM     12  C   UNL     1       4.456   6.279  16.780  0.00  0.00    +0.000 C 
ATOM     13  C   UNL     1       3.785   6.150  17.943  0.00  0.00    +0.000 C 
BRANCH  13  14
ATOM     14  C   UNL     1       2.946   7.237  18.372  0.00  0.00    +0.000 A 
ATOM     15  C   UNL     1       2.329   8.250  17.642  0.00  0.00    +0.000 A 
ATOM     16  C   UNL     1       1.523   9.015  18.518  0.00  0.00    +0.000 A 
ATOM     17  C   UNL     1       1.686   8.454  19.755  0.00  0.00    +0.000 A 
ATOM     18  O   UNL     1       2.535   7.402  19.687  0.00  0.00    +0.000 OA
ENDBRANCH  13  14
ENDBRANCH   1  13
BRANCH   2  19
ATOM     19  C   UNL     1       6.272   5.615  19.395  0.00  0.00    +0.000 C 
ATOM     20 CL   UNL     1       7.660   5.225  18.342  0.00  0.00    +0.000 Cl
ENDBRANCH   2  19
TORSDOF 4
ENDMDL
MODEL 9
REMARK VINA RESULT:      -6.4      1.479      2.255
REMARK  Name = 
REMARK  6 active torsions:
REMARK  status: ('A' for Active; 'I' for Inactive)
REMARK    1  A    between atoms: C_2  and  C_3
REMARK    2  A    between atoms: C_2  and  N_8
REMARK    3  A    between atoms: N_8  and  C_13
REMARK    4  A    between atoms: C_9  and  C_11
REMARK    5  A    between atoms: C_14  and  C_15
REMARK    6  A    between atoms: C_19  and  C_20
REMARK                            x       y       z     vdW  Elec       q    Type
REMARK                         _______ _______ _______ _____ _____    ______ ____
ROOT
ATOM      1  N   UNL     1       4.778   4.654  18.288  0.00  0.00    +0.000 N 
ATOM      2  C   UNL     1       6.059   4.884  18.850  0.00  0.00    +0.000 C 
ATOM      3  O   UNL     1       6.235   5.170  20.041  0.00  0.00    +0.000 OA
ENDROOT
BRANCH   1   4
ATOM      4  C   UNL     1       3.653   5.132  19.063  0.00  0.00    +0.000 A 
ATOM      5  C   UNL     1       3.159   6.445  18.848  0.00  0.00    +0.000 A 
ATOM      6  C   UNL     1       3.609   7.344  17.726  0.00  0.00    +0.000 C 
ATOM      7  C   UNL     1       2.147   6.953  19.681  0.00  0.00    +0.000 A 
ATOM      8  C   UNL     1       1.599   6.175  20.692  0.00  0.00    +0.000 A 
ATOM      9  C   UNL     1       2.046   4.874  20.880  0.00  0.00    +0.000 A 
ATOM     10  C   UNL     1       3.074   4.334  20.084  0.00  0.00    +0.000 A 
ATOM     11  C   UNL     1       3.536   2.942  20.423  0.00  0.00    +0.000 C 
ENDBRANCH   1   4
BRANCH   1  13
ATOM     12  C   UNL     1       3.883   2.700  17.225  0.00  0.00    +0.000 C 
ATOM     13  C   UNL     1       4.593   3.845  17.162  0.00  0.00    +0.000 C 
BRANCH  13  14
ATOM     14  C   UNL     1       5.205   4.202  15.910  0.00  0.00    +0.000 A 
ATOM     15  C   UNL     1       5.212   5.408  15.214  0.00  0.00    +0.000 A 
ATOM     16  C   UNL     1       6.047   5.273  14.079  0.00  0.00    +0.000 A 
ATOM     17  C   UNL     1       6.508   3.986  14.111  0.00  0.00    +0.000 A 
ATOM     18  O   UNL     1       6.012   3.334  15.188  0.00  0.00    +0.000 OA
ENDBRANCH  13  14
ENDBRANCH   1  13
BRANCH   2  19
ATOM     19  C   UNL     1       7.246   4.844  17.897  0.00  0.00    +0.000 C 
ATOM     20 CL   UNL     1       7.677   6.517  17.445  0.00  0.00    +0.000 Cl
ENDBRANCH   2  19
TORSDOF 4
ENDMDL
