MODEL 1
REMARK VINA RESULT:      -7.6      0.000      0.000
REMARK  Name = 
REMARK  9 active torsions:
REMARK  status: ('A' for Active; 'I' for Inactive)
REMARK    1  A    between atoms: C_2  and  O_3
REMARK    2  A    between atoms: C_2  and  C_4
REMARK    3  A    between atoms: C_4  and  C_5
REMARK    4  A    between atoms: C_5  and  N_6
REMARK    5  A    between atoms: N_6  and  C_7
REMARK    6  A    between atoms: N_6  and  C_15
REMARK    7  A    between atoms: C_7  and  C_8
REMARK    8  A    between atoms: C_8  and  C_9
REMARK    9  A    between atoms: C_15  and  C_16
REMARK                            x       y       z     vdW  Elec       q    Type
REMARK                         _______ _______ _______ _____ _____    ______ ____
ROOT
ATOM      1  N   UNL     1       4.335   4.575  16.689  0.00  0.00    +0.000 NA
ENDROOT
BRANCH   1   2
ATOM      2  C   UNL     1       5.417   3.614  16.319  0.00  0.00    +0.000 C 
BRANCH   2   3
ATOM      3  C   UNL     1       6.080   3.852  14.954  0.00  0.00    +0.000 C 
BRANCH   3   5
ATOM      4  O   UNL     1       7.656   5.559  14.231  0.00  0.00    +0.000 OA
ATOM      5  C   UNL     1       7.263   4.782  15.086  0.00  0.00    +0.000 C 
BRANCH   5   6
ATOM      6  O   UNL     1       7.850   4.698  16.305  0.00  0.00    +0.000 OA
ATOM      7  H   UNL     1       8.824   4.744  16.279  0.00  0.00    +0.000 HD
ENDBRANCH   5   6
ENDBRANCH   3   5
ENDBRANCH   2   3
ENDBRANCH   1   2
BRANCH   1   8
ATOM      8  C   UNL     1       3.040   3.870  16.853  0.00  0.00    +0.000 C 
BRANCH   8   9
ATOM      9  C   UNL     1       3.081   2.540  17.638  0.00  0.00    +0.000 C 
BRANCH   9  10
ATOM     10  C   UNL     1       2.533   2.749  19.033  0.00  0.00    +0.000 A 
ATOM     11  C   UNL     1       3.364   2.564  20.147  0.00  0.00    +0.000 A 
ATOM     12  C   UNL     1       2.848   2.661  21.440  0.00  0.00    +0.000 A 
ATOM     13  C   UNL     1       1.497   2.946  21.630  0.00  0.00    +0.000 A 
ATOM     14  C   UNL     1       0.665   3.146  20.530  0.00  0.00    +0.000 A 
ATOM     15  C   UNL     1       1.180   3.049  19.236  0.00  0.00    +0.000 A 
ENDBRANCH   9  10
ENDBRANCH   8   9
ENDBRANCH   1   8
BRANCH   1  16
ATOM     16  C   UNL     1       4.708   5.236  17.970  0.00  0.00    +0.000 C 
BRANCH  16  17
ATOM     17  C   UNL     1       3.691   6.202  18.480  0.00  0.00    +0.000 A 
ATOM     18  C   UNL     1       2.994   6.302  19.667  0.00  0.00    +0.000 A 
ATOM     19  C   UNL     1       2.226   7.492  19.590  0.00  0.00    +0.000 A 
ATOM     20  C   UNL     1       1.338   8.170  20.444  0.00  0.00    +0.000 A 
ATOM     21  C   UNL     1       0.753   9.363  19.997  0.00  0.00    +0.000 A 
ATOM     22  C   UNL     1       1.046   9.879  18.732  0.00  0.00    +0.000 A 
ATOM     23  C   UNL     1       1.934   9.224  17.871  0.00  0.00    +0.000 A 
ATOM     24  C   UNL     1       2.498   8.039  18.342  0.00  0.00    +0.000 A 
ATOM     25  O   UNL     1       3.389   7.259  17.668  0.00  0.00    +0.000 OA
ENDBRANCH  16  17
ENDBRANCH   1  16
TORSDOF 9
ENDMDL
MODEL 2
REMARK VINA RESULT:      -7.4      2.534      5.898
REMARK  Name = 
REMARK  9 active torsions:
REMARK  status: ('A' for Active; 'I' for Inactive)
REMARK    1  A    between atoms: C_2  and  O_3
REMARK    2  A    between atoms: C_2  and  C_4
REMARK    3  A    between atoms: C_4  and  C_5
REMARK    4  A    between atoms: C_5  and  N_6
REMARK    5  A    between atoms: N_6  and  C_7
REMARK    6  A    between atoms: N_6  and  C_15
REMARK    7  A    between atoms: C_7  and  C_8
REMARK    8  A    between atoms: C_8  and  C_9
REMARK    9  A    between atoms: C_15  and  C_16
REMARK                            x       y       z     vdW  Elec       q    Type
REMARK                         _______ _______ _______ _____ _____    ______ ____
ROOT
ATOM      1  N   UNL     1       5.576   6.321  17.222  0.00  0.00    +0.000 NA
ENDROOT
BRANCH   1   2
ATOM      2  C   UNL     1       5.964   5.066  17.933  0.00  0.00    +0.000 C 
BRANCH   2   3
ATOM      3  C   UNL     1       7.468   4.885  18.192  0.00  0.00    +0.000 C 
BRANCH   3   5
ATOM      4  O   UNL     1       7.950   5.388  20.523  0.00  0.00    +0.000 OA
ATOM      5  C   UNL     1       7.919   5.738  19.355  0.00  0.00    +0.000 C 
BRANCH   5   6
ATOM      6  O   UNL     1       8.338   6.965  18.960  0.00  0.00    +0.000 OA
ATOM      7  H   UNL     1       8.712   7.506  19.681  0.00  0.00    +0.000 HD
ENDBRANCH   5   6
ENDBRANCH   3   5
ENDBRANCH   2   3
ENDBRANCH   1   2
BRANCH   1   8
ATOM      8  C   UNL     1       5.278   6.046  15.796  0.00  0.00    +0.000 C 
BRANCH   8   9
ATOM      9  C   UNL     1       5.174   4.557  15.394  0.00  0.00    +0.000 C 
BRANCH   9  10
ATOM     10  C   UNL     1       5.824   4.342  14.045  0.00  0.00    +0.000 A 
ATOM     11  C   UNL     1       5.246   3.457  13.123  0.00  0.00    +0.000 A 
ATOM     12  C   UNL     1       5.885   3.178  11.914  0.00  0.00    +0.000 A 
ATOM     13  C   UNL     1       7.105   3.781  11.616  0.00  0.00    +0.000 A 
ATOM     14  C   UNL     1       7.681   4.673  12.519  0.00  0.00    +0.000 A 
ATOM     15  C   UNL     1       7.043   4.954  13.729  0.00  0.00    +0.000 A 
ENDBRANCH   9  10
ENDBRANCH   8   9
ENDBRANCH   1   8
BRANCH   1  16
ATOM     16  C   UNL     1       4.367   6.885  17.884  0.00  0.00    +0.000 C 
BRANCH  16  17
ATOM     17  C   UNL     1       3.426   5.858  18.420  0.00  0.00    +0.000 A 
ATOM     18  C   UNL     1       2.514   5.011  17.824  0.00  0.00    +0.000 A 
ATOM     19  C   UNL     1       1.974   4.202  18.857  0.00  0.00    +0.000 A 
ATOM     20  C   UNL     1       1.038   3.155  18.926  0.00  0.00    +0.000 A 
ATOM     21  C   UNL     1       0.755   2.586  20.176  0.00  0.00    +0.000 A 
ATOM     22  C   UNL     1       1.390   3.040  21.335  0.00  0.00    +0.000 A 
ATOM     23  C   UNL     1       2.332   4.075  21.285  0.00  0.00    +0.000 A 
ATOM     24  C   UNL     1       2.590   4.623  20.030  0.00  0.00    +0.000 A 
ATOM     25  O   UNL     1       3.474   5.626  19.766  0.00  0.00    +0.000 OA
ENDBRANCH  16  17
ENDBRANCH   1  16
TORSDOF 9
ENDMDL
MODEL 3
REMARK VINA RESULT:      -7.4      0.843      1.344
REMARK  Name = 
REMARK  9 active torsions:
REMARK  status: ('A' for Active; 'I' for Inactive)
REMARK    1  A    between atoms: C_2  and  O_3
REMARK    2  A    between atoms: C_2  and  C_4
REMARK    3  A    between atoms: C_4  and  C_5
REMARK    4  A    between atoms: C_5  and  N_6
REMARK    5  A    between atoms: N_6  and  C_7
REMARK    6  A    between atoms: N_6  and  C_15
REMARK    7  A    between atoms: C_7  and  C_8
REMARK    8  A    between atoms: C_8  and  C_9
REMARK    9  A    between atoms: C_15  and  C_16
REMARK                            x       y       z     vdW  Elec       q    Type
REMARK                         _______ _______ _______ _____ _____    ______ ____
ROOT
ATOM      1  N   UNL     1       4.076   4.789  17.164  0.00  0.00    +0.000 NA
ENDROOT
BRANCH   1   2
ATOM      2  C   UNL     1       4.992   5.361  16.133  0.00  0.00    +0.000 C 
BRANCH   2   3
ATOM      3  C   UNL     1       6.411   4.773  16.104  0.00  0.00    +0.000 C 
BRANCH   3   5
ATOM      4  O   UNL     1       7.684   5.432  14.138  0.00  0.00    +0.000 OA
ATOM      5  C   UNL     1       6.916   4.658  14.684  0.00  0.00    +0.000 C 
BRANCH   5   6
ATOM      6  O   UNL     1       6.447   3.550  14.060  0.00  0.00    +0.000 OA
ATOM      7  H   UNL     1       7.038   2.776  14.131  0.00  0.00    +0.000 HD
ENDBRANCH   5   6
ENDBRANCH   3   5
ENDBRANCH   2   3
ENDBRANCH   1   2
BRANCH   1   8
ATOM      8  C   UNL     1       4.302   3.331  17.318  0.00  0.00    +0.000 C 
BRANCH   8   9
ATOM      9  C   UNL     1       3.040   2.461  17.510  0.00  0.00    +0.000 C 
BRANCH   9  10
ATOM     10  C   UNL     1       2.469   2.680  18.894  0.00  0.00    +0.000 A 
ATOM     11  C   UNL     1       1.200   3.259  19.045  0.00  0.00    +0.000 A 
ATOM     12  C   UNL     1       0.703   3.552  20.315  0.00  0.00    +0.000 A 
ATOM     13  C   UNL     1       1.468   3.271  21.444  0.00  0.00    +0.000 A 
ATOM     14  C   UNL     1       2.725   2.682  21.306  0.00  0.00    +0.000 A 
ATOM     15  C   UNL     1       3.224   2.387  20.037  0.00  0.00    +0.000 A 
ENDBRANCH   9  10
ENDBRANCH   8   9
ENDBRANCH   1   8
BRANCH   1  16
ATOM     16  C   UNL     1       4.338   5.472  18.461  0.00  0.00    +0.000 C 
BRANCH  16  17
ATOM     17  C   UNL     1       3.325   6.506  18.825  0.00  0.00    +0.000 A 
ATOM     18  C   UNL     1       2.552   6.717  19.949  0.00  0.00    +0.000 A 
ATOM     19  C   UNL     1       1.836   7.922  19.731  0.00  0.00    +0.000 A 
ATOM     20  C   UNL     1       0.917   8.691  20.467  0.00  0.00    +0.000 A 
ATOM     21  C   UNL     1       0.409   9.865  19.893  0.00  0.00    +0.000 A 
ATOM     22  C   UNL     1       0.808  10.275  18.618  0.00  0.00    +0.000 A 
ATOM     23  C   UNL     1       1.729   9.528  17.874  0.00  0.00    +0.000 A 
ATOM     24  C   UNL     1       2.214   8.365  18.469  0.00  0.00    +0.000 A 
ATOM     25  O   UNL     1       3.119   7.508  17.919  0.00  0.00    +0.000 OA
ENDBRANCH  16  17
ENDBRANCH   1  16
TORSDOF 9
ENDMDL
MODEL 4
REMARK VINA RESULT:      -7.3      0.881      1.432
REMARK  Name = 
REMARK  9 active torsions:
REMARK  status: ('A' for Active; 'I' for Inactive)
REMARK    1  A    between atoms: C_2  and  O_3
REMARK    2  A    between atoms: C_2  and  C_4
REMARK    3  A    between atoms: C_4  and  C_5
REMARK    4  A    between atoms: C_5  and  N_6
REMARK    5  A    between atoms: N_6  and  C_7
REMARK    6  A    between atoms: N_6  and  C_15
REMARK    7  A    between atoms: C_7  and  C_8
REMARK    8  A    between atoms: C_8  and  C_9
REMARK    9  A    between atoms: C_15  and  C_16
REMARK                            x       y       z     vdW  Elec       q    Type
REMARK                         _______ _______ _______ _____ _____    ______ ____
ROOT
ATOM      1  N   UNL     1       4.615   4.143  16.643  0.00  0.00    +0.000 NA
ENDROOT
BRANCH   1   2
ATOM      2  C   UNL     1       5.694   3.905  15.638  0.00  0.00    +0.000 C 
BRANCH   2   3
ATOM      3  C   UNL     1       6.174   5.145  14.870  0.00  0.00    +0.000 C 
BRANCH   3   5
ATOM      4  O   UNL     1       6.587   3.816  12.874  0.00  0.00    +0.000 OA
ATOM      5  C   UNL     1       6.891   4.747  13.601  0.00  0.00    +0.000 C 
BRANCH   5   6
ATOM      6  O   UNL     1       7.923   5.577  13.312  0.00  0.00    +0.000 OA
ATOM      7  H   UNL     1       8.764   5.115  13.133  0.00  0.00    +0.000 HD
ENDBRANCH   5   6
ENDBRANCH   3   5
ENDBRANCH   2   3
ENDBRANCH   1   2
BRANCH   1   8
ATOM      8  C   UNL     1       4.225   2.874  17.305  0.00  0.00    +0.000 C 
BRANCH   8   9
ATOM      9  C   UNL     1       2.709   2.607  17.432  0.00  0.00    +0.000 C 
BRANCH   9  10
ATOM     10  C   UNL     1       2.282   2.741  18.877  0.00  0.00    +0.000 A 
ATOM     11  C   UNL     1       1.033   3.299  19.190  0.00  0.00    +0.000 A 
ATOM     12  C   UNL     1       0.667   3.513  20.519  0.00  0.00    +0.000 A 
ATOM     13  C   UNL     1       1.544   3.172  21.546  0.00  0.00    +0.000 A 
ATOM     14  C   UNL     1       2.781   2.603  21.247  0.00  0.00    +0.000 A 
ATOM     15  C   UNL     1       3.149   2.388  19.918  0.00  0.00    +0.000 A 
ENDBRANCH   9  10
ENDBRANCH   8   9
ENDBRANCH   1   8
BRANCH   1  16
ATOM     16  C   UNL     1       5.121   5.102  17.663  0.00  0.00    +0.000 C 
BRANCH  16  17
ATOM     17  C   UNL     1       4.074   5.997  18.237  0.00  0.00    +0.000 A 
ATOM     18  C   UNL     1       3.447   6.050  19.465  0.00  0.00    +0.000 A 
ATOM     19  C   UNL     1       2.595   7.183  19.439  0.00  0.00    +0.000 A 
ATOM     20  C   UNL     1       1.716   7.800  20.348  0.00  0.00    +0.000 A 
ATOM     21  C   UNL     1       1.023   8.949  19.940  0.00  0.00    +0.000 A 
ATOM     22  C   UNL     1       1.201   9.482  18.661  0.00  0.00    +0.000 A 
ATOM     23  C   UNL     1       2.078   8.888  17.745  0.00  0.00    +0.000 A 
ATOM     24  C   UNL     1       2.750   7.746  18.177  0.00  0.00    +0.000 A 
ATOM     25  O   UNL     1       3.649   7.028  17.447  0.00  0.00    +0.000 OA
ENDBRANCH  16  17
ENDBRANCH   1  16
TORSDOF 9
ENDMDL
MODEL 5
REMARK VINA RESULT:      -7.3      1.405      4.470
REMARK  Name = 
REMARK  9 active torsions:
REMARK  status: ('A' for Active; 'I' for Inactive)
REMARK    1  A    between atoms: C_2  and  O_3
REMARK    2  A    between atoms: C_2  and  C_4
REMARK    3  A    between atoms: C_4  and  C_5
REMARK    4  A    between atoms: C_5  and  N_6
REMARK    5  A    between atoms: N_6  and  C_7
REMARK    6  A    between atoms: N_6  and  C_15
REMARK    7  A    between atoms: C_7  and  C_8
REMARK    8  A    between atoms: C_8  and  C_9
REMARK    9  A    between atoms: C_15  and  C_16
REMARK                            x       y       z     vdW  Elec       q    Type
REMARK                         _______ _______ _______ _____ _____    ______ ____
ROOT
ATOM      1  N   UNL     1       5.891   5.575  16.623  0.00  0.00    +0.000 NA
ENDROOT
BRANCH   1   2
ATOM      2  C   UNL     1       5.322   5.581  15.242  0.00  0.00    +0.000 C 
BRANCH   2   3
ATOM      3  C   UNL     1       5.699   4.380  14.361  0.00  0.00    +0.000 C 
BRANCH   3   5
ATOM      4  O   UNL     1       7.113   4.326  12.382  0.00  0.00    +0.000 OA
ATOM      5  C   UNL     1       6.926   4.684  13.534  0.00  0.00    +0.000 C 
BRANCH   5   6
ATOM      6  O   UNL     1       7.819   5.453  14.202  0.00  0.00    +0.000 OA
ATOM      7  H   UNL     1       7.442   5.919  14.972  0.00  0.00    +0.000 HD
ENDBRANCH   5   6
ENDBRANCH   3   5
ENDBRANCH   2   3
ENDBRANCH   1   2
BRANCH   1   8
ATOM      8  C   UNL     1       5.065   6.404  17.534  0.00  0.00    +0.000 C 
BRANCH   8   9
ATOM      9  C   UNL     1       3.885   7.163  16.887  0.00  0.00    +0.000 C 
BRANCH   9  10
ATOM     10  C   UNL     1       2.925   7.631  17.958  0.00  0.00    +0.000 A 
ATOM     11  C   UNL     1       2.216   8.829  17.788  0.00  0.00    +0.000 A 
ATOM     12  C   UNL     1       1.399   9.319  18.808  0.00  0.00    +0.000 A 
ATOM     13  C   UNL     1       1.283   8.616  20.005  0.00  0.00    +0.000 A 
ATOM     14  C   UNL     1       1.972   7.417  20.179  0.00  0.00    +0.000 A 
ATOM     15  C   UNL     1       2.789   6.925  19.160  0.00  0.00    +0.000 A 
ENDBRANCH   9  10
ENDBRANCH   8   9
ENDBRANCH   1   8
BRANCH   1  16
ATOM     16  C   UNL     1       5.921   4.171  17.116  0.00  0.00    +0.000 C 
BRANCH  16  17
ATOM     17  C   UNL     1       4.805   3.824  18.045  0.00  0.00    +0.000 A 
ATOM     18  C   UNL     1       4.728   3.678  19.416  0.00  0.00    +0.000 A 
ATOM     19  C   UNL     1       3.368   3.419  19.722  0.00  0.00    +0.000 A 
ATOM     20  C   UNL     1       2.628   3.200  20.897  0.00  0.00    +0.000 A 
ATOM     21  C   UNL     1       1.249   2.970  20.792  0.00  0.00    +0.000 A 
ATOM     22  C   UNL     1       0.612   2.963  19.548  0.00  0.00    +0.000 A 
ATOM     23  C   UNL     1       1.330   3.188  18.367  0.00  0.00    +0.000 A 
ATOM     24  C   UNL     1       2.699   3.411  18.503  0.00  0.00    +0.000 A 
ATOM     25  O   UNL     1       3.570   3.659  17.485  0.00  0.00    +0.000 OA
ENDBRANCH  16  17
ENDBRANCH   1  16
TORSDOF 9
ENDMDL
MODEL 6
REMARK VINA RESULT:      -7.3      0.935      1.429
REMARK  Name = 
REMARK  9 active torsions:
REMARK  status: ('A' for Active; 'I' for Inactive)
REMARK    1  A    between atoms: C_2  and  O_3
REMARK    2  A    between atoms: C_2  and  C_4
REMARK    3  A    between atoms: C_4  and  C_5
REMARK    4  A    between atoms: C_5  and  N_6
REMARK    5  A    between atoms: N_6  and  C_7
REMARK    6  A    between atoms: N_6  and  C_15
REMARK    7  A    between atoms: C_7  and  C_8
REMARK    8  A    between atoms: C_8  and  C_9
REMARK    9  A    between atoms: C_15  and  C_16
REMARK                            x       y       z     vdW  Elec       q    Type
REMARK                         _______ _______ _______ _____ _____    ______ ____
ROOT
ATOM      1  N   UNL     1       4.336   4.822  17.453  0.00  0.00    +0.000 NA
ENDROOT
BRANCH   1   2
ATOM      2  C   UNL     1       4.919   4.207  16.224  0.00  0.00    +0.000 C 
BRANCH   2   3
ATOM      3  C   UNL     1       5.544   5.188  15.220  0.00  0.00    +0.000 C 
BRANCH   3   5
ATOM      4  O   UNL     1       7.779   5.384  14.279  0.00  0.00    +0.000 OA
ATOM      5  C   UNL     1       7.048   5.048  15.196  0.00  0.00    +0.000 C 
BRANCH   5   6
ATOM      6  O   UNL     1       7.534   4.528  16.349  0.00  0.00    +0.000 OA
ATOM      7  H   UNL     1       8.390   4.907  16.624  0.00  0.00    +0.000 HD
ENDBRANCH   5   6
ENDBRANCH   3   5
ENDBRANCH   2   3
ENDBRANCH   1   2
BRANCH   1   8
ATOM      8  C   UNL     1       5.102   4.418  18.657  0.00  0.00    +0.000 C 
BRANCH   8   9
ATOM      9  C   UNL     1       4.723   3.057  19.284  0.00  0.00    +0.000 C 
BRANCH   9  10
ATOM     10  C   UNL     1       3.231   3.001  19.526  0.00  0.00    +0.000 A 
ATOM     11  C   UNL     1       2.401   2.311  18.629  0.00  0.00    +0.000 A 
ATOM     12  C   UNL     1       1.016   2.331  18.788  0.00  0.00    +0.000 A 
ATOM     13  C   UNL     1       0.446   3.038  19.845  0.00  0.00    +0.000 A 
ATOM     14  C   UNL     1       1.262   3.715  20.751  0.00  0.00    +0.000 A 
ATOM     15  C   UNL     1       2.649   3.696  20.593  0.00  0.00    +0.000 A 
ENDBRANCH   9  10
ENDBRANCH   8   9
ENDBRANCH   1   8
BRANCH   1  16
ATOM     16  C   UNL     1       4.382   6.303  17.308  0.00  0.00    +0.000 C 
BRANCH  16  17
ATOM     17  C   UNL     1       3.348   7.029  18.103  0.00  0.00    +0.000 A 
ATOM     18  C   UNL     1       2.839   6.855  19.374  0.00  0.00    +0.000 A 
ATOM     19  C   UNL     1       1.929   7.920  19.598  0.00  0.00    +0.000 A 
ATOM     20  C   UNL     1       1.110   8.333  20.664  0.00  0.00    +0.000 A 
ATOM     21  C   UNL     1       0.322   9.480  20.502  0.00  0.00    +0.000 A 
ATOM     22  C   UNL     1       0.347  10.210  19.311  0.00  0.00    +0.000 A 
ATOM     23  C   UNL     1       1.163   9.821  18.242  0.00  0.00    +0.000 A 
ATOM     24  C   UNL     1       1.933   8.675  18.431  0.00  0.00    +0.000 A 
ATOM     25  O   UNL     1       2.795   8.137  17.523  0.00  0.00    +0.000 OA
ENDBRANCH  16  17
ENDBRANCH   1  16
TORSDOF 9
ENDMDL
MODEL 7
REMARK VINA RESULT:      -7.3      1.435      2.298
REMARK  Name = 
REMARK  9 active torsions:
REMARK  status: ('A' for Active; 'I' for Inactive)
REMARK    1  A    between atoms: C_2  and  O_3
REMARK    2  A    between atoms: C_2  and  C_4
REMARK    3  A    between atoms: C_4  and  C_5
REMARK    4  A    between atoms: C_5  and  N_6
REMARK    5  A    between atoms: N_6  and  C_7
REMARK    6  A    between atoms: N_6  and  C_15
REMARK    7  A    between atoms: C_7  and  C_8
REMARK    8  A    between atoms: C_8  and  C_9
REMARK    9  A    between atoms: C_15  and  C_16
REMARK                            x       y       z     vdW  Elec       q    Type
REMARK                         _______ _______ _______ _____ _____    ______ ____
ROOT
ATOM      1  N   UNL     1       4.471   5.285  17.154  0.00  0.00    +0.000 NA
ENDROOT
BRANCH   1   2
ATOM      2  C   UNL     1       5.831   5.655  16.662  0.00  0.00    +0.000 C 
BRANCH   2   3
ATOM      3  C   UNL     1       6.700   6.457  17.643  0.00  0.00    +0.000 C 
BRANCH   3   5
ATOM      4  O   UNL     1       7.927   4.400  18.069  0.00  0.00    +0.000 OA
ATOM      5  C   UNL     1       7.659   5.550  18.377  0.00  0.00    +0.000 C 
BRANCH   5   6
ATOM      6  O   UNL     1       8.246   6.167  19.431  0.00  0.00    +0.000 OA
ATOM      7  H   UNL     1       9.212   6.041  19.475  0.00  0.00    +0.000 HD
ENDBRANCH   5   6
ENDBRANCH   3   5
ENDBRANCH   2   3
ENDBRANCH   1   2
BRANCH   1   8
ATOM      8  C   UNL     1       4.305   3.811  17.178  0.00  0.00    +0.000 C 
BRANCH   8   9
ATOM      9  C   UNL     1       2.852   3.289  17.241  0.00  0.00    +0.000 C 
BRANCH   9  10
ATOM     10  C   UNL     1       2.391   3.221  18.680  0.00  0.00    +0.000 A 
ATOM     11  C   UNL     1       1.247   3.926  19.084  0.00  0.00    +0.000 A 
ATOM     12  C   UNL     1       0.866   3.948  20.426  0.00  0.00    +0.000 A 
ATOM     13  C   UNL     1       1.624   3.266  21.376  0.00  0.00    +0.000 A 
ATOM     14  C   UNL     1       2.754   2.551  20.983  0.00  0.00    +0.000 A 
ATOM     15  C   UNL     1       3.137   2.527  19.641  0.00  0.00    +0.000 A 
ENDBRANCH   9  10
ENDBRANCH   8   9
ENDBRANCH   1   8
BRANCH   1  16
ATOM     16  C   UNL     1       4.303   5.827  18.531  0.00  0.00    +0.000 C 
BRANCH  16  17
ATOM     17  C   UNL     1       3.310   6.936  18.636  0.00  0.00    +0.000 A 
ATOM     18  C   UNL     1       2.807   7.843  17.725  0.00  0.00    +0.000 A 
ATOM     19  C   UNL     1       1.822   8.602  18.408  0.00  0.00    +0.000 A 
ATOM     20  C   UNL     1       0.942   9.644  18.065  0.00  0.00    +0.000 A 
ATOM     21  C   UNL     1       0.087  10.155  19.051  0.00  0.00    +0.000 A 
ATOM     22  C   UNL     1       0.096   9.640  20.350  0.00  0.00    +0.000 A 
ATOM     23  C   UNL     1       0.958   8.597  20.708  0.00  0.00    +0.000 A 
ATOM     24  C   UNL     1       1.798   8.112  19.708  0.00  0.00    +0.000 A 
ATOM     25  O   UNL     1       2.699   7.099  19.848  0.00  0.00    +0.000 OA
ENDBRANCH  16  17
ENDBRANCH   1  16
TORSDOF 9
ENDMDL
MODEL 8
REMARK VINA RESULT:      -7.2      1.035      1.979
REMARK  Name = 
REMARK  9 active torsions:
REMARK  status: ('A' for Active; 'I' for Inactive)
REMARK    1  A    between atoms: C_2  and  O_3
REMARK    2  A    between atoms: C_2  and  C_4
REMARK    3  A    between atoms: C_4  and  C_5
REMARK    4  A    between atoms: C_5  and  N_6
REMARK    5  A    between atoms: N_6  and  C_7
REMARK    6  A    between atoms: N_6  and  C_15
REMARK    7  A    between atoms: C_7  and  C_8
REMARK    8  A    between atoms: C_8  and  C_9
REMARK    9  A    between atoms: C_15  and  C_16
REMARK                            x       y       z     vdW  Elec       q    Type
REMARK                         _______ _______ _______ _____ _____    ______ ____
ROOT
ATOM      1  N   UNL     1       4.351   4.826  17.598  0.00  0.00    +0.000 NA
ENDROOT
BRANCH   1   2
ATOM      2  C   UNL     1       4.833   4.098  16.387  0.00  0.00    +0.000 C 
BRANCH   2   3
ATOM      3  C   UNL     1       5.515   4.963  15.317  0.00  0.00    +0.000 C 
BRANCH   3   5
ATOM      4  O   UNL     1       7.634   4.402  16.374  0.00  0.00    +0.000 OA
ATOM      5  C   UNL     1       7.019   4.872  15.430  0.00  0.00    +0.000 C 
BRANCH   5   6
ATOM      6  O   UNL     1       7.648   5.346  14.328  0.00  0.00    +0.000 OA
ATOM      7  H   UNL     1       7.616   4.740  13.563  0.00  0.00    +0.000 HD
ENDBRANCH   5   6
ENDBRANCH   3   5
ENDBRANCH   2   3
ENDBRANCH   1   2
BRANCH   1   8
ATOM      8  C   UNL     1       5.107   4.403  18.802  0.00  0.00    +0.000 C 
BRANCH   8   9
ATOM      9  C   UNL     1       4.693   3.052  19.428  0.00  0.00    +0.000 C 
BRANCH   9  10
ATOM     10  C   UNL     1       3.191   3.002  19.597  0.00  0.00    +0.000 A 
ATOM     11  C   UNL     1       2.410   2.245  18.711  0.00  0.00    +0.000 A 
ATOM     12  C   UNL     1       1.018   2.265  18.798  0.00  0.00    +0.000 A 
ATOM     13  C   UNL     1       0.393   3.042  19.771  0.00  0.00    +0.000 A 
ATOM     14  C   UNL     1       1.159   3.788  20.666  0.00  0.00    +0.000 A 
ATOM     15  C   UNL     1       2.552   3.768  20.581  0.00  0.00    +0.000 A 
ENDBRANCH   9  10
ENDBRANCH   8   9
ENDBRANCH   1   8
BRANCH   1  16
ATOM     16  C   UNL     1       4.543   6.287  17.379  0.00  0.00    +0.000 C 
BRANCH  16  17
ATOM     17  C   UNL     1       3.513   7.146  18.034  0.00  0.00    +0.000 A 
ATOM     18  C   UNL     1       2.807   8.256  17.619  0.00  0.00    +0.000 A 
ATOM     19  C   UNL     1       1.905   8.579  18.665  0.00  0.00    +0.000 A 
ATOM     20  C   UNL     1       0.915   9.557  18.871  0.00  0.00    +0.000 A 
ATOM     21  C   UNL     1       0.207   9.555  20.081  0.00  0.00    +0.000 A 
ATOM     22  C   UNL     1       0.469   8.599  21.067  0.00  0.00    +0.000 A 
ATOM     23  C   UNL     1       1.443   7.613  20.877  0.00  0.00    +0.000 A 
ATOM     24  C   UNL     1       2.132   7.642  19.666  0.00  0.00    +0.000 A 
ATOM     25  O   UNL     1       3.106   6.770  19.283  0.00  0.00    +0.000 OA
ENDBRANCH  16  17
ENDBRANCH   1  16
TORSDOF 9
ENDMDL
MODEL 9
REMARK VINA RESULT:      -7.2      3.996      6.597
REMARK  Name = 
REMARK  9 active torsions:
REMARK  status: ('A' for Active; 'I' for Inactive)
REMARK    1  A    between atoms: C_2  and  O_3
REMARK    2  A    between atoms: C_2  and  C_4
REMARK    3  A    between atoms: C_4  and  C_5
REMARK    4  A    between atoms: C_5  and  N_6
REMARK    5  A    between atoms: N_6  and  C_7
REMARK    6  A    between atoms: N_6  and  C_15
REMARK    7  A    between atoms: C_7  and  C_8
REMARK    8  A    between atoms: C_8  and  C_9
REMARK    9  A    between atoms: C_15  and  C_16
REMARK                            x       y       z     vdW  Elec       q    Type
REMARK                         _______ _______ _______ _____ _____    ______ ____
ROOT
ATOM      1  N   UNL     1       6.971   6.076  17.945  0.00  0.00    +0.000 NA
ENDROOT
BRANCH   1   2
ATOM      2  C   UNL     1       5.729   6.578  17.285  0.00  0.00    +0.000 C 
BRANCH   2   3
ATOM      3  C   UNL     1       5.446   6.016  15.884  0.00  0.00    +0.000 C 
BRANCH   3   5
ATOM      4  O   UNL     1       6.211   3.726  15.583  0.00  0.00    +0.000 OA
ATOM      5  C   UNL     1       6.431   4.925  15.533  0.00  0.00    +0.000 C 
BRANCH   5   6
ATOM      6  O   UNL     1       7.616   5.421  15.104  0.00  0.00    +0.000 OA
ATOM      7  H   UNL     1       8.303   4.742  14.966  0.00  0.00    +0.000 HD
ENDBRANCH   5   6
ENDBRANCH   3   5
ENDBRANCH   2   3
ENDBRANCH   1   2
BRANCH   1   8
ATOM      8  C   UNL     1       7.920   7.188  18.194  0.00  0.00    +0.000 C 
BRANCH   8   9
ATOM      9  C   UNL     1       7.658   8.497  17.416  0.00  0.00    +0.000 C 
BRANCH   9  10
ATOM     10  C   UNL     1       8.339   9.654  18.113  0.00  0.00    +0.000 A 
ATOM     11  C   UNL     1       8.284  10.939  17.553  0.00  0.00    +0.000 A 
ATOM     12  C   UNL     1       8.985  11.996  18.135  0.00  0.00    +0.000 A 
ATOM     13  C   UNL     1       9.746  11.778  19.281  0.00  0.00    +0.000 A 
ATOM     14  C   UNL     1       9.797  10.508  19.854  0.00  0.00    +0.000 A 
ATOM     15  C   UNL     1       9.095   9.450  19.273  0.00  0.00    +0.000 A 
ENDBRANCH   9  10
ENDBRANCH   8   9
ENDBRANCH   1   8
BRANCH   1  16
ATOM     16  C   UNL     1       6.596   5.442  19.240  0.00  0.00    +0.000 C 
BRANCH  16  17
ATOM     17  C   UNL     1       5.256   4.785  19.235  0.00  0.00    +0.000 A 
ATOM     18  C   UNL     1       4.800   3.574  18.753  0.00  0.00    +0.000 A 
ATOM     19  C   UNL     1       3.434   3.478  19.124  0.00  0.00    +0.000 A 
ATOM     20  C   UNL     1       2.417   2.519  18.967  0.00  0.00    +0.000 A 
ATOM     21  C   UNL     1       1.146   2.794  19.489  0.00  0.00    +0.000 A 
ATOM     22  C   UNL     1       0.886   3.992  20.161  0.00  0.00    +0.000 A 
ATOM     23  C   UNL     1       1.888   4.955  20.336  0.00  0.00    +0.000 A 
ATOM     24  C   UNL     1       3.140   4.654  19.803  0.00  0.00    +0.000 A 
ATOM     25  O   UNL     1       4.246   5.448  19.873  0.00  0.00    +0.000 OA
ENDBRANCH  16  17
ENDBRANCH   1  16
TORSDOF 9
ENDMDL
