MODEL 1
REMARK VINA RESULT:      -6.9      0.000      0.000
REMARK  Name = 
REMARK  6 active torsions:
REMARK  status: ('A' for Active; 'I' for Inactive)
REMARK    1  A    between atoms: C_2  and  C_3
REMARK    2  A    between atoms: C_6  and  C_7
REMARK    3  A    between atoms: C_8  and  C_9
REMARK    4  A    between atoms: N_19  and  N_20
REMARK    5  A    between atoms: N_20  and  C_21
REMARK    6  A    between atoms: C_24  and  C_25
REMARK                            x       y       z     vdW  Elec       q    Type
REMARK                         _______ _______ _______ _____ _____    ______ ____
ROOT
ATOM      1  C   UNL     1       0.548   9.338  20.310  0.00  0.00    +0.000 A 
ATOM      2  N   UNL     1       0.850   8.186  20.832  0.00  0.00    +0.000 NA
ATOM      3  C   UNL     1       1.716   7.333  20.141  0.00  0.00    +0.000 A 
ATOM      4  C   UNL     1       2.074   6.124  20.740  0.00  0.00    +0.000 A 
ATOM      5  C   UNL     1       2.903   5.217  20.075  0.00  0.00    +0.000 A 
ATOM      6  C   UNL     1       3.362   5.505  18.789  0.00  0.00    +0.000 A 
ATOM      7  C   UNL     1       3.012   6.710  18.180  0.00  0.00    +0.000 A 
ATOM      8  C   UNL     1       2.209   7.626  18.872  0.00  0.00    +0.000 A 
ATOM      9  C   UNL     1       1.835   8.922  18.283  0.00  0.00    +0.000 A 
ATOM     10  O   UNL     1       2.107   9.172  17.105  0.00  0.00    +0.000 OA
ATOM     11  N   UNL     1       1.101   9.791  19.104  0.00  0.00    +0.000 N 
ENDROOT
BRANCH   1  13
ATOM     12  C   UNL     1       0.045  11.184  21.944  0.00  0.00    +0.000 C 
ATOM     13  C   UNL     1      -0.357  10.237  21.083  0.00  0.00    +0.000 C 
BRANCH  12  17
ATOM     14  C   UNL     1      -2.809  13.947  23.598  0.00  0.00    +0.000 A 
ATOM     15  C   UNL     1      -3.091  12.579  23.583  0.00  0.00    +0.000 A 
ATOM     16  C   UNL     1      -2.155  11.676  23.070  0.00  0.00    +0.000 A 
ATOM     17  C   UNL     1      -0.925  12.115  22.555  0.00  0.00    +0.000 A 
ATOM     18  C   UNL     1      -0.630  13.482  22.625  0.00  0.00    +0.000 A 
ATOM     19  C   UNL     1      -1.565  14.392  23.141  0.00  0.00    +0.000 A 
BRANCH  14  21
ATOM     20  N   UNL     1      -4.578  15.630  24.489  0.00  0.00    +0.000 NA
ATOM     21  C   UNL     1      -3.786  14.881  24.089  0.00  0.00    +0.000 C 
ENDBRANCH  14  21
ENDBRANCH  12  17
ENDBRANCH   1  13
BRANCH  11  22
ATOM     22  N   UNL     1       0.506  10.851  18.341  0.00  0.00    +0.000 N 
ATOM     23  H   UNL     1       0.566  10.630  17.337  0.00  0.00    +0.000 HD
BRANCH  22  24
ATOM     24  C   UNL     1       0.846  12.201  18.575  0.00  0.00    +0.000 A 
ATOM     25  C   UNL     1       2.098  12.669  18.985  0.00  0.00    +0.000 A 
ATOM     26  C   UNL     1       2.206  13.943  19.567  0.00  0.00    +0.000 A 
ATOM     27  C   UNL     1       1.080  14.776  19.679  0.00  0.00    +0.000 A 
ATOM     28  C   UNL     1      -0.114  14.378  19.067  0.00  0.00    +0.000 A 
ATOM     29  C   UNL     1      -0.220  13.109  18.503  0.00  0.00    +0.000 A 
BRANCH  27  30
ATOM     30  C   UNL     1       1.096  16.041  20.504  0.00  0.00    +0.000 C 
ATOM     31  F   UNL     1       1.741  15.907  21.695  0.00  0.00    +0.000 F 
ATOM     32  F   UNL     1       1.677  17.088  19.864  0.00  0.00    +0.000 F 
ATOM     33  F   UNL     1      -0.167  16.453  20.818  0.00  0.00    +0.000 F 
ENDBRANCH  27  30
ENDBRANCH  22  24
ENDBRANCH  11  22
TORSDOF 6
ENDMDL
MODEL 2
REMARK VINA RESULT:      -6.9      1.269      1.813
REMARK  Name = 
REMARK  6 active torsions:
REMARK  status: ('A' for Active; 'I' for Inactive)
REMARK    1  A    between atoms: C_2  and  C_3
REMARK    2  A    between atoms: C_6  and  C_7
REMARK    3  A    between atoms: C_8  and  C_9
REMARK    4  A    between atoms: N_19  and  N_20
REMARK    5  A    between atoms: N_20  and  C_21
REMARK    6  A    between atoms: C_24  and  C_25
REMARK                            x       y       z     vdW  Elec       q    Type
REMARK                         _______ _______ _______ _____ _____    ______ ____
ROOT
ATOM      1  C   UNL     1       0.414   9.992  20.336  0.00  0.00    +0.000 A 
ATOM      2  N   UNL     1       0.536   8.814  20.873  0.00  0.00    +0.000 NA
ATOM      3  C   UNL     1       1.358   7.867  20.255  0.00  0.00    +0.000 A 
ATOM      4  C   UNL     1       1.522   6.626  20.873  0.00  0.00    +0.000 A 
ATOM      5  C   UNL     1       2.299   5.630  20.276  0.00  0.00    +0.000 A 
ATOM      6  C   UNL     1       2.900   5.861  19.038  0.00  0.00    +0.000 A 
ATOM      7  C   UNL     1       2.744   7.097  18.411  0.00  0.00    +0.000 A 
ATOM      8  C   UNL     1       1.992   8.100  19.037  0.00  0.00    +0.000 A 
ATOM      9  C   UNL     1       1.820   9.429  18.428  0.00  0.00    +0.000 A 
ATOM     10  O   UNL     1       2.222   9.644  17.280  0.00  0.00    +0.000 OA
ATOM     11  N   UNL     1       1.120  10.377  19.187  0.00  0.00    +0.000 N 
ENDROOT
BRANCH   1  13
ATOM     12  C   UNL     1      -0.718  10.993  22.348  0.00  0.00    +0.000 C 
ATOM     13  C   UNL     1      -0.448  10.989  21.034  0.00  0.00    +0.000 C 
BRANCH  12  17
ATOM     14  C   UNL     1      -2.923  14.289  24.020  0.00  0.00    +0.000 A 
ATOM     15  C   UNL     1      -3.504  13.021  23.959  0.00  0.00    +0.000 A 
ATOM     16  C   UNL     1      -2.782  11.941  23.440  0.00  0.00    +0.000 A 
ATOM     17  C   UNL     1      -1.471  12.104  22.965  0.00  0.00    +0.000 A 
ATOM     18  C   UNL     1      -0.877  13.367  23.080  0.00  0.00    +0.000 A 
ATOM     19  C   UNL     1      -1.598  14.452  23.602  0.00  0.00    +0.000 A 
BRANCH  14  21
ATOM     20  N   UNL     1      -4.292  16.306  24.917  0.00  0.00    +0.000 NA
ATOM     21  C   UNL     1      -3.677  15.407  24.516  0.00  0.00    +0.000 C 
ENDBRANCH  14  21
ENDBRANCH  12  17
ENDBRANCH   1  13
BRANCH  11  22
ATOM     22  N   UNL     1       0.718  11.496  18.384  0.00  0.00    +0.000 N 
ATOM     23  H   UNL     1       0.809  11.256  17.387  0.00  0.00    +0.000 HD
BRANCH  22  24
ATOM     24  C   UNL     1       1.221  12.792  18.631  0.00  0.00    +0.000 A 
ATOM     25  C   UNL     1       0.469  13.896  19.042  0.00  0.00    +0.000 A 
ATOM     26  C   UNL     1       0.982  15.191  18.864  0.00  0.00    +0.000 A 
ATOM     27  C   UNL     1       2.270  15.384  18.338  0.00  0.00    +0.000 A 
ATOM     28  C   UNL     1       3.088  14.266  18.137  0.00  0.00    +0.000 A 
ATOM     29  C   UNL     1       2.570  12.984  18.302  0.00  0.00    +0.000 A 
BRANCH  27  30
ATOM     30  C   UNL     1       2.767  16.744  17.908  0.00  0.00    +0.000 C 
ATOM     31  F   UNL     1       2.982  16.848  16.568  0.00  0.00    +0.000 F 
ATOM     32  F   UNL     1       1.920  17.751  18.243  0.00  0.00    +0.000 F 
ATOM     33  F   UNL     1       3.961  17.053  18.494  0.00  0.00    +0.000 F 
ENDBRANCH  27  30
ENDBRANCH  22  24
ENDBRANCH  11  22
TORSDOF 6
ENDMDL
MODEL 3
REMARK VINA RESULT:      -6.8      5.807      9.012
REMARK  Name = 
REMARK  6 active torsions:
REMARK  status: ('A' for Active; 'I' for Inactive)
REMARK    1  A    between atoms: C_2  and  C_3
REMARK    2  A    between atoms: C_6  and  C_7
REMARK    3  A    between atoms: C_8  and  C_9
REMARK    4  A    between atoms: N_19  and  N_20
REMARK    5  A    between atoms: N_20  and  C_21
REMARK    6  A    between atoms: C_24  and  C_25
REMARK                            x       y       z     vdW  Elec       q    Type
REMARK                         _______ _______ _______ _____ _____    ______ ____
ROOT
ATOM      1  C   UNL     1       6.764   6.491  16.636  0.00  0.00    +0.000 A 
ATOM      2  N   UNL     1       7.408   6.247  15.532  0.00  0.00    +0.000 NA
ATOM      3  C   UNL     1       6.912   5.276  14.656  0.00  0.00    +0.000 A 
ATOM      4  C   UNL     1       7.583   5.065  13.451  0.00  0.00    +0.000 A 
ATOM      5  C   UNL     1       7.153   4.080  12.559  0.00  0.00    +0.000 A 
ATOM      6  C   UNL     1       6.057   3.278  12.879  0.00  0.00    +0.000 A 
ATOM      7  C   UNL     1       5.377   3.480  14.081  0.00  0.00    +0.000 A 
ATOM      8  C   UNL     1       5.797   4.495  14.950  0.00  0.00    +0.000 A 
ATOM      9  C   UNL     1       5.096   4.765  16.216  0.00  0.00    +0.000 A 
ATOM     10  O   UNL     1       4.203   4.006  16.607  0.00  0.00    +0.000 OA
ATOM     11  N   UNL     1       5.555   5.860  16.961  0.00  0.00    +0.000 N 
ENDROOT
BRANCH   1  13
ATOM     12  C   UNL     1       8.140   8.530  17.163  0.00  0.00    +0.000 C 
ATOM     13  C   UNL     1       7.304   7.549  17.537  0.00  0.00    +0.000 C 
BRANCH  12  17
ATOM     14  C   UNL     1       9.343  11.646  19.877  0.00  0.00    +0.000 A 
ATOM     15  C   UNL     1       8.842  11.975  18.615  0.00  0.00    +0.000 A 
ATOM     16  C   UNL     1       8.426  10.966  17.740  0.00  0.00    +0.000 A 
ATOM     17  C   UNL     1       8.507   9.611  18.100  0.00  0.00    +0.000 A 
ATOM     18  C   UNL     1       8.960   9.295  19.386  0.00  0.00    +0.000 A 
ATOM     19  C   UNL     1       9.376  10.304  20.268  0.00  0.00    +0.000 A 
BRANCH  14  21
ATOM     20  N   UNL     1      10.176  13.516  21.478  0.00  0.00    +0.000 NA
ATOM     21  C   UNL     1       9.808  12.678  20.762  0.00  0.00    +0.000 C 
ENDBRANCH  14  21
ENDBRANCH  12  17
ENDBRANCH   1  13
BRANCH  11  22
ATOM     22  N   UNL     1       5.048   5.828  18.303  0.00  0.00    +0.000 N 
ATOM     23  H   UNL     1       5.108   4.868  18.672  0.00  0.00    +0.000 HD
BRANCH  22  24
ATOM     24  C   UNL     1       3.804   6.409  18.630  0.00  0.00    +0.000 A 
ATOM     25  C   UNL     1       3.229   7.518  18.002  0.00  0.00    +0.000 A 
ATOM     26  C   UNL     1       2.218   8.239  18.656  0.00  0.00    +0.000 A 
ATOM     27  C   UNL     1       1.732   7.818  19.906  0.00  0.00    +0.000 A 
ATOM     28  C   UNL     1       2.165   6.589  20.415  0.00  0.00    +0.000 A 
ATOM     29  C   UNL     1       3.178   5.884  19.769  0.00  0.00    +0.000 A 
BRANCH  27  30
ATOM     30  C   UNL     1       0.826   8.685  20.749  0.00  0.00    +0.000 C 
ATOM     31  F   UNL     1       1.467   9.305  21.777  0.00  0.00    +0.000 F 
ATOM     32  F   UNL     1       0.205   9.659  20.036  0.00  0.00    +0.000 F 
ATOM     33  F   UNL     1      -0.171   7.955  21.329  0.00  0.00    +0.000 F 
ENDBRANCH  27  30
ENDBRANCH  22  24
ENDBRANCH  11  22
TORSDOF 6
ENDMDL
MODEL 4
REMARK VINA RESULT:      -6.8      0.231      1.105
REMARK  Name = 
REMARK  6 active torsions:
REMARK  status: ('A' for Active; 'I' for Inactive)
REMARK    1  A    between atoms: C_2  and  C_3
REMARK    2  A    between atoms: C_6  and  C_7
REMARK    3  A    between atoms: C_8  and  C_9
REMARK    4  A    between atoms: N_19  and  N_20
REMARK    5  A    between atoms: N_20  and  C_21
REMARK    6  A    between atoms: C_24  and  C_25
REMARK                            x       y       z     vdW  Elec       q    Type
REMARK                         _______ _______ _______ _____ _____    ______ ____
ROOT
ATOM      1  C   UNL     1       0.504   9.562  20.239  0.00  0.00    +0.000 A 
ATOM      2  N   UNL     1       0.726   8.405  20.791  0.00  0.00    +0.000 NA
ATOM      3  C   UNL     1       1.596   7.508  20.163  0.00  0.00    +0.000 A 
ATOM      4  C   UNL     1       1.867   6.294  20.796  0.00  0.00    +0.000 A 
ATOM      5  C   UNL     1       2.696   5.345  20.192  0.00  0.00    +0.000 A 
ATOM      6  C   UNL     1       3.243   5.596  18.934  0.00  0.00    +0.000 A 
ATOM      7  C   UNL     1       2.980   6.807  18.291  0.00  0.00    +0.000 A 
ATOM      8  C   UNL     1       2.176   7.764  18.924  0.00  0.00    +0.000 A 
ATOM      9  C   UNL     1       1.891   9.066  18.299  0.00  0.00    +0.000 A 
ATOM     10  O   UNL     1       2.244   9.289  17.136  0.00  0.00    +0.000 OA
ATOM     11  N   UNL     1       1.147   9.974  19.064  0.00  0.00    +0.000 N 
ENDROOT
BRANCH   1  13
ATOM     12  C   UNL     1      -0.066  11.271  21.995  0.00  0.00    +0.000 C 
ATOM     13  C   UNL     1      -0.408  10.507  20.946  0.00  0.00    +0.000 C 
BRANCH  12  17
ATOM     14  C   UNL     1      -2.767  14.154  23.701  0.00  0.00    +0.000 A 
ATOM     15  C   UNL     1      -1.555  14.575  23.151  0.00  0.00    +0.000 A 
ATOM     16  C   UNL     1      -0.686  13.645  22.572  0.00  0.00    +0.000 A 
ATOM     17  C   UNL     1      -1.002  12.277  22.537  0.00  0.00    +0.000 A 
ATOM     18  C   UNL     1      -2.244  11.872  23.043  0.00  0.00    +0.000 A 
ATOM     19  C   UNL     1      -3.119  12.803  23.622  0.00  0.00    +0.000 A 
BRANCH  14  21
ATOM     20  N   UNL     1      -4.352  15.865  24.848  0.00  0.00    +0.000 NA
ATOM     21  C   UNL     1      -3.644  15.103  24.332  0.00  0.00    +0.000 C 
ENDBRANCH  14  21
ENDBRANCH  12  17
ENDBRANCH   1  13
BRANCH  11  22
ATOM     22  N   UNL     1       0.642  11.047  18.255  0.00  0.00    +0.000 N 
ATOM     23  H   UNL     1       0.811  10.840  17.261  0.00  0.00    +0.000 HD
BRANCH  22  24
ATOM     24  C   UNL     1       0.960  12.392  18.542  0.00  0.00    +0.000 A 
ATOM     25  C   UNL     1       2.168  12.851  19.077  0.00  0.00    +0.000 A 
ATOM     26  C   UNL     1       2.221  14.114  19.688  0.00  0.00    +0.000 A 
ATOM     27  C   UNL     1       1.091  14.948  19.707  0.00  0.00    +0.000 A 
ATOM     28  C   UNL     1      -0.040  14.563  18.978  0.00  0.00    +0.000 A 
ATOM     29  C   UNL     1      -0.093  13.304  18.386  0.00  0.00    +0.000 A 
BRANCH  27  30
ATOM     30  C   UNL     1       1.030  16.199  20.551  0.00  0.00    +0.000 C 
ATOM     31  F   UNL     1      -0.238  16.600  20.842  0.00  0.00    +0.000 F 
ATOM     32  F   UNL     1       1.677  16.074  21.738  0.00  0.00    +0.000 F 
ATOM     33  F   UNL     1       1.612  17.261  19.921  0.00  0.00    +0.000 F 
ENDBRANCH  27  30
ENDBRANCH  22  24
ENDBRANCH  11  22
TORSDOF 6
ENDMDL
MODEL 5
REMARK VINA RESULT:      -6.7      0.713      1.488
REMARK  Name = 
REMARK  6 active torsions:
REMARK  status: ('A' for Active; 'I' for Inactive)
REMARK    1  A    between atoms: C_2  and  C_3
REMARK    2  A    between atoms: C_6  and  C_7
REMARK    3  A    between atoms: C_8  and  C_9
REMARK    4  A    between atoms: N_19  and  N_20
REMARK    5  A    between atoms: N_20  and  C_21
REMARK    6  A    between atoms: C_24  and  C_25
REMARK                            x       y       z     vdW  Elec       q    Type
REMARK                         _______ _______ _______ _____ _____    ______ ____
ROOT
ATOM      1  C   UNL     1       0.600   9.381  20.233  0.00  0.00    +0.000 A 
ATOM      2  N   UNL     1       0.836   8.232  20.793  0.00  0.00    +0.000 NA
ATOM      3  C   UNL     1       1.700   7.332  20.162  0.00  0.00    +0.000 A 
ATOM      4  C   UNL     1       1.985   6.125  20.802  0.00  0.00    +0.000 A 
ATOM      5  C   UNL     1       2.810   5.174  20.196  0.00  0.00    +0.000 A 
ATOM      6  C   UNL     1       3.338   5.415  18.927  0.00  0.00    +0.000 A 
ATOM      7  C   UNL     1       3.061   6.618  18.277  0.00  0.00    +0.000 A 
ATOM      8  C   UNL     1       2.261   7.578  18.911  0.00  0.00    +0.000 A 
ATOM      9  C   UNL     1       1.962   8.873  18.278  0.00  0.00    +0.000 A 
ATOM     10  O   UNL     1       2.297   9.086  17.109  0.00  0.00    +0.000 OA
ATOM     11  N   UNL     1       1.225   9.786  19.045  0.00  0.00    +0.000 N 
ENDROOT
BRANCH   1  13
ATOM     12  C   UNL     1       0.064  11.155  21.936  0.00  0.00    +0.000 C 
ATOM     13  C   UNL     1      -0.305  10.330  20.944  0.00  0.00    +0.000 C 
BRANCH  12  17
ATOM     14  C   UNL     1      -2.644  14.026  23.650  0.00  0.00    +0.000 A 
ATOM     15  C   UNL     1      -1.471  14.459  23.027  0.00  0.00    +0.000 A 
ATOM     16  C   UNL     1      -0.602  13.532  22.446  0.00  0.00    +0.000 A 
ATOM     17  C   UNL     1      -0.876  12.155  22.480  0.00  0.00    +0.000 A 
ATOM     18  C   UNL     1      -2.080  11.735  23.059  0.00  0.00    +0.000 A 
ATOM     19  C   UNL     1      -2.957  12.664  23.642  0.00  0.00    +0.000 A 
BRANCH  14  21
ATOM     20  N   UNL     1      -4.222  15.742  24.799  0.00  0.00    +0.000 NA
ATOM     21  C   UNL     1      -3.520  14.974  24.283  0.00  0.00    +0.000 C 
ENDBRANCH  14  21
ENDBRANCH  12  17
ENDBRANCH   1  13
BRANCH  11  22
ATOM     22  N   UNL     1       0.704  10.849  18.233  0.00  0.00    +0.000 N 
ATOM     23  H   UNL     1       1.065  10.758  17.273  0.00  0.00    +0.000 HD
BRANCH  22  24
ATOM     24  C   UNL     1       0.763  12.193  18.661  0.00  0.00    +0.000 A 
ATOM     25  C   UNL     1      -0.309  13.089  18.691  0.00  0.00    +0.000 A 
ATOM     26  C   UNL     1      -0.059  14.470  18.742  0.00  0.00    +0.000 A 
ATOM     27  C   UNL     1       1.257  14.955  18.830  0.00  0.00    +0.000 A 
ATOM     28  C   UNL     1       2.299  14.041  19.018  0.00  0.00    +0.000 A 
ATOM     29  C   UNL     1       2.047  12.673  18.954  0.00  0.00    +0.000 A 
BRANCH  27  30
ATOM     30  C   UNL     1       1.587  16.418  18.646  0.00  0.00    +0.000 C 
ATOM     31  F   UNL     1       1.847  17.069  19.812  0.00  0.00    +0.000 F 
ATOM     32  F   UNL     1       2.659  16.626  17.839  0.00  0.00    +0.000 F 
ATOM     33  F   UNL     1       0.553  17.099  18.071  0.00  0.00    +0.000 F 
ENDBRANCH  27  30
ENDBRANCH  22  24
ENDBRANCH  11  22
TORSDOF 6
ENDMDL
MODEL 6
REMARK VINA RESULT:      -6.7      3.290      7.499
REMARK  Name = 
REMARK  6 active torsions:
REMARK  status: ('A' for Active; 'I' for Inactive)
REMARK    1  A    between atoms: C_2  and  C_3
REMARK    2  A    between atoms: C_6  and  C_7
REMARK    3  A    between atoms: C_8  and  C_9
REMARK    4  A    between atoms: N_19  and  N_20
REMARK    5  A    between atoms: N_20  and  C_21
REMARK    6  A    between atoms: C_24  and  C_25
REMARK                            x       y       z     vdW  Elec       q    Type
REMARK                         _______ _______ _______ _____ _____    ______ ____
ROOT
ATOM      1  C   UNL     1       0.272   9.983  18.266  0.00  0.00    +0.000 A 
ATOM      2  N   UNL     1      -0.824   9.535  17.729  0.00  0.00    +0.000 NA
ATOM      3  C   UNL     1      -2.002  10.275  17.870  0.00  0.00    +0.000 A 
ATOM      4  C   UNL     1      -3.158   9.809  17.241  0.00  0.00    +0.000 A 
ATOM      5  C   UNL     1      -4.371  10.488  17.383  0.00  0.00    +0.000 A 
ATOM      6  C   UNL     1      -4.440  11.632  18.180  0.00  0.00    +0.000 A 
ATOM      7  C   UNL     1      -3.292  12.108  18.813  0.00  0.00    +0.000 A 
ATOM      8  C   UNL     1      -2.075  11.438  18.633  0.00  0.00    +0.000 A 
ATOM      9  C   UNL     1      -0.831  11.916  19.258  0.00  0.00    +0.000 A 
ATOM     10  O   UNL     1      -0.861  12.845  20.071  0.00  0.00    +0.000 OA
ATOM     11  N   UNL     1       0.338  11.213  18.936  0.00  0.00    +0.000 N 
ENDROOT
BRANCH   1  13
ATOM     12  C   UNL     1       1.815   8.050  18.728  0.00  0.00    +0.000 C 
ATOM     13  C   UNL     1       1.517   9.184  18.077  0.00  0.00    +0.000 C 
BRANCH  12  17
ATOM     14  C   UNL     1       5.375   5.853  17.720  0.00  0.00    +0.000 A 
ATOM     15  C   UNL     1       4.597   5.457  18.810  0.00  0.00    +0.000 A 
ATOM     16  C   UNL     1       3.425   6.152  19.125  0.00  0.00    +0.000 A 
ATOM     17  C   UNL     1       3.009   7.259  18.368  0.00  0.00    +0.000 A 
ATOM     18  C   UNL     1       3.767   7.615  17.246  0.00  0.00    +0.000 A 
ATOM     19  C   UNL     1       4.942   6.919  16.925  0.00  0.00    +0.000 A 
BRANCH  14  21
ATOM     20  N   UNL     1       7.593   4.612  17.180  0.00  0.00    +0.000 NA
ATOM     21  C   UNL     1       6.600   5.165  17.418  0.00  0.00    +0.000 C 
ENDBRANCH  14  21
ENDBRANCH  12  17
ENDBRANCH   1  13
BRANCH  11  22
ATOM     22  N   UNL     1       1.405  11.533  19.841  0.00  0.00    +0.000 N 
ATOM     23  H   UNL     1       1.059  11.497  20.810  0.00  0.00    +0.000 HD
BRANCH  22  24
ATOM     24  C   UNL     1       2.214  12.673  19.644  0.00  0.00    +0.000 A 
ATOM     25  C   UNL     1       2.594  13.586  20.632  0.00  0.00    +0.000 A 
ATOM     26  C   UNL     1       3.041  14.865  20.261  0.00  0.00    +0.000 A 
ATOM     27  C   UNL     1       3.172  15.212  18.906  0.00  0.00    +0.000 A 
ATOM     28  C   UNL     1       2.996  14.216  17.938  0.00  0.00    +0.000 A 
ATOM     29  C   UNL     1       2.540  12.954  18.310  0.00  0.00    +0.000 A 
BRANCH  27  30
ATOM     30  C   UNL     1       3.414  16.635  18.461  0.00  0.00    +0.000 C 
ATOM     31  F   UNL     1       3.248  16.824  17.123  0.00  0.00    +0.000 F 
ATOM     32  F   UNL     1       2.607  17.533  19.082  0.00  0.00    +0.000 F 
ATOM     33  F   UNL     1       4.691  17.036  18.729  0.00  0.00    +0.000 F 
ENDBRANCH  27  30
ENDBRANCH  22  24
ENDBRANCH  11  22
TORSDOF 6
ENDMDL
MODEL 7
REMARK VINA RESULT:      -6.7      3.041      3.760
REMARK  Name = 
REMARK  6 active torsions:
REMARK  status: ('A' for Active; 'I' for Inactive)
REMARK    1  A    between atoms: C_2  and  C_3
REMARK    2  A    between atoms: C_6  and  C_7
REMARK    3  A    between atoms: C_8  and  C_9
REMARK    4  A    between atoms: N_19  and  N_20
REMARK    5  A    between atoms: N_20  and  C_21
REMARK    6  A    between atoms: C_24  and  C_25
REMARK                            x       y       z     vdW  Elec       q    Type
REMARK                         _______ _______ _______ _____ _____    ______ ____
ROOT
ATOM      1  C   UNL     1       0.507   9.448  20.442  0.00  0.00    +0.000 A 
ATOM      2  N   UNL     1       0.697   8.247  20.904  0.00  0.00    +0.000 NA
ATOM      3  C   UNL     1       1.549   7.379  20.215  0.00  0.00    +0.000 A 
ATOM      4  C   UNL     1       1.785   6.114  20.754  0.00  0.00    +0.000 A 
ATOM      5  C   UNL     1       2.595   5.194  20.084  0.00  0.00    +0.000 A 
ATOM      6  C   UNL     1       3.159   5.527  18.851  0.00  0.00    +0.000 A 
ATOM      7  C   UNL     1       2.931   6.790  18.303  0.00  0.00    +0.000 A 
ATOM      8  C   UNL     1       2.145   7.716  19.002  0.00  0.00    +0.000 A 
ATOM      9  C   UNL     1       1.898   9.068  18.478  0.00  0.00    +0.000 A 
ATOM     10  O   UNL     1       2.265   9.371  17.338  0.00  0.00    +0.000 OA
ATOM     11  N   UNL     1       1.169   9.934  19.306  0.00  0.00    +0.000 N 
ENDROOT
BRANCH   1  13
ATOM     12  C   UNL     1       0.023  11.406  21.945  0.00  0.00    +0.000 C 
ATOM     13  C   UNL     1      -0.387  10.358  21.214  0.00  0.00    +0.000 C 
BRANCH  12  17
ATOM     14  C   UNL     1      -2.844  14.149  23.611  0.00  0.00    +0.000 A 
ATOM     15  C   UNL     1      -3.134  12.784  23.559  0.00  0.00    +0.000 A 
ATOM     16  C   UNL     1      -2.195  11.886  23.042  0.00  0.00    +0.000 A 
ATOM     17  C   UNL     1      -0.953  12.329  22.560  0.00  0.00    +0.000 A 
ATOM     18  C   UNL     1      -0.650  13.693  22.666  0.00  0.00    +0.000 A 
ATOM     19  C   UNL     1      -1.589  14.596  23.186  0.00  0.00    +0.000 A 
BRANCH  14  21
ATOM     20  N   UNL     1      -4.608  15.834  24.506  0.00  0.00    +0.000 NA
ATOM     21  C   UNL     1      -3.823  15.079  24.105  0.00  0.00    +0.000 C 
ENDBRANCH  14  21
ENDBRANCH  12  17
ENDBRANCH   1  13
BRANCH  11  22
ATOM     22  N   UNL     1       0.698  11.078  18.579  0.00  0.00    +0.000 N 
ATOM     23  H   UNL     1       1.065  11.937  19.011  0.00  0.00    +0.000 HD
BRANCH  22  24
ATOM     24  C   UNL     1      -0.668  11.228  18.257  0.00  0.00    +0.000 A 
ATOM     25  C   UNL     1      -1.487  12.293  18.644  0.00  0.00    +0.000 A 
ATOM     26  C   UNL     1      -2.883  12.140  18.619  0.00  0.00    +0.000 A 
ATOM     27  C   UNL     1      -3.464  10.952  18.145  0.00  0.00    +0.000 A 
ATOM     28  C   UNL     1      -2.637   9.986  17.560  0.00  0.00    +0.000 A 
ATOM     29  C   UNL     1      -1.253  10.136  17.600  0.00  0.00    +0.000 A 
BRANCH  27  30
ATOM     30  C   UNL     1      -4.934  10.651  18.321  0.00  0.00    +0.000 C 
ATOM     31  F   UNL     1      -5.490  11.261  19.403  0.00  0.00    +0.000 F 
ATOM     32  F   UNL     1      -5.684  11.008  17.247  0.00  0.00    +0.000 F 
ATOM     33  F   UNL     1      -5.156   9.316  18.502  0.00  0.00    +0.000 F 
ENDBRANCH  27  30
ENDBRANCH  22  24
ENDBRANCH  11  22
TORSDOF 6
ENDMDL
MODEL 8
REMARK VINA RESULT:      -6.6      0.637      1.355
REMARK  Name = 
REMARK  6 active torsions:
REMARK  status: ('A' for Active; 'I' for Inactive)
REMARK    1  A    between atoms: C_2  and  C_3
REMARK    2  A    between atoms: C_6  and  C_7
REMARK    3  A    between atoms: C_8  and  C_9
REMARK    4  A    between atoms: N_19  and  N_20
REMARK    5  A    between atoms: N_20  and  C_21
REMARK    6  A    between atoms: C_24  and  C_25
REMARK                            x       y       z     vdW  Elec       q    Type
REMARK                         _______ _______ _______ _____ _____    ______ ____
ROOT
ATOM      1  C   UNL     1       0.631   9.420  20.171  0.00  0.00    +0.000 A 
ATOM      2  N   UNL     1       0.873   8.265  20.716  0.00  0.00    +0.000 NA
ATOM      3  C   UNL     1       1.761   7.388  20.087  0.00  0.00    +0.000 A 
ATOM      4  C   UNL     1       2.052   6.175  20.713  0.00  0.00    +0.000 A 
ATOM      5  C   UNL     1       2.902   5.246  20.108  0.00  0.00    +0.000 A 
ATOM      6  C   UNL     1       3.450   5.515  18.854  0.00  0.00    +0.000 A 
ATOM      7  C   UNL     1       3.168   6.724  18.218  0.00  0.00    +0.000 A 
ATOM      8  C   UNL     1       2.343   7.663  18.852  0.00  0.00    +0.000 A 
ATOM      9  C   UNL     1       2.037   8.963  18.234  0.00  0.00    +0.000 A 
ATOM     10  O   UNL     1       2.391   9.199  17.074  0.00  0.00    +0.000 OA
ATOM     11  N   UNL     1       1.272   9.853  19.001  0.00  0.00    +0.000 N 
ENDROOT
BRANCH   1  13
ATOM     12  C   UNL     1      -0.034  10.976  22.032  0.00  0.00    +0.000 C 
ATOM     13  C   UNL     1      -0.301  10.344  20.879  0.00  0.00    +0.000 C 
BRANCH  12  17
ATOM     14  C   UNL     1      -2.804  13.924  23.502  0.00  0.00    +0.000 A 
ATOM     15  C   UNL     1      -3.034  12.568  23.745  0.00  0.00    +0.000 A 
ATOM     16  C   UNL     1      -2.124  11.609  23.292  0.00  0.00    +0.000 A 
ATOM     17  C   UNL     1      -0.970  11.979  22.581  0.00  0.00    +0.000 A 
ATOM     18  C   UNL     1      -0.720  13.343  22.390  0.00  0.00    +0.000 A 
ATOM     19  C   UNL     1      -1.631  14.309  22.846  0.00  0.00    +0.000 A 
BRANCH  14  21
ATOM     20  N   UNL     1      -4.534  15.701  24.277  0.00  0.00    +0.000 NA
ATOM     21  C   UNL     1      -3.758  14.909  23.933  0.00  0.00    +0.000 C 
ENDBRANCH  14  21
ENDBRANCH  12  17
ENDBRANCH   1  13
BRANCH  11  22
ATOM     22  N   UNL     1       0.752  10.921  18.196  0.00  0.00    +0.000 N 
ATOM     23  H   UNL     1       1.154  10.869  17.250  0.00  0.00    +0.000 HD
BRANCH  22  24
ATOM     24  C   UNL     1       0.750  12.254  18.662  0.00  0.00    +0.000 A 
ATOM     25  C   UNL     1      -0.304  13.163  18.535  0.00  0.00    +0.000 A 
ATOM     26  C   UNL     1      -0.054  14.539  18.661  0.00  0.00    +0.000 A 
ATOM     27  C   UNL     1       1.233  15.005  18.979  0.00  0.00    +0.000 A 
ATOM     28  C   UNL     1       2.221  14.073  19.316  0.00  0.00    +0.000 A 
ATOM     29  C   UNL     1       1.972  12.711  19.176  0.00  0.00    +0.000 A 
BRANCH  27  30
ATOM     30  C   UNL     1       1.602  16.468  18.889  0.00  0.00    +0.000 C 
ATOM     31  F   UNL     1       0.764  17.194  18.100  0.00  0.00    +0.000 F 
ATOM     32  F   UNL     1       1.628  17.086  20.098  0.00  0.00    +0.000 F 
ATOM     33  F   UNL     1       2.847  16.641  18.356  0.00  0.00    +0.000 F 
ENDBRANCH  27  30
ENDBRANCH  22  24
ENDBRANCH  11  22
TORSDOF 6
ENDMDL
MODEL 9
REMARK VINA RESULT:      -6.6      3.017      3.861
REMARK  Name = 
REMARK  6 active torsions:
REMARK  status: ('A' for Active; 'I' for Inactive)
REMARK    1  A    between atoms: C_2  and  C_3
REMARK    2  A    between atoms: C_6  and  C_7
REMARK    3  A    between atoms: C_8  and  C_9
REMARK    4  A    between atoms: N_19  and  N_20
REMARK    5  A    between atoms: N_20  and  C_21
REMARK    6  A    between atoms: C_24  and  C_25
REMARK                            x       y       z     vdW  Elec       q    Type
REMARK                         _______ _______ _______ _____ _____    ______ ____
ROOT
ATOM      1  C   UNL     1       0.545   9.409  20.399  0.00  0.00    +0.000 A 
ATOM      2  N   UNL     1       0.706   8.223  20.908  0.00  0.00    +0.000 NA
ATOM      3  C   UNL     1       1.538   7.309  20.253  0.00  0.00    +0.000 A 
ATOM      4  C   UNL     1       1.744   6.060  20.841  0.00  0.00    +0.000 A 
ATOM      5  C   UNL     1       2.533   5.096  20.208  0.00  0.00    +0.000 A 
ATOM      6  C   UNL     1       3.103   5.368  18.964  0.00  0.00    +0.000 A 
ATOM      7  C   UNL     1       2.906   6.613  18.367  0.00  0.00    +0.000 A 
ATOM      8  C   UNL     1       2.142   7.584  19.029  0.00  0.00    +0.000 A 
ATOM      9  C   UNL     1       1.927   8.921  18.452  0.00  0.00    +0.000 A 
ATOM     10  O   UNL     1       2.301   9.170  17.302  0.00  0.00    +0.000 OA
ATOM     11  N   UNL     1       1.219   9.835  19.245  0.00  0.00    +0.000 N 
ENDROOT
BRANCH   1  13
ATOM     12  C   UNL     1       0.109  11.417  21.851  0.00  0.00    +0.000 C 
ATOM     13  C   UNL     1      -0.327  10.369  21.134  0.00  0.00    +0.000 C 
BRANCH  12  17
ATOM     14  C   UNL     1      -2.635  14.198  23.655  0.00  0.00    +0.000 A 
ATOM     15  C   UNL     1      -1.421  14.653  23.135  0.00  0.00    +0.000 A 
ATOM     16  C   UNL     1      -0.538  13.757  22.525  0.00  0.00    +0.000 A 
ATOM     17  C   UNL     1      -0.841  12.390  22.427  0.00  0.00    +0.000 A 
ATOM     18  C   UNL     1      -2.083  11.952  22.903  0.00  0.00    +0.000 A 
ATOM     19  C   UNL     1      -2.973  12.849  23.514  0.00  0.00    +0.000 A 
BRANCH  14  21
ATOM     20  N   UNL     1      -4.240  15.849  24.858  0.00  0.00    +0.000 NA
ATOM     21  C   UNL     1      -3.526  15.110  24.318  0.00  0.00    +0.000 C 
ENDBRANCH  14  21
ENDBRANCH  12  17
ENDBRANCH   1  13
BRANCH  11  22
ATOM     22  N   UNL     1       0.775  10.961  18.474  0.00  0.00    +0.000 N 
ATOM     23  H   UNL     1       1.177  11.825  18.862  0.00  0.00    +0.000 HD
BRANCH  22  24
ATOM     24  C   UNL     1      -0.591  11.143  18.165  0.00  0.00    +0.000 A 
ATOM     25  C   UNL     1      -1.377  12.234  18.546  0.00  0.00    +0.000 A 
ATOM     26  C   UNL     1      -2.776  12.118  18.537  0.00  0.00    +0.000 A 
ATOM     27  C   UNL     1      -3.394  10.939  18.087  0.00  0.00    +0.000 A 
ATOM     28  C   UNL     1      -2.599   9.944  17.507  0.00  0.00    +0.000 A 
ATOM     29  C   UNL     1      -1.211  10.058  17.530  0.00  0.00    +0.000 A 
BRANCH  27  30
ATOM     30  C   UNL     1      -4.869  10.680  18.283  0.00  0.00    +0.000 C 
ATOM     31  F   UNL     1      -5.634  11.054  17.221  0.00  0.00    +0.000 F 
ATOM     32  F   UNL     1      -5.154   9.374  18.525  0.00  0.00    +0.000 F 
ATOM     33  F   UNL     1      -5.364  11.371  19.350  0.00  0.00    +0.000 F 
ENDBRANCH  27  30
ENDBRANCH  22  24
ENDBRANCH  11  22
TORSDOF 6
ENDMDL
