MODEL 1
REMARK VINA RESULT:      -7.9      0.000      0.000
REMARK  Name = 
REMARK  9 active torsions:
REMARK  status: ('A' for Active; 'I' for Inactive)
REMARK    1  A    between atoms: C_1  and  C_2
REMARK    2  A    between atoms: C_2  and  C_3
REMARK    3  A    between atoms: C_3  and  C_4
REMARK    4  A    between atoms: C_4  and  C_5
REMARK    5  A    between atoms: C_5  and  C_6
REMARK    6  A    between atoms: C_7  and  C_8
REMARK    7  A    between atoms: C_8  and  C_9
REMARK    8  A    between atoms: C_11  and  C_12
REMARK    9  A    between atoms: C_13  and  C_14
REMARK                            x       y       z     vdW  Elec       q    Type
REMARK                         _______ _______ _______ _____ _____    ______ ____
ROOT
ATOM      1  C   UNL     1       5.276   4.341  16.881  0.00  0.00    +0.000 C 
ATOM      2  C   UNL     1       4.294   3.445  16.692  0.00  0.00    +0.000 C 
ENDROOT
BRANCH   2   3
ATOM      3  C   UNL     1       3.242   3.105  17.719  0.00  0.00    +0.000 C 
ATOM      4  C   UNL     1       2.169   4.215  17.771  0.00  0.00    +0.000 C 
ATOM      5  C   UNL     1       2.488   5.316  18.744  0.00  0.00    +0.000 C 
ATOM      6  C   UNL     1       1.963   5.442  19.972  0.00  0.00    +0.000 C 
ATOM      7  C   UNL     1       0.915   4.557  20.586  0.00  0.00    +0.000 C 
ATOM      8  C   UNL     1       1.463   3.298  21.265  0.00  0.00    +0.000 C 
ATOM      9  C   UNL     1       2.036   2.246  20.312  0.00  0.00    +0.000 C 
ATOM     10  C   UNL     1       3.516   2.427  20.105  0.00  0.00    +0.000 C 
ATOM     11  O   UNL     1       4.303   2.146  21.010  0.00  0.00    +0.000 OA
ATOM     12  O   UNL     1       3.979   2.933  18.950  0.00  0.00    +0.000 OA
ENDBRANCH   2   3
BRANCH   1  15
ATOM     13  C   UNL     1       7.199   5.897  16.136  0.00  0.00    +0.000 C 
ATOM     14  O   UNL     1       6.231   5.822  15.077  0.00  0.00    +0.000 OA
ATOM     15  C   UNL     1       6.338   4.668  15.926  0.00  0.00    +0.000 C 
BRANCH  13  16
ATOM     16  C   UNL     1       6.890   6.946  17.159  0.00  0.00    +0.000 C 
BRANCH  16  18
ATOM     17  C   UNL     1       8.530   8.192  18.622  0.00  0.00    +0.000 C 
ATOM     18  C   UNL     1       7.922   7.051  18.251  0.00  0.00    +0.000 C 
BRANCH  17  19
ATOM     19  C   UNL     1       8.236   9.517  17.980  0.00  0.00    +0.000 C 
BRANCH  19  20
ATOM     20  C   UNL     1       9.225  10.614  18.359  0.00  0.00    +0.000 C 
BRANCH  20  21
ATOM     21  C   UNL     1       9.407  10.637  19.877  0.00  0.00    +0.000 C 
BRANCH  21  23
ATOM     22  C   UNL     1      11.611  11.691  19.298  0.00  0.00    +0.000 C 
ATOM     23  C   UNL     1      10.464  11.653  20.295  0.00  0.00    +0.000 C 
ENDBRANCH  21  23
ENDBRANCH  20  21
ENDBRANCH  19  20
ENDBRANCH  17  19
ENDBRANCH  16  18
ENDBRANCH  13  16
ENDBRANCH   1  15
TORSDOF 8
ENDMDL
MODEL 2
REMARK VINA RESULT:      -7.3      1.270      1.550
REMARK  Name = 
REMARK  9 active torsions:
REMARK  status: ('A' for Active; 'I' for Inactive)
REMARK    1  A    between atoms: C_1  and  C_2
REMARK    2  A    between atoms: C_2  and  C_3
REMARK    3  A    between atoms: C_3  and  C_4
REMARK    4  A    between atoms: C_4  and  C_5
REMARK    5  A    between atoms: C_5  and  C_6
REMARK    6  A    between atoms: C_7  and  C_8
REMARK    7  A    between atoms: C_8  and  C_9
REMARK    8  A    between atoms: C_11  and  C_12
REMARK    9  A    between atoms: C_13  and  C_14
REMARK                            x       y       z     vdW  Elec       q    Type
REMARK                         _______ _______ _______ _____ _____    ______ ____
ROOT
ATOM      1  C   UNL     1       5.871   4.320  17.160  0.00  0.00    +0.000 C 
ATOM      2  C   UNL     1       4.701   4.878  16.810  0.00  0.00    +0.000 C 
ENDROOT
BRANCH   2   3
ATOM      3  C   UNL     1       3.358   4.446  17.342  0.00  0.00    +0.000 C 
ATOM      4  C   UNL     1       2.763   5.548  18.247  0.00  0.00    +0.000 C 
ATOM      5  C   UNL     1       3.161   5.420  19.692  0.00  0.00    +0.000 C 
ATOM      6  C   UNL     1       2.394   4.904  20.664  0.00  0.00    +0.000 C 
ATOM      7  C   UNL     1       0.980   4.419  20.518  0.00  0.00    +0.000 C 
ATOM      8  C   UNL     1       0.851   2.967  20.045  0.00  0.00    +0.000 C 
ATOM      9  C   UNL     1       1.266   2.721  18.592  0.00  0.00    +0.000 C 
ATOM     10  C   UNL     1       2.713   2.322  18.484  0.00  0.00    +0.000 C 
ATOM     11  O   UNL     1       3.073   1.205  18.856  0.00  0.00    +0.000 OA
ATOM     12  O   UNL     1       3.621   3.197  18.020  0.00  0.00    +0.000 OA
ENDBRANCH   2   3
BRANCH   1  15
ATOM     13  C   UNL     1       7.904   5.914  17.156  0.00  0.00    +0.000 C 
ATOM     14  O   UNL     1       7.360   5.858  15.828  0.00  0.00    +0.000 OA
ATOM     15  C   UNL     1       7.190   4.683  16.636  0.00  0.00    +0.000 C 
BRANCH  13  16
ATOM     16  C   UNL     1       7.243   6.932  18.034  0.00  0.00    +0.000 C 
BRANCH  16  18
ATOM     17  C   UNL     1       7.919   9.349  17.743  0.00  0.00    +0.000 C 
ATOM     18  C   UNL     1       7.147   8.300  17.409  0.00  0.00    +0.000 C 
BRANCH  17  19
ATOM     19  C   UNL     1       8.990   9.271  18.792  0.00  0.00    +0.000 C 
BRANCH  19  20
ATOM     20  C   UNL     1       9.196  10.575  19.554  0.00  0.00    +0.000 C 
BRANCH  20  21
ATOM     21  C   UNL     1      10.591  11.127  19.256  0.00  0.00    +0.000 C 
BRANCH  21  23
ATOM     22  C   UNL     1       9.981  12.935  17.623  0.00  0.00    +0.000 C 
ATOM     23  C   UNL     1      10.702  11.609  17.814  0.00  0.00    +0.000 C 
ENDBRANCH  21  23
ENDBRANCH  20  21
ENDBRANCH  19  20
ENDBRANCH  17  19
ENDBRANCH  16  18
ENDBRANCH  13  16
ENDBRANCH   1  15
TORSDOF 8
ENDMDL
MODEL 3
REMARK VINA RESULT:      -7.2      3.310      6.447
REMARK  Name = 
REMARK  9 active torsions:
REMARK  status: ('A' for Active; 'I' for Inactive)
REMARK    1  A    between atoms: C_1  and  C_2
REMARK    2  A    between atoms: C_2  and  C_3
REMARK    3  A    between atoms: C_3  and  C_4
REMARK    4  A    between atoms: C_4  and  C_5
REMARK    5  A    between atoms: C_5  and  C_6
REMARK    6  A    between atoms: C_7  and  C_8
REMARK    7  A    between atoms: C_8  and  C_9
REMARK    8  A    between atoms: C_11  and  C_12
REMARK    9  A    between atoms: C_13  and  C_14
REMARK                            x       y       z     vdW  Elec       q    Type
REMARK                         _______ _______ _______ _____ _____    ______ ____
ROOT
ATOM      1  C   UNL     1       5.746   5.073  17.534  0.00  0.00    +0.000 C 
ATOM      2  C   UNL     1       5.383   3.823  17.866  0.00  0.00    +0.000 C 
ENDROOT
BRANCH   2   3
ATOM      3  C   UNL     1       4.022   3.444  18.396  0.00  0.00    +0.000 C 
ATOM      4  C   UNL     1       3.046   4.634  18.257  0.00  0.00    +0.000 C 
ATOM      5  C   UNL     1       3.042   5.551  19.449  0.00  0.00    +0.000 C 
ATOM      6  C   UNL     1       2.120   5.553  20.423  0.00  0.00    +0.000 C 
ATOM      7  C   UNL     1       0.888   4.695  20.483  0.00  0.00    +0.000 C 
ATOM      8  C   UNL     1       1.108   3.307  21.091  0.00  0.00    +0.000 C 
ATOM      9  C   UNL     1       1.940   2.349  20.234  0.00  0.00    +0.000 C 
ATOM     10  C   UNL     1       3.403   2.415  20.583  0.00  0.00    +0.000 C 
ATOM     11  O   UNL     1       3.805   1.935  21.645  0.00  0.00    +0.000 OA
ATOM     12  O   UNL     1       4.266   3.031  19.759  0.00  0.00    +0.000 OA
ENDBRANCH   2   3
BRANCH   1  15
ATOM     13  C   UNL     1       7.362   5.528  15.570  0.00  0.00    +0.000 C 
ATOM     14  O   UNL     1       7.952   4.541  16.432  0.00  0.00    +0.000 OA
ATOM     15  C   UNL     1       7.068   5.486  17.056  0.00  0.00    +0.000 C 
BRANCH  13  16
ATOM     16  C   UNL     1       6.442   4.952  14.538  0.00  0.00    +0.000 C 
BRANCH  16  18
ATOM     17  C   UNL     1       6.660   3.817  12.293  0.00  0.00    +0.000 C 
ATOM     18  C   UNL     1       7.107   4.690  13.212  0.00  0.00    +0.000 C 
BRANCH  17  19
ATOM     19  C   UNL     1       5.420   2.993  12.486  0.00  0.00    +0.000 C 
BRANCH  19  20
ATOM     20  C   UNL     1       4.859   2.415  11.191  0.00  0.00    +0.000 C 
BRANCH  20  21
ATOM     21  C   UNL     1       3.470   2.998  10.930  0.00  0.00    +0.000 C 
BRANCH  21  23
ATOM     22  C   UNL     1       2.522   4.477   9.135  0.00  0.00    +0.000 C 
ATOM     23  C   UNL     1       3.557   4.356  10.242  0.00  0.00    +0.000 C 
ENDBRANCH  21  23
ENDBRANCH  20  21
ENDBRANCH  19  20
ENDBRANCH  17  19
ENDBRANCH  16  18
ENDBRANCH  13  16
ENDBRANCH   1  15
TORSDOF 8
ENDMDL
MODEL 4
REMARK VINA RESULT:      -7.1      0.891      1.056
REMARK  Name = 
REMARK  9 active torsions:
REMARK  status: ('A' for Active; 'I' for Inactive)
REMARK    1  A    between atoms: C_1  and  C_2
REMARK    2  A    between atoms: C_2  and  C_3
REMARK    3  A    between atoms: C_3  and  C_4
REMARK    4  A    between atoms: C_4  and  C_5
REMARK    5  A    between atoms: C_5  and  C_6
REMARK    6  A    between atoms: C_7  and  C_8
REMARK    7  A    between atoms: C_8  and  C_9
REMARK    8  A    between atoms: C_11  and  C_12
REMARK    9  A    between atoms: C_13  and  C_14
REMARK                            x       y       z     vdW  Elec       q    Type
REMARK                         _______ _______ _______ _____ _____    ______ ____
ROOT
ATOM      1  C   UNL     1       4.531   4.813  16.285  0.00  0.00    +0.000 C 
ATOM      2  C   UNL     1       4.652   3.636  16.919  0.00  0.00    +0.000 C 
ENDROOT
BRANCH   2   3
ATOM      3  C   UNL     1       3.625   3.069  17.867  0.00  0.00    +0.000 C 
ATOM      4  C   UNL     1       2.386   3.992  17.925  0.00  0.00    +0.000 C 
ATOM      5  C   UNL     1       2.483   5.063  18.975  0.00  0.00    +0.000 C 
ATOM      6  C   UNL     1       1.891   5.025  20.179  0.00  0.00    +0.000 C 
ATOM      7  C   UNL     1       0.973   3.949  20.684  0.00  0.00    +0.000 C 
ATOM      8  C   UNL     1       1.685   2.750  21.319  0.00  0.00    +0.000 C 
ATOM      9  C   UNL     1       2.460   1.866  20.339  0.00  0.00    +0.000 C 
ATOM     10  C   UNL     1       3.900   2.289  20.222  0.00  0.00    +0.000 C 
ATOM     11  O   UNL     1       4.681   2.078  21.150  0.00  0.00    +0.000 OA
ATOM     12  O   UNL     1       4.326   2.935  19.124  0.00  0.00    +0.000 OA
ENDBRANCH   2   3
BRANCH   1  15
ATOM     13  C   UNL     1       6.507   6.437  15.923  0.00  0.00    +0.000 C 
ATOM     14  O   UNL     1       5.441   6.805  15.033  0.00  0.00    +0.000 OA
ATOM     15  C   UNL     1       5.522   5.416  15.391  0.00  0.00    +0.000 C 
BRANCH  13  16
ATOM     16  C   UNL     1       6.393   7.051  17.284  0.00  0.00    +0.000 C 
BRANCH  16  18
ATOM     17  C   UNL     1       8.455   7.953  18.431  0.00  0.00    +0.000 C 
ATOM     18  C   UNL     1       7.646   6.927  18.112  0.00  0.00    +0.000 C 
BRANCH  17  19
ATOM     19  C   UNL     1       8.191   9.365  17.995  0.00  0.00    +0.000 C 
BRANCH  19  20
ATOM     20  C   UNL     1       8.959  10.408  18.800  0.00  0.00    +0.000 C 
BRANCH  20  21
ATOM     21  C   UNL     1      10.112  10.956  17.958  0.00  0.00    +0.000 C 
BRANCH  21  23
ATOM     22  C   UNL     1       9.612  13.121  19.128  0.00  0.00    +0.000 C 
ATOM     23  C   UNL     1      10.025  12.471  17.817  0.00  0.00    +0.000 C 
ENDBRANCH  21  23
ENDBRANCH  20  21
ENDBRANCH  19  20
ENDBRANCH  17  19
ENDBRANCH  16  18
ENDBRANCH  13  16
ENDBRANCH   1  15
TORSDOF 8
ENDMDL
MODEL 5
REMARK VINA RESULT:      -7.0      2.745      4.678
REMARK  Name = 
REMARK  9 active torsions:
REMARK  status: ('A' for Active; 'I' for Inactive)
REMARK    1  A    between atoms: C_1  and  C_2
REMARK    2  A    between atoms: C_2  and  C_3
REMARK    3  A    between atoms: C_3  and  C_4
REMARK    4  A    between atoms: C_4  and  C_5
REMARK    5  A    between atoms: C_5  and  C_6
REMARK    6  A    between atoms: C_7  and  C_8
REMARK    7  A    between atoms: C_8  and  C_9
REMARK    8  A    between atoms: C_11  and  C_12
REMARK    9  A    between atoms: C_13  and  C_14
REMARK                            x       y       z     vdW  Elec       q    Type
REMARK                         _______ _______ _______ _____ _____    ______ ____
ROOT
ATOM      1  C   UNL     1       6.459   5.148  19.157  0.00  0.00    +0.000 C 
ATOM      2  C   UNL     1       5.739   4.096  18.736  0.00  0.00    +0.000 C 
ENDROOT
BRANCH   2   3
ATOM      3  C   UNL     1       4.505   3.575  19.429  0.00  0.00    +0.000 C 
ATOM      4  C   UNL     1       3.755   2.585  18.510  0.00  0.00    +0.000 C 
ATOM      5  C   UNL     1       2.741   3.244  17.617  0.00  0.00    +0.000 C 
ATOM      6  C   UNL     1       1.417   3.271  17.834  0.00  0.00    +0.000 C 
ATOM      7  C   UNL     1       0.688   2.600  18.962  0.00  0.00    +0.000 C 
ATOM      8  C   UNL     1       0.623   3.419  20.255  0.00  0.00    +0.000 C 
ATOM      9  C   UNL     1       1.958   3.579  20.987  0.00  0.00    +0.000 C 
ATOM     10  C   UNL     1       2.677   4.834  20.570  0.00  0.00    +0.000 C 
ATOM     11  O   UNL     1       2.258   5.934  20.935  0.00  0.00    +0.000 OA
ATOM     12  O   UNL     1       3.752   4.761  19.767  0.00  0.00    +0.000 OA
ENDBRANCH   2   3
BRANCH   1  15
ATOM     13  C   UNL     1       7.672   6.983  17.803  0.00  0.00    +0.000 C 
ATOM     14  O   UNL     1       7.805   5.734  17.107  0.00  0.00    +0.000 OA
ATOM     15  C   UNL     1       7.684   5.658  18.536  0.00  0.00    +0.000 C 
BRANCH  13  16
ATOM     16  C   UNL     1       6.412   7.724  17.473  0.00  0.00    +0.000 C 
BRANCH  16  18
ATOM     17  C   UNL     1       4.124   6.841  16.870  0.00  0.00    +0.000 C 
ATOM     18  C   UNL     1       5.445   6.930  16.634  0.00  0.00    +0.000 C 
BRANCH  17  19
ATOM     19  C   UNL     1       3.452   7.540  18.015  0.00  0.00    +0.000 C 
BRANCH  19  20
ATOM     20  C   UNL     1       2.020   7.971  17.714  0.00  0.00    +0.000 C 
BRANCH  20  21
ATOM     21  C   UNL     1       1.905   9.490  17.841  0.00  0.00    +0.000 C 
BRANCH  21  23
ATOM     22  C   UNL     1       0.879   9.211  20.116  0.00  0.00    +0.000 C 
ATOM     23  C   UNL     1       0.755   9.886  18.759  0.00  0.00    +0.000 C 
ENDBRANCH  21  23
ENDBRANCH  20  21
ENDBRANCH  19  20
ENDBRANCH  17  19
ENDBRANCH  16  18
ENDBRANCH  13  16
ENDBRANCH   1  15
TORSDOF 8
ENDMDL
MODEL 6
REMARK VINA RESULT:      -6.9      3.316      6.723
REMARK  Name = 
REMARK  9 active torsions:
REMARK  status: ('A' for Active; 'I' for Inactive)
REMARK    1  A    between atoms: C_1  and  C_2
REMARK    2  A    between atoms: C_2  and  C_3
REMARK    3  A    between atoms: C_3  and  C_4
REMARK    4  A    between atoms: C_4  and  C_5
REMARK    5  A    between atoms: C_5  and  C_6
REMARK    6  A    between atoms: C_7  and  C_8
REMARK    7  A    between atoms: C_8  and  C_9
REMARK    8  A    between atoms: C_11  and  C_12
REMARK    9  A    between atoms: C_13  and  C_14
REMARK                            x       y       z     vdW  Elec       q    Type
REMARK                         _______ _______ _______ _____ _____    ______ ____
ROOT
ATOM      1  C   UNL     1       5.242   5.995  17.806  0.00  0.00    +0.000 C 
ATOM      2  C   UNL     1       5.379   4.746  18.281  0.00  0.00    +0.000 C 
ENDROOT
BRANCH   2   3
ATOM      3  C   UNL     1       4.460   4.116  19.298  0.00  0.00    +0.000 C 
ATOM      4  C   UNL     1       3.979   2.736  18.799  0.00  0.00    +0.000 C 
ATOM      5  C   UNL     1       2.719   2.796  17.981  0.00  0.00    +0.000 C 
ATOM      6  C   UNL     1       1.488   2.506  18.430  0.00  0.00    +0.000 C 
ATOM      7  C   UNL     1       1.138   2.006  19.802  0.00  0.00    +0.000 C 
ATOM      8  C   UNL     1       0.946   3.106  20.851  0.00  0.00    +0.000 C 
ATOM      9  C   UNL     1       2.226   3.840  21.260  0.00  0.00    +0.000 C 
ATOM     10  C   UNL     1       2.452   5.075  20.429  0.00  0.00    +0.000 C 
ATOM     11  O   UNL     1       1.740   6.066  20.593  0.00  0.00    +0.000 OA
ATOM     12  O   UNL     1       3.402   5.084  19.479  0.00  0.00    +0.000 OA
ENDBRANCH   2   3
BRANCH   1  15
ATOM     13  C   UNL     1       6.218   6.166  15.420  0.00  0.00    +0.000 C 
ATOM     14  O   UNL     1       7.299   5.980  16.347  0.00  0.00    +0.000 OA
ATOM     15  C   UNL     1       6.136   6.655  16.852  0.00  0.00    +0.000 C 
BRANCH  13  16
ATOM     16  C   UNL     1       5.595   4.885  14.958  0.00  0.00    +0.000 C 
BRANCH  16  18
ATOM     17  C   UNL     1       6.343   3.571  12.934  0.00  0.00    +0.000 C 
ATOM     18  C   UNL     1       6.540   3.992  14.196  0.00  0.00    +0.000 C 
BRANCH  17  19
ATOM     19  C   UNL     1       5.140   3.957  12.125  0.00  0.00    +0.000 C 
BRANCH  19  20
ATOM     20  C   UNL     1       4.691   2.880  11.142  0.00  0.00    +0.000 C 
BRANCH  20  21
ATOM     21  C   UNL     1       3.165   2.790  11.143  0.00  0.00    +0.000 C 
BRANCH  21  23
ATOM     22  C   UNL     1       3.090   4.603   9.407  0.00  0.00    +0.000 C 
ATOM     23  C   UNL     1       2.582   3.226   9.804  0.00  0.00    +0.000 C 
ENDBRANCH  21  23
ENDBRANCH  20  21
ENDBRANCH  19  20
ENDBRANCH  17  19
ENDBRANCH  16  18
ENDBRANCH  13  16
ENDBRANCH   1  15
TORSDOF 8
ENDMDL
MODEL 7
REMARK VINA RESULT:      -6.9      1.491      2.181
REMARK  Name = 
REMARK  9 active torsions:
REMARK  status: ('A' for Active; 'I' for Inactive)
REMARK    1  A    between atoms: C_1  and  C_2
REMARK    2  A    between atoms: C_2  and  C_3
REMARK    3  A    between atoms: C_3  and  C_4
REMARK    4  A    between atoms: C_4  and  C_5
REMARK    5  A    between atoms: C_5  and  C_6
REMARK    6  A    between atoms: C_7  and  C_8
REMARK    7  A    between atoms: C_8  and  C_9
REMARK    8  A    between atoms: C_11  and  C_12
REMARK    9  A    between atoms: C_13  and  C_14
REMARK                            x       y       z     vdW  Elec       q    Type
REMARK                         _______ _______ _______ _____ _____    ______ ____
ROOT
ATOM      1  C   UNL     1       5.765   5.039  17.431  0.00  0.00    +0.000 C 
ATOM      2  C   UNL     1       5.726   4.139  18.427  0.00  0.00    +0.000 C 
ENDROOT
BRANCH   2   3
ATOM      3  C   UNL     1       4.557   3.952  19.362  0.00  0.00    +0.000 C 
ATOM      4  C   UNL     1       3.807   2.644  19.024  0.00  0.00    +0.000 C 
ATOM      5  C   UNL     1       2.716   2.822  18.004  0.00  0.00    +0.000 C 
ATOM      6  C   UNL     1       1.406   2.916  18.278  0.00  0.00    +0.000 C 
ATOM      7  C   UNL     1       0.771   2.796  19.634  0.00  0.00    +0.000 C 
ATOM      8  C   UNL     1       0.736   4.100  20.438  0.00  0.00    +0.000 C 
ATOM      9  C   UNL     1       2.099   4.592  20.931  0.00  0.00    +0.000 C 
ATOM     10  C   UNL     1       2.733   5.549  19.958  0.00  0.00    +0.000 C 
ATOM     11  O   UNL     1       2.282   6.688  19.832  0.00  0.00    +0.000 OA
ATOM     12  O   UNL     1       3.766   5.151  19.196  0.00  0.00    +0.000 OA
ENDBRANCH   2   3
BRANCH   1  15
ATOM     13  C   UNL     1       7.708   6.551  16.649  0.00  0.00    +0.000 C 
ATOM     14  O   UNL     1       6.834   6.311  15.534  0.00  0.00    +0.000 OA
ATOM     15  C   UNL     1       6.895   5.277  16.530  0.00  0.00    +0.000 C 
BRANCH  13  16
ATOM     16  C   UNL     1       7.292   7.710  17.501  0.00  0.00    +0.000 C 
BRANCH  16  18
ATOM     17  C   UNL     1       8.877   9.264  18.705  0.00  0.00    +0.000 C 
ATOM     18  C   UNL     1       8.288   8.063  18.574  0.00  0.00    +0.000 C 
BRANCH  17  19
ATOM     19  C   UNL     1       8.597  10.414  17.781  0.00  0.00    +0.000 C 
BRANCH  19  20
ATOM     20  C   UNL     1       9.170  11.742  18.264  0.00  0.00    +0.000 C 
BRANCH  20  21
ATOM     21  C   UNL     1      10.561  11.948  17.664  0.00  0.00    +0.000 C 
BRANCH  21  23
ATOM     22  C   UNL     1      11.787  11.581  19.824  0.00  0.00    +0.000 C 
ATOM     23  C   UNL     1      11.523  12.549  18.682  0.00  0.00    +0.000 C 
ENDBRANCH  21  23
ENDBRANCH  20  21
ENDBRANCH  19  20
ENDBRANCH  17  19
ENDBRANCH  16  18
ENDBRANCH  13  16
ENDBRANCH   1  15
TORSDOF 8
ENDMDL
MODEL 8
REMARK VINA RESULT:      -6.9      3.234      6.062
REMARK  Name = 
REMARK  9 active torsions:
REMARK  status: ('A' for Active; 'I' for Inactive)
REMARK    1  A    between atoms: C_1  and  C_2
REMARK    2  A    between atoms: C_2  and  C_3
REMARK    3  A    between atoms: C_3  and  C_4
REMARK    4  A    between atoms: C_4  and  C_5
REMARK    5  A    between atoms: C_5  and  C_6
REMARK    6  A    between atoms: C_7  and  C_8
REMARK    7  A    between atoms: C_8  and  C_9
REMARK    8  A    between atoms: C_11  and  C_12
REMARK    9  A    between atoms: C_13  and  C_14
REMARK                            x       y       z     vdW  Elec       q    Type
REMARK                         _______ _______ _______ _____ _____    ______ ____
ROOT
ATOM      1  C   UNL     1       4.871   6.091  17.770  0.00  0.00    +0.000 C 
ATOM      2  C   UNL     1       3.587   6.483  17.812  0.00  0.00    +0.000 C 
ENDROOT
BRANCH   2   3
ATOM      3  C   UNL     1       2.443   5.605  18.252  0.00  0.00    +0.000 C 
ATOM      4  C   UNL     1       2.222   5.742  19.775  0.00  0.00    +0.000 C 
ATOM      5  C   UNL     1       3.028   4.770  20.591  0.00  0.00    +0.000 C 
ATOM      6  C   UNL     1       2.560   3.634  21.129  0.00  0.00    +0.000 C 
ATOM      7  C   UNL     1       1.140   3.147  21.081  0.00  0.00    +0.000 C 
ATOM      8  C   UNL     1       0.781   2.355  19.819  0.00  0.00    +0.000 C 
ATOM      9  C   UNL     1       0.720   3.183  18.532  0.00  0.00    +0.000 C 
ATOM     10  C   UNL     1       2.038   3.183  17.805  0.00  0.00    +0.000 C 
ATOM     11  O   UNL     1       2.421   2.167  17.224  0.00  0.00    +0.000 OA
ATOM     12  O   UNL     1       2.818   4.277  17.823  0.00  0.00    +0.000 OA
ENDBRANCH   2   3
BRANCH   1  15
ATOM     13  C   UNL     1       7.165   6.243  16.592  0.00  0.00    +0.000 C 
ATOM     14  O   UNL     1       7.296   6.767  17.923  0.00  0.00    +0.000 OA
ATOM     15  C   UNL     1       6.003   6.899  17.310  0.00  0.00    +0.000 C 
BRANCH  13  16
ATOM     16  C   UNL     1       7.343   4.758  16.510  0.00  0.00    +0.000 C 
BRANCH  16  18
ATOM     17  C   UNL     1       5.615   3.790  14.943  0.00  0.00    +0.000 C 
ATOM     18  C   UNL     1       6.074   4.012  16.187  0.00  0.00    +0.000 C 
BRANCH  17  19
ATOM     19  C   UNL     1       6.332   4.263  13.713  0.00  0.00    +0.000 C 
BRANCH  19  20
ATOM     20  C   UNL     1       6.363   3.234  12.587  0.00  0.00    +0.000 C 
BRANCH  20  21
ATOM     21  C   UNL     1       5.526   3.737  11.411  0.00  0.00    +0.000 C 
BRANCH  21  23
ATOM     22  C   UNL     1       3.298   3.624  10.258  0.00  0.00    +0.000 C 
ATOM     23  C   UNL     1       4.089   3.235  11.497  0.00  0.00    +0.000 C 
ENDBRANCH  21  23
ENDBRANCH  20  21
ENDBRANCH  19  20
ENDBRANCH  17  19
ENDBRANCH  16  18
ENDBRANCH  13  16
ENDBRANCH   1  15
TORSDOF 8
ENDMDL
MODEL 9
REMARK VINA RESULT:      -6.8      1.414      2.081
REMARK  Name = 
REMARK  9 active torsions:
REMARK  status: ('A' for Active; 'I' for Inactive)
REMARK    1  A    between atoms: C_1  and  C_2
REMARK    2  A    between atoms: C_2  and  C_3
REMARK    3  A    between atoms: C_3  and  C_4
REMARK    4  A    between atoms: C_4  and  C_5
REMARK    5  A    between atoms: C_5  and  C_6
REMARK    6  A    between atoms: C_7  and  C_8
REMARK    7  A    between atoms: C_8  and  C_9
REMARK    8  A    between atoms: C_11  and  C_12
REMARK    9  A    between atoms: C_13  and  C_14
REMARK                            x       y       z     vdW  Elec       q    Type
REMARK                         _______ _______ _______ _____ _____    ______ ____
ROOT
ATOM      1  C   UNL     1       4.884   4.358  16.947  0.00  0.00    +0.000 C 
ATOM      2  C   UNL     1       3.689   4.938  17.143  0.00  0.00    +0.000 C 
ENDROOT
BRANCH   2   3
ATOM      3  C   UNL     1       2.839   4.743  18.374  0.00  0.00    +0.000 C 
ATOM      4  C   UNL     1       3.736   4.604  19.625  0.00  0.00    +0.000 C 
ATOM      5  C   UNL     1       4.145   3.187  19.917  0.00  0.00    +0.000 C 
ATOM      6  C   UNL     1       3.586   2.394  20.843  0.00  0.00    +0.000 C 
ATOM      7  C   UNL     1       2.499   2.780  21.805  0.00  0.00    +0.000 C 
ATOM      8  C   UNL     1       1.078   2.642  21.249  0.00  0.00    +0.000 C 
ATOM      9  C   UNL     1       0.709   3.653  20.160  0.00  0.00    +0.000 C 
ATOM     10  C   UNL     1       0.989   3.117  18.781  0.00  0.00    +0.000 C 
ATOM     11  O   UNL     1       0.276   2.232  18.307  0.00  0.00    +0.000 OA
ATOM     12  O   UNL     1       2.042   3.574  18.081  0.00  0.00    +0.000 OA
ENDBRANCH   2   3
BRANCH   1  15
ATOM     13  C   UNL     1       7.035   5.239  15.818  0.00  0.00    +0.000 C 
ATOM     14  O   UNL     1       5.898   5.767  15.117  0.00  0.00    +0.000 OA
ATOM     15  C   UNL     1       5.719   4.490  15.751  0.00  0.00    +0.000 C 
BRANCH  13  16
ATOM     16  C   UNL     1       7.447   6.061  17.000  0.00  0.00    +0.000 C 
BRANCH  16  18
ATOM     17  C   UNL     1       7.081   8.478  17.636  0.00  0.00    +0.000 C 
ATOM     18  C   UNL     1       6.608   7.296  17.203  0.00  0.00    +0.000 C 
BRANCH  17  19
ATOM     19  C   UNL     1       8.527   8.706  17.967  0.00  0.00    +0.000 C 
BRANCH  19  20
ATOM     20  C   UNL     1       8.779   9.978  18.768  0.00  0.00    +0.000 C 
BRANCH  20  21
ATOM     21  C   UNL     1       9.736  10.887  17.997  0.00  0.00    +0.000 C 
BRANCH  21  23
ATOM     22  C   UNL     1      11.809  12.300  18.119  0.00  0.00    +0.000 C 
ATOM     23  C   UNL     1      10.840  11.426  18.900  0.00  0.00    +0.000 C 
ENDBRANCH  21  23
ENDBRANCH  20  21
ENDBRANCH  19  20
ENDBRANCH  17  19
ENDBRANCH  16  18
ENDBRANCH  13  16
ENDBRANCH   1  15
TORSDOF 8
ENDMDL
