MODEL 1
REMARK VINA RESULT:      -6.6      0.000      0.000
REMARK  Name = 
REMARK  13 active torsions:
REMARK  status: ('A' for Active; 'I' for Inactive)
REMARK    1  A    between atoms: C_1  and  C_2
REMARK    2  A    between atoms: C_6  and  C_7
REMARK    3  A    between atoms: C_7  and  C_8
REMARK    4  A    between atoms: C_7  and  C_9
REMARK    5  A    between atoms: C_7  and  C_10
REMARK    6  A    between atoms: C_11  and  N_12
REMARK    7  A    between atoms: C_13  and  C_15
REMARK    8  A    between atoms: C_19  and  O_21
REMARK    9  A    between atoms: O_21  and  C_22
REMARK   10  A    between atoms: C_22  and  C_23
REMARK   11  A    between atoms: C_22  and  C_24
REMARK   12  A    between atoms: C_22  and  C_25
REMARK   13  A    between atoms: C_27  and  C_28
REMARK                            x       y       z     vdW  Elec       q    Type
REMARK                         _______ _______ _______ _____ _____    ______ ____
ROOT
ATOM      1  N   UNL     1      -0.005  12.676  20.594  0.00  0.00    +0.000 N 
ATOM      2  C   UNL     1      -0.415  11.453  20.056  0.00  0.00    +0.000 C 
ATOM      3  O   UNL     1      -1.202  11.344  19.117  0.00  0.00    +0.000 OA
ATOM      4  H   UNL     1       0.831  12.626  21.161  0.00  0.00    +0.000 HD
ENDROOT
BRANCH   2   5
ATOM      5  C   UNL     1       0.275  10.292  20.624  0.00  0.00    +0.000 A 
ATOM      6  S   UNL     1       1.474   9.470  19.719  0.00  0.00    +0.000 S 
ATOM      7  C   UNL     1       1.486   8.192  20.844  0.00  0.00    +0.000 A 
ATOM      8  N   UNL     1       2.141   7.010  20.571  0.00  0.00    +0.000 N 
ATOM      9  C   UNL     1       2.416   6.591  19.294  0.00  0.00    +0.000 C 
ATOM     10  O   UNL     1       2.138   7.197  18.267  0.00  0.00    +0.000 OA
ATOM     11  N   UNL     1       0.876   8.457  21.976  0.00  0.00    +0.000 NA
ATOM     12  C   UNL     1       0.159   9.660  21.858  0.00  0.00    +0.000 A 
ATOM     13  C   UNL     1      -0.663  10.085  23.025  0.00  0.00    +0.000 C 
ATOM     14  H   UNL     1       2.213   6.343  21.322  0.00  0.00    +0.000 HD
BRANCH   9  15
ATOM     15  O   UNL     1       3.007   5.360  19.284  0.00  0.00    +0.000 OA
BRANCH  15  16
ATOM     16  C   UNL     1       2.130   4.200  19.140  0.00  0.00    +0.000 C 
ATOM     17  C   UNL     1       1.533   4.112  17.723  0.00  0.00    +0.000 C 
ATOM     18  C   UNL     1       3.000   2.950  19.354  0.00  0.00    +0.000 C 
ATOM     19  C   UNL     1       1.042   4.193  20.228  0.00  0.00    +0.000 C 
ENDBRANCH  15  16
ENDBRANCH   9  15
ENDBRANCH   2   5
BRANCH   1  26
ATOM     20  C   UNL     1      -2.660  13.768  21.318  0.00  0.00    +0.000 C 
ATOM     21  C   UNL     1      -1.620  14.515  20.521  0.00  0.00    +0.000 A 
ATOM     22  C   UNL     1      -1.900  15.867  20.254  0.00  0.00    +0.000 A 
ATOM     23  C   UNL     1      -0.957  16.682  19.658  0.00  0.00    +0.000 A 
ATOM     24  C   UNL     1       0.282  16.157  19.310  0.00  0.00    +0.000 A 
ATOM     25  C   UNL     1       0.627  14.800  19.522  0.00  0.00    +0.000 A 
ATOM     26  C   UNL     1      -0.358  13.971  20.152  0.00  0.00    +0.000 A 
BRANCH  25  27
ATOM     27  C   UNL     1       2.048  14.361  19.047  0.00  0.00    +0.000 C 
ATOM     28  C   UNL     1       2.689  15.528  18.268  0.00  0.00    +0.000 C 
ATOM     29  C   UNL     1       3.010  13.908  20.169  0.00  0.00    +0.000 C 
ATOM     30  C   UNL     1       2.002  13.135  18.084  0.00  0.00    +0.000 C 
ENDBRANCH  25  27
ENDBRANCH   1  26
TORSDOF 5
ENDMDL
MODEL 2
REMARK VINA RESULT:      -6.6      2.528      9.150
REMARK  Name = 
REMARK  13 active torsions:
REMARK  status: ('A' for Active; 'I' for Inactive)
REMARK    1  A    between atoms: C_1  and  C_2
REMARK    2  A    between atoms: C_6  and  C_7
REMARK    3  A    between atoms: C_7  and  C_8
REMARK    4  A    between atoms: C_7  and  C_9
REMARK    5  A    between atoms: C_7  and  C_10
REMARK    6  A    between atoms: C_11  and  N_12
REMARK    7  A    between atoms: C_13  and  C_15
REMARK    8  A    between atoms: C_19  and  O_21
REMARK    9  A    between atoms: O_21  and  C_22
REMARK   10  A    between atoms: C_22  and  C_23
REMARK   11  A    between atoms: C_22  and  C_24
REMARK   12  A    between atoms: C_22  and  C_25
REMARK   13  A    between atoms: C_27  and  C_28
REMARK                            x       y       z     vdW  Elec       q    Type
REMARK                         _______ _______ _______ _____ _____    ______ ____
ROOT
ATOM      1  N   UNL     1       3.622   6.534  18.426  0.00  0.00    +0.000 N 
ATOM      2  C   UNL     1       2.790   7.611  18.111  0.00  0.00    +0.000 C 
ATOM      3  O   UNL     1       2.653   8.066  16.977  0.00  0.00    +0.000 OA
ATOM      4  H   UNL     1       3.431   6.101  19.320  0.00  0.00    +0.000 HD
ENDROOT
BRANCH   2   5
ATOM      5  C   UNL     1       1.978   8.084  19.235  0.00  0.00    +0.000 A 
ATOM      6  S   UNL     1       1.249   9.632  19.185  0.00  0.00    +0.000 S 
ATOM      7  C   UNL     1       0.854   9.530  20.838  0.00  0.00    +0.000 A 
ATOM      8  N   UNL     1       0.398  10.632  21.530  0.00  0.00    +0.000 N 
ATOM      9  C   UNL     1       0.649  11.919  21.126  0.00  0.00    +0.000 C 
ATOM     10  O   UNL     1       1.276  12.245  20.127  0.00  0.00    +0.000 OA
ATOM     11  N   UNL     1       0.974   8.329  21.353  0.00  0.00    +0.000 NA
ATOM     12  C   UNL     1       1.636   7.487  20.445  0.00  0.00    +0.000 A 
ATOM     13  C   UNL     1       1.932   6.096  20.889  0.00  0.00    +0.000 C 
ATOM     14  H   UNL     1       0.069  10.478  22.469  0.00  0.00    +0.000 HD
BRANCH   9  15
ATOM     15  O   UNL     1       0.152  12.831  22.013  0.00  0.00    +0.000 OA
BRANCH  15  16
ATOM     16  C   UNL     1      -1.286  13.087  21.973  0.00  0.00    +0.000 C 
ATOM     17  C   UNL     1      -2.041  12.245  23.018  0.00  0.00    +0.000 C 
ATOM     18  C   UNL     1      -1.489  14.567  22.339  0.00  0.00    +0.000 C 
ATOM     19  C   UNL     1      -1.843  12.884  20.554  0.00  0.00    +0.000 C 
ENDBRANCH  15  16
ENDBRANCH   9  15
ENDBRANCH   2   5
BRANCH   1  26
ATOM     20  C   UNL     1       6.059   7.720  17.233  0.00  0.00    +0.000 C 
ATOM     21  C   UNL     1       5.587   6.311  16.981  0.00  0.00    +0.000 A 
ATOM     22  C   UNL     1       6.464   5.487  16.254  0.00  0.00    +0.000 A 
ATOM     23  C   UNL     1       6.200   4.141  16.088  0.00  0.00    +0.000 A 
ATOM     24  C   UNL     1       5.047   3.595  16.641  0.00  0.00    +0.000 A 
ATOM     25  C   UNL     1       4.103   4.367  17.363  0.00  0.00    +0.000 A 
ATOM     26  C   UNL     1       4.399   5.758  17.535  0.00  0.00    +0.000 A 
BRANCH  25  27
ATOM     27  C   UNL     1       2.845   3.608  17.893  0.00  0.00    +0.000 C 
ATOM     28  C   UNL     1       3.014   3.376  19.409  0.00  0.00    +0.000 C 
ATOM     29  C   UNL     1       1.492   4.307  17.632  0.00  0.00    +0.000 C 
ATOM     30  C   UNL     1       2.670   2.207  17.229  0.00  0.00    +0.000 C 
ENDBRANCH  25  27
ENDBRANCH   1  26
TORSDOF 5
ENDMDL
MODEL 3
REMARK VINA RESULT:      -6.6      0.314      1.164
REMARK  Name = 
REMARK  13 active torsions:
REMARK  status: ('A' for Active; 'I' for Inactive)
REMARK    1  A    between atoms: C_1  and  C_2
REMARK    2  A    between atoms: C_6  and  C_7
REMARK    3  A    between atoms: C_7  and  C_8
REMARK    4  A    between atoms: C_7  and  C_9
REMARK    5  A    between atoms: C_7  and  C_10
REMARK    6  A    between atoms: C_11  and  N_12
REMARK    7  A    between atoms: C_13  and  C_15
REMARK    8  A    between atoms: C_19  and  O_21
REMARK    9  A    between atoms: O_21  and  C_22
REMARK   10  A    between atoms: C_22  and  C_23
REMARK   11  A    between atoms: C_22  and  C_24
REMARK   12  A    between atoms: C_22  and  C_25
REMARK   13  A    between atoms: C_27  and  C_28
REMARK                            x       y       z     vdW  Elec       q    Type
REMARK                         _______ _______ _______ _____ _____    ______ ____
ROOT
ATOM      1  N   UNL     1       0.189  12.623  20.420  0.00  0.00    +0.000 N 
ATOM      2  C   UNL     1      -0.220  11.394  19.894  0.00  0.00    +0.000 C 
ATOM      3  O   UNL     1      -0.957  11.276  18.916  0.00  0.00    +0.000 OA
ATOM      4  H   UNL     1       0.991  12.571  21.034  0.00  0.00    +0.000 HD
ENDROOT
BRANCH   2   5
ATOM      5  C   UNL     1       0.411  10.235  20.530  0.00  0.00    +0.000 A 
ATOM      6  S   UNL     1       1.596   9.327  19.692  0.00  0.00    +0.000 S 
ATOM      7  C   UNL     1       1.533   8.103  20.874  0.00  0.00    +0.000 A 
ATOM      8  N   UNL     1       2.147   6.885  20.670  0.00  0.00    +0.000 N 
ATOM      9  C   UNL     1       2.433   6.398  19.421  0.00  0.00    +0.000 C 
ATOM     10  O   UNL     1       2.201   6.965  18.361  0.00  0.00    +0.000 OA
ATOM     11  N   UNL     1       0.910   8.444  21.978  0.00  0.00    +0.000 NA
ATOM     12  C   UNL     1       0.244   9.666  21.789  0.00  0.00    +0.000 A 
ATOM     13  C   UNL     1      -0.586  10.176  22.916  0.00  0.00    +0.000 C 
ATOM     14  H   UNL     1       2.176   6.252  21.453  0.00  0.00    +0.000 HD
BRANCH   9  15
ATOM     15  O   UNL     1       2.975   5.145  19.480  0.00  0.00    +0.000 OA
BRANCH  15  16
ATOM     16  C   UNL     1       2.098   4.022  19.151  0.00  0.00    +0.000 C 
ATOM     17  C   UNL     1       2.824   2.673  19.302  0.00  0.00    +0.000 C 
ATOM     18  C   UNL     1       0.944   4.042  20.167  0.00  0.00    +0.000 C 
ATOM     19  C   UNL     1       1.482   4.195  17.752  0.00  0.00    +0.000 C 
ENDBRANCH  15  16
ENDBRANCH   9  15
ENDBRANCH   2   5
BRANCH   1  26
ATOM     20  C   UNL     1      -2.438  13.834  21.053  0.00  0.00    +0.000 C 
ATOM     21  C   UNL     1      -1.358  14.513  20.250  0.00  0.00    +0.000 A 
ATOM     22  C   UNL     1      -1.585  15.863  19.929  0.00  0.00    +0.000 A 
ATOM     23  C   UNL     1      -0.603  16.623  19.322  0.00  0.00    +0.000 A 
ATOM     24  C   UNL     1       0.623  16.043  19.017  0.00  0.00    +0.000 A 
ATOM     25  C   UNL     1       0.915  14.682  19.285  0.00  0.00    +0.000 A 
ATOM     26  C   UNL     1      -0.110  13.913  19.925  0.00  0.00    +0.000 A 
BRANCH  25  27
ATOM     27  C   UNL     1       2.329  14.177  18.854  0.00  0.00    +0.000 C 
ATOM     28  C   UNL     1       3.200  14.016  20.117  0.00  0.00    +0.000 C 
ATOM     29  C   UNL     1       2.342  12.855  18.053  0.00  0.00    +0.000 C 
ATOM     30  C   UNL     1       3.061  15.184  17.914  0.00  0.00    +0.000 C 
ENDBRANCH  25  27
ENDBRANCH   1  26
TORSDOF 5
ENDMDL
MODEL 4
REMARK VINA RESULT:      -6.5      0.733      2.690
REMARK  Name = 
REMARK  13 active torsions:
REMARK  status: ('A' for Active; 'I' for Inactive)
REMARK    1  A    between atoms: C_1  and  C_2
REMARK    2  A    between atoms: C_6  and  C_7
REMARK    3  A    between atoms: C_7  and  C_8
REMARK    4  A    between atoms: C_7  and  C_9
REMARK    5  A    between atoms: C_7  and  C_10
REMARK    6  A    between atoms: C_11  and  N_12
REMARK    7  A    between atoms: C_13  and  C_15
REMARK    8  A    between atoms: C_19  and  O_21
REMARK    9  A    between atoms: O_21  and  C_22
REMARK   10  A    between atoms: C_22  and  C_23
REMARK   11  A    between atoms: C_22  and  C_24
REMARK   12  A    between atoms: C_22  and  C_25
REMARK   13  A    between atoms: C_27  and  C_28
REMARK                            x       y       z     vdW  Elec       q    Type
REMARK                         _______ _______ _______ _____ _____    ______ ____
ROOT
ATOM      1  N   UNL     1       0.228  12.656  20.757  0.00  0.00    +0.000 N 
ATOM      2  C   UNL     1      -0.235  11.468  20.187  0.00  0.00    +0.000 C 
ATOM      3  O   UNL     1      -1.002  11.419  19.226  0.00  0.00    +0.000 OA
ATOM      4  H   UNL     1       1.046  12.551  21.343  0.00  0.00    +0.000 HD
ENDROOT
BRANCH   2   5
ATOM      5  C   UNL     1       0.376  10.260  20.748  0.00  0.00    +0.000 A 
ATOM      6  S   UNL     1       1.589   9.420  19.879  0.00  0.00    +0.000 S 
ATOM      7  C   UNL     1       1.489   8.106  20.957  0.00  0.00    +0.000 A 
ATOM      8  N   UNL     1       2.111   6.908  20.676  0.00  0.00    +0.000 N 
ATOM      9  C   UNL     1       2.438   6.521  19.401  0.00  0.00    +0.000 C 
ATOM     10  O   UNL     1       2.241   7.172  18.384  0.00  0.00    +0.000 OA
ATOM     11  N   UNL     1       0.829   8.358  22.062  0.00  0.00    +0.000 NA
ATOM     12  C   UNL     1       0.168   9.592  21.951  0.00  0.00    +0.000 A 
ATOM     13  C   UNL     1      -0.699  10.012  23.087  0.00  0.00    +0.000 C 
ATOM     14  H   UNL     1       2.114   6.213  21.406  0.00  0.00    +0.000 HD
BRANCH   9  15
ATOM     15  O   UNL     1       2.979   5.267  19.378  0.00  0.00    +0.000 OA
BRANCH  15  16
ATOM     16  C   UNL     1       2.067   4.151  19.138  0.00  0.00    +0.000 C 
ATOM     17  C   UNL     1       1.480   4.194  17.714  0.00  0.00    +0.000 C 
ATOM     18  C   UNL     1       2.894   2.861  19.257  0.00  0.00    +0.000 C 
ATOM     19  C   UNL     1       0.969   4.093  20.214  0.00  0.00    +0.000 C 
ENDBRANCH  15  16
ENDBRANCH   9  15
ENDBRANCH   2   5
BRANCH   1  26
ATOM     20  C   UNL     1       1.768  13.782  18.493  0.00  0.00    +0.000 C 
ATOM     21  C   UNL     1       0.673  14.515  19.226  0.00  0.00    +0.000 A 
ATOM     22  C   UNL     1       0.278  15.747  18.675  0.00  0.00    +0.000 A 
ATOM     23  C   UNL     1      -0.810  16.434  19.180  0.00  0.00    +0.000 A 
ATOM     24  C   UNL     1      -1.519  15.903  20.251  0.00  0.00    +0.000 A 
ATOM     25  C   UNL     1      -1.165  14.682  20.876  0.00  0.00    +0.000 A 
ATOM     26  C   UNL     1      -0.042  13.977  20.333  0.00  0.00    +0.000 A 
BRANCH  25  27
ATOM     27  C   UNL     1      -2.046  14.239  22.087  0.00  0.00    +0.000 C 
ATOM     28  C   UNL     1      -1.117  13.782  23.230  0.00  0.00    +0.000 C 
ATOM     29  C   UNL     1      -3.022  15.312  22.622  0.00  0.00    +0.000 C 
ATOM     30  C   UNL     1      -2.976  13.036  21.740  0.00  0.00    +0.000 C 
ENDBRANCH  25  27
ENDBRANCH   1  26
TORSDOF 5
ENDMDL
MODEL 5
REMARK VINA RESULT:      -6.5      0.737      2.877
REMARK  Name = 
REMARK  13 active torsions:
REMARK  status: ('A' for Active; 'I' for Inactive)
REMARK    1  A    between atoms: C_1  and  C_2
REMARK    2  A    between atoms: C_6  and  C_7
REMARK    3  A    between atoms: C_7  and  C_8
REMARK    4  A    between atoms: C_7  and  C_9
REMARK    5  A    between atoms: C_7  and  C_10
REMARK    6  A    between atoms: C_11  and  N_12
REMARK    7  A    between atoms: C_13  and  C_15
REMARK    8  A    between atoms: C_19  and  O_21
REMARK    9  A    between atoms: O_21  and  C_22
REMARK   10  A    between atoms: C_22  and  C_23
REMARK   11  A    between atoms: C_22  and  C_24
REMARK   12  A    between atoms: C_22  and  C_25
REMARK   13  A    between atoms: C_27  and  C_28
REMARK                            x       y       z     vdW  Elec       q    Type
REMARK                         _______ _______ _______ _____ _____    ______ ____
ROOT
ATOM      1  N   UNL     1       0.077  12.688  20.791  0.00  0.00    +0.000 N 
ATOM      2  C   UNL     1      -0.368  11.490  20.225  0.00  0.00    +0.000 C 
ATOM      3  O   UNL     1      -1.168  11.425  19.293  0.00  0.00    +0.000 OA
ATOM      4  H   UNL     1       0.919  12.604  21.345  0.00  0.00    +0.000 HD
ENDROOT
BRANCH   2   5
ATOM      5  C   UNL     1       0.303  10.298  20.750  0.00  0.00    +0.000 A 
ATOM      6  S   UNL     1       1.517   9.513  19.832  0.00  0.00    +0.000 S 
ATOM      7  C   UNL     1       1.498   8.182  20.894  0.00  0.00    +0.000 A 
ATOM      8  N   UNL     1       2.151   7.011  20.577  0.00  0.00    +0.000 N 
ATOM      9  C   UNL     1       2.451   6.652  19.288  0.00  0.00    +0.000 C 
ATOM     10  O   UNL     1       2.199   7.309  18.286  0.00  0.00    +0.000 OA
ATOM     11  N   UNL     1       0.865   8.397  22.023  0.00  0.00    +0.000 NA
ATOM     12  C   UNL     1       0.158   9.608  21.949  0.00  0.00    +0.000 A 
ATOM     13  C   UNL     1      -0.687   9.982  23.117  0.00  0.00    +0.000 C 
ATOM     14  H   UNL     1       2.203   6.307  21.297  0.00  0.00    +0.000 HD
BRANCH   9  15
ATOM     15  O   UNL     1       3.035   5.418  19.230  0.00  0.00    +0.000 OA
BRANCH  15  16
ATOM     16  C   UNL     1       2.145   4.262  19.142  0.00  0.00    +0.000 C 
ATOM     17  C   UNL     1       1.007   4.343  20.176  0.00  0.00    +0.000 C 
ATOM     18  C   UNL     1       1.505   4.294  17.745  0.00  0.00    +0.000 C 
ATOM     19  C   UNL     1       2.936   2.947  19.254  0.00  0.00    +0.000 C 
ENDBRANCH  15  16
ENDBRANCH   9  15
ENDBRANCH   2   5
BRANCH   1  26
ATOM     20  C   UNL     1       1.515  13.897  18.502  0.00  0.00    +0.000 C 
ATOM     21  C   UNL     1       0.414  14.580  19.273  0.00  0.00    +0.000 A 
ATOM     22  C   UNL     1      -0.040  15.803  18.750  0.00  0.00    +0.000 A 
ATOM     23  C   UNL     1      -1.138  16.444  19.291  0.00  0.00    +0.000 A 
ATOM     24  C   UNL     1      -1.799  15.875  20.374  0.00  0.00    +0.000 A 
ATOM     25  C   UNL     1      -1.385  14.659  20.972  0.00  0.00    +0.000 A 
ATOM     26  C   UNL     1      -0.252  14.003  20.391  0.00  0.00    +0.000 A 
BRANCH  25  27
ATOM     27  C   UNL     1      -2.217  14.170  22.200  0.00  0.00    +0.000 C 
ATOM     28  C   UNL     1      -3.188  13.068  21.728  0.00  0.00    +0.000 C 
ATOM     29  C   UNL     1      -1.388  13.643  23.393  0.00  0.00    +0.000 C 
ATOM     30  C   UNL     1      -3.081  15.308  22.826  0.00  0.00    +0.000 C 
ENDBRANCH  25  27
ENDBRANCH   1  26
TORSDOF 5
ENDMDL
MODEL 6
REMARK VINA RESULT:      -6.5      1.280      2.975
REMARK  Name = 
REMARK  13 active torsions:
REMARK  status: ('A' for Active; 'I' for Inactive)
REMARK    1  A    between atoms: C_1  and  C_2
REMARK    2  A    between atoms: C_6  and  C_7
REMARK    3  A    between atoms: C_7  and  C_8
REMARK    4  A    between atoms: C_7  and  C_9
REMARK    5  A    between atoms: C_7  and  C_10
REMARK    6  A    between atoms: C_11  and  N_12
REMARK    7  A    between atoms: C_13  and  C_15
REMARK    8  A    between atoms: C_19  and  O_21
REMARK    9  A    between atoms: O_21  and  C_22
REMARK   10  A    between atoms: C_22  and  C_23
REMARK   11  A    between atoms: C_22  and  C_24
REMARK   12  A    between atoms: C_22  and  C_25
REMARK   13  A    between atoms: C_27  and  C_28
REMARK                            x       y       z     vdW  Elec       q    Type
REMARK                         _______ _______ _______ _____ _____    ______ ____
ROOT
ATOM      1  N   UNL     1       0.671  12.094  20.449  0.00  0.00    +0.000 N 
ATOM      2  C   UNL     1       0.261  10.952  19.757  0.00  0.00    +0.000 C 
ATOM      3  O   UNL     1      -0.352  10.976  18.691  0.00  0.00    +0.000 OA
ATOM      4  H   UNL     1       1.386  11.930  21.146  0.00  0.00    +0.000 HD
ENDROOT
BRANCH   2   5
ATOM      5  C   UNL     1       0.739   9.697  20.344  0.00  0.00    +0.000 A 
ATOM      6  S   UNL     1       1.839   8.705  19.486  0.00  0.00    +0.000 S 
ATOM      7  C   UNL     1       1.605   7.436  20.597  0.00  0.00    +0.000 A 
ATOM      8  N   UNL     1       2.083   6.169  20.342  0.00  0.00    +0.000 N 
ATOM      9  C   UNL     1       2.349   5.717  19.075  0.00  0.00    +0.000 C 
ATOM     10  O   UNL     1       2.215   6.361  18.043  0.00  0.00    +0.000 OA
ATOM     11  N   UNL     1       0.991   7.789  21.703  0.00  0.00    +0.000 NA
ATOM     12  C   UNL     1       0.472   9.087  21.565  0.00  0.00    +0.000 A 
ATOM     13  C   UNL     1      -0.329   9.629  22.698  0.00  0.00    +0.000 C 
ATOM     14  H   UNL     1       2.018   5.497  21.089  0.00  0.00    +0.000 HD
BRANCH   9  15
ATOM     15  O   UNL     1       2.746   4.409  19.079  0.00  0.00    +0.000 OA
BRANCH  15  16
ATOM     16  C   UNL     1       4.132   4.131  18.710  0.00  0.00    +0.000 C 
ATOM     17  C   UNL     1       5.089   5.214  19.243  0.00  0.00    +0.000 C 
ATOM     18  C   UNL     1       4.517   2.803  19.381  0.00  0.00    +0.000 C 
ATOM     19  C   UNL     1       4.270   3.934  17.190  0.00  0.00    +0.000 C 
ENDBRANCH  15  16
ENDBRANCH   9  15
ENDBRANCH   2   5
BRANCH   1  26
ATOM     20  C   UNL     1       2.547  13.243  18.467  0.00  0.00    +0.000 C 
ATOM     21  C   UNL     1       1.392  13.993  19.080  0.00  0.00    +0.000 A 
ATOM     22  C   UNL     1       1.124  15.263  18.540  0.00  0.00    +0.000 A 
ATOM     23  C   UNL     1       0.005  15.977  18.926  0.00  0.00    +0.000 A 
ATOM     24  C   UNL     1      -0.863  15.435  19.866  0.00  0.00    +0.000 A 
ATOM     25  C   UNL     1      -0.646  14.174  20.474  0.00  0.00    +0.000 A 
ATOM     26  C   UNL     1       0.513  13.443  20.054  0.00  0.00    +0.000 A 
BRANCH  25  27
ATOM     27  C   UNL     1      -1.700  13.722  21.534  0.00  0.00    +0.000 C 
ATOM     28  C   UNL     1      -2.623  12.667  20.891  0.00  0.00    +0.000 C 
ATOM     29  C   UNL     1      -1.116  13.155  22.848  0.00  0.00    +0.000 C 
ATOM     30  C   UNL     1      -2.606  14.898  22.012  0.00  0.00    +0.000 C 
ENDBRANCH  25  27
ENDBRANCH   1  26
TORSDOF 5
ENDMDL
MODEL 7
REMARK VINA RESULT:      -6.4      0.750      2.862
REMARK  Name = 
REMARK  13 active torsions:
REMARK  status: ('A' for Active; 'I' for Inactive)
REMARK    1  A    between atoms: C_1  and  C_2
REMARK    2  A    between atoms: C_6  and  C_7
REMARK    3  A    between atoms: C_7  and  C_8
REMARK    4  A    between atoms: C_7  and  C_9
REMARK    5  A    between atoms: C_7  and  C_10
REMARK    6  A    between atoms: C_11  and  N_12
REMARK    7  A    between atoms: C_13  and  C_15
REMARK    8  A    between atoms: C_19  and  O_21
REMARK    9  A    between atoms: O_21  and  C_22
REMARK   10  A    between atoms: C_22  and  C_23
REMARK   11  A    between atoms: C_22  and  C_24
REMARK   12  A    between atoms: C_22  and  C_25
REMARK   13  A    between atoms: C_27  and  C_28
REMARK                            x       y       z     vdW  Elec       q    Type
REMARK                         _______ _______ _______ _____ _____    ______ ____
ROOT
ATOM      1  N   UNL     1       0.072  12.623  20.792  0.00  0.00    +0.000 N 
ATOM      2  C   UNL     1      -0.304  11.428  20.174  0.00  0.00    +0.000 C 
ATOM      3  O   UNL     1      -1.021  11.365  19.177  0.00  0.00    +0.000 OA
ATOM      4  H   UNL     1       0.864  12.544  21.416  0.00  0.00    +0.000 HD
ENDROOT
BRANCH   2   5
ATOM      5  C   UNL     1       0.339  10.239  20.739  0.00  0.00    +0.000 A 
ATOM      6  S   UNL     1       1.548   9.407  19.857  0.00  0.00    +0.000 S 
ATOM      7  C   UNL     1       1.492   8.105  20.954  0.00  0.00    +0.000 A 
ATOM      8  N   UNL     1       2.127   6.914  20.676  0.00  0.00    +0.000 N 
ATOM      9  C   UNL     1       2.435   6.515  19.400  0.00  0.00    +0.000 C 
ATOM     10  O   UNL     1       2.206   7.149  18.378  0.00  0.00    +0.000 OA
ATOM     11  N   UNL     1       0.851   8.362  22.069  0.00  0.00    +0.000 NA
ATOM     12  C   UNL     1       0.167   9.584  21.955  0.00  0.00    +0.000 A 
ATOM     13  C   UNL     1      -0.684  10.004  23.103  0.00  0.00    +0.000 C 
ATOM     14  H   UNL     1       2.158   6.230  21.415  0.00  0.00    +0.000 HD
BRANCH   9  15
ATOM     15  O   UNL     1       2.996   5.270  19.383  0.00  0.00    +0.000 OA
BRANCH  15  16
ATOM     16  C   UNL     1       2.119   4.147  19.058  0.00  0.00    +0.000 C 
ATOM     17  C   UNL     1       2.859   2.801  19.164  0.00  0.00    +0.000 C 
ATOM     18  C   UNL     1       0.993   4.140  20.105  0.00  0.00    +0.000 C 
ATOM     19  C   UNL     1       1.463   4.340  17.680  0.00  0.00    +0.000 C 
ENDBRANCH  15  16
ENDBRANCH   9  15
ENDBRANCH   2   5
BRANCH   1  26
ATOM     20  C   UNL     1       1.522  13.801  18.495  0.00  0.00    +0.000 C 
ATOM     21  C   UNL     1       0.428  14.501  19.262  0.00  0.00    +0.000 A 
ATOM     22  C   UNL     1      -0.012  15.726  18.729  0.00  0.00    +0.000 A 
ATOM     23  C   UNL     1      -1.103  16.382  19.267  0.00  0.00    +0.000 A 
ATOM     24  C   UNL     1      -1.770  15.828  20.353  0.00  0.00    +0.000 A 
ATOM     25  C   UNL     1      -1.369  14.612  20.960  0.00  0.00    +0.000 A 
ATOM     26  C   UNL     1      -0.243  13.940  20.383  0.00  0.00    +0.000 A 
BRANCH  25  27
ATOM     27  C   UNL     1      -2.206  14.140  22.192  0.00  0.00    +0.000 C 
ATOM     28  C   UNL     1      -3.136  15.292  22.624  0.00  0.00    +0.000 C 
ATOM     29  C   UNL     1      -3.047  12.862  21.970  0.00  0.00    +0.000 C 
ATOM     30  C   UNL     1      -1.312  13.784  23.419  0.00  0.00    +0.000 C 
ENDBRANCH  25  27
ENDBRANCH   1  26
TORSDOF 5
ENDMDL
MODEL 8
REMARK VINA RESULT:      -6.4      1.286      2.979
REMARK  Name = 
REMARK  13 active torsions:
REMARK  status: ('A' for Active; 'I' for Inactive)
REMARK    1  A    between atoms: C_1  and  C_2
REMARK    2  A    between atoms: C_6  and  C_7
REMARK    3  A    between atoms: C_7  and  C_8
REMARK    4  A    between atoms: C_7  and  C_9
REMARK    5  A    between atoms: C_7  and  C_10
REMARK    6  A    between atoms: C_11  and  N_12
REMARK    7  A    between atoms: C_13  and  C_15
REMARK    8  A    between atoms: C_19  and  O_21
REMARK    9  A    between atoms: O_21  and  C_22
REMARK   10  A    between atoms: C_22  and  C_23
REMARK   11  A    between atoms: C_22  and  C_24
REMARK   12  A    between atoms: C_22  and  C_25
REMARK   13  A    between atoms: C_27  and  C_28
REMARK                            x       y       z     vdW  Elec       q    Type
REMARK                         _______ _______ _______ _____ _____    ______ ____
ROOT
ATOM      1  N   UNL     1       0.733  12.088  20.386  0.00  0.00    +0.000 N 
ATOM      2  C   UNL     1       0.307  10.952  19.693  0.00  0.00    +0.000 C 
ATOM      3  O   UNL     1      -0.317  10.986  18.633  0.00  0.00    +0.000 OA
ATOM      4  H   UNL     1       1.453  11.915  21.075  0.00  0.00    +0.000 HD
ENDROOT
BRANCH   2   5
ATOM      5  C   UNL     1       0.780   9.691  20.269  0.00  0.00    +0.000 A 
ATOM      6  S   UNL     1       1.857   8.689  19.393  0.00  0.00    +0.000 S 
ATOM      7  C   UNL     1       1.626   7.420  20.505  0.00  0.00    +0.000 A 
ATOM      8  N   UNL     1       2.088   6.149  20.239  0.00  0.00    +0.000 N 
ATOM      9  C   UNL     1       2.331   5.698  18.967  0.00  0.00    +0.000 C 
ATOM     10  O   UNL     1       2.188   6.346  17.938  0.00  0.00    +0.000 OA
ATOM     11  N   UNL     1       1.032   7.776  21.619  0.00  0.00    +0.000 NA
ATOM     12  C   UNL     1       0.525   9.080  21.493  0.00  0.00    +0.000 A 
ATOM     13  C   UNL     1      -0.254   9.627  22.639  0.00  0.00    +0.000 C 
ATOM     14  H   UNL     1       2.026   5.476  20.985  0.00  0.00    +0.000 HD
BRANCH   9  15
ATOM     15  O   UNL     1       2.714   4.386  18.962  0.00  0.00    +0.000 OA
BRANCH  15  16
ATOM     16  C   UNL     1       4.143   4.109  18.833  0.00  0.00    +0.000 C 
ATOM     17  C   UNL     1       4.554   2.863  19.638  0.00  0.00    +0.000 C 
ATOM     18  C   UNL     1       4.410   3.808  17.348  0.00  0.00    +0.000 C 
ATOM     19  C   UNL     1       4.981   5.343  19.209  0.00  0.00    +0.000 C 
ENDBRANCH  15  16
ENDBRANCH   9  15
ENDBRANCH   2   5
BRANCH   1  26
ATOM     20  C   UNL     1       2.646  13.252  18.449  0.00  0.00    +0.000 C 
ATOM     21  C   UNL     1       1.479  13.997  19.046  0.00  0.00    +0.000 A 
ATOM     22  C   UNL     1       1.221  15.271  18.510  0.00  0.00    +0.000 A 
ATOM     23  C   UNL     1       0.095  15.982  18.880  0.00  0.00    +0.000 A 
ATOM     24  C   UNL     1      -0.791  15.433  19.800  0.00  0.00    +0.000 A 
ATOM     25  C   UNL     1      -0.584  14.167  20.402  0.00  0.00    +0.000 A 
ATOM     26  C   UNL     1       0.582  13.439  19.999  0.00  0.00    +0.000 A 
BRANCH  25  27
ATOM     27  C   UNL     1      -1.658  13.707  21.438  0.00  0.00    +0.000 C 
ATOM     28  C   UNL     1      -2.541  14.918  21.803  0.00  0.00    +0.000 C 
ATOM     29  C   UNL     1      -2.561  12.538  20.981  0.00  0.00    +0.000 C 
ATOM     30  C   UNL     1      -1.023  13.184  22.763  0.00  0.00    +0.000 C 
ENDBRANCH  25  27
ENDBRANCH   1  26
TORSDOF 5
ENDMDL
MODEL 9
REMARK VINA RESULT:      -6.4      1.136      2.790
REMARK  Name = 
REMARK  13 active torsions:
REMARK  status: ('A' for Active; 'I' for Inactive)
REMARK    1  A    between atoms: C_1  and  C_2
REMARK    2  A    between atoms: C_6  and  C_7
REMARK    3  A    between atoms: C_7  and  C_8
REMARK    4  A    between atoms: C_7  and  C_9
REMARK    5  A    between atoms: C_7  and  C_10
REMARK    6  A    between atoms: C_11  and  N_12
REMARK    7  A    between atoms: C_13  and  C_15
REMARK    8  A    between atoms: C_19  and  O_21
REMARK    9  A    between atoms: O_21  and  C_22
REMARK   10  A    between atoms: C_22  and  C_23
REMARK   11  A    between atoms: C_22  and  C_24
REMARK   12  A    between atoms: C_22  and  C_25
REMARK   13  A    between atoms: C_27  and  C_28
REMARK                            x       y       z     vdW  Elec       q    Type
REMARK                         _______ _______ _______ _____ _____    ______ ____
ROOT
ATOM      1  N   UNL     1       0.778  11.907  20.357  0.00  0.00    +0.000 N 
ATOM      2  C   UNL     1       0.336  10.770  19.676  0.00  0.00    +0.000 C 
ATOM      3  O   UNL     1      -0.324  10.802  18.638  0.00  0.00    +0.000 OA
ATOM      4  H   UNL     1       1.523  11.738  21.020  0.00  0.00    +0.000 HD
ENDROOT
BRANCH   2   5
ATOM      5  C   UNL     1       0.838   9.511  20.232  0.00  0.00    +0.000 A 
ATOM      6  S   UNL     1       2.102   8.662  19.450  0.00  0.00    +0.000 S 
ATOM      7  C   UNL     1       1.839   7.302  20.440  0.00  0.00    +0.000 A 
ATOM      8  N   UNL     1       2.440   6.093  20.161  0.00  0.00    +0.000 N 
ATOM      9  C   UNL     1       2.885   5.755  18.909  0.00  0.00    +0.000 C 
ATOM     10  O   UNL     1       2.822   6.464  17.912  0.00  0.00    +0.000 OA
ATOM     11  N   UNL     1       1.076   7.528  21.483  0.00  0.00    +0.000 NA
ATOM     12  C   UNL     1       0.479   8.794  21.370  0.00  0.00    +0.000 A 
ATOM     13  C   UNL     1      -0.487   9.195  22.430  0.00  0.00    +0.000 C 
ATOM     14  H   UNL     1       2.340   5.364  20.849  0.00  0.00    +0.000 HD
BRANCH   9  15
ATOM     15  O   UNL     1       3.377   4.481  18.875  0.00  0.00    +0.000 OA
BRANCH  15  16
ATOM     16  C   UNL     1       2.410   3.396  18.725  0.00  0.00    +0.000 C 
ATOM     17  C   UNL     1       1.176   3.842  17.919  0.00  0.00    +0.000 C 
ATOM     18  C   UNL     1       3.105   2.281  17.926  0.00  0.00    +0.000 C 
ATOM     19  C   UNL     1       2.025   2.808  20.094  0.00  0.00    +0.000 C 
ENDBRANCH  15  16
ENDBRANCH   9  15
ENDBRANCH   2   5
BRANCH   1  26
ATOM     20  C   UNL     1       2.648  13.104  18.398  0.00  0.00    +0.000 C 
ATOM     21  C   UNL     1       1.481  13.832  19.015  0.00  0.00    +0.000 A 
ATOM     22  C   UNL     1       1.199  15.105  18.490  0.00  0.00    +0.000 A 
ATOM     23  C   UNL     1       0.070  15.800  18.879  0.00  0.00    +0.000 A 
ATOM     24  C   UNL     1      -0.795  15.235  19.809  0.00  0.00    +0.000 A 
ATOM     25  C   UNL     1      -0.565  13.969  20.402  0.00  0.00    +0.000 A 
ATOM     26  C   UNL     1       0.604  13.258  19.978  0.00  0.00    +0.000 A 
BRANCH  25  27
ATOM     27  C   UNL     1      -1.618  13.491  21.451  0.00  0.00    +0.000 C 
ATOM     28  C   UNL     1      -2.405  14.719  21.953  0.00  0.00    +0.000 C 
ATOM     29  C   UNL     1      -2.611  12.418  20.950  0.00  0.00    +0.000 C 
ATOM     30  C   UNL     1      -0.957  12.826  22.698  0.00  0.00    +0.000 C 
ENDBRANCH  25  27
ENDBRANCH   1  26
TORSDOF 5
ENDMDL
