MODEL 1
REMARK VINA RESULT:      -8.3      0.000      0.000
REMARK  Name = 
REMARK  3 active torsions:
REMARK  status: ('A' for Active; 'I' for Inactive)
REMARK    1  A    between atoms: C_1  and  C_2
REMARK    2  A    between atoms: C_6  and  C_8
REMARK    3  A    between atoms: C_18  and  C_19
REMARK                            x       y       z     vdW  Elec       q    Type
REMARK                         _______ _______ _______ _____ _____    ______ ____
ROOT
ATOM      1  C   UNL     1       2.357   6.641  18.567  0.00  0.00    +0.000 A 
ATOM      2  C   UNL     1       2.160   7.632  17.600  0.00  0.00    +0.000 A 
ATOM      3  C   UNL     1       1.707   8.898  17.979  0.00  0.00    +0.000 A 
ATOM      4  C   UNL     1       1.425   9.187  19.321  0.00  0.00    +0.000 A 
ATOM      5  C   UNL     1       1.652   8.208  20.283  0.00  0.00    +0.000 A 
ATOM      6  C   UNL     1       2.171   6.967  19.914  0.00  0.00    +0.000 A 
ATOM      7  N   UNL     1       1.373   8.405  21.635  0.00  0.00    +0.000 N 
ATOM      8  C   UNL     1       0.868   9.521  22.228  0.00  0.00    +0.000 C 
ATOM      9  O   UNL     1       0.695   9.491  23.448  0.00  0.00    +0.000 OA
ATOM     10  C   UNL     1       0.519  10.722  21.405  0.00  0.00    +0.000 C 
ATOM     11  C   UNL     1      -0.059  11.741  22.072  0.00  0.00    +0.000 C 
ATOM     12  S   UNL     1       0.818  10.796  19.706  0.00  0.00    +0.000 S 
ATOM     13  H   UNL     1       1.529   7.647  22.288  0.00  0.00    +0.000 HD
ENDROOT
BRANCH   1  19
ATOM     14  C   UNL     1       7.030   5.083  14.593  0.00  0.00    +0.000 C 
ATOM     15  C   UNL     1       6.415   4.886  15.975  0.00  0.00    +0.000 C 
ATOM     16  C   UNL     1       5.250   3.881  15.919  0.00  0.00    +0.000 C 
ATOM     17  C   UNL     1       4.529   3.759  17.263  0.00  0.00    +0.000 C 
ATOM     18  N   UNL     1       4.148   5.083  17.761  0.00  0.00    +0.000 N 
ATOM     19  C   UNL     1       2.815   5.296  18.126  0.00  0.00    +0.000 C 
ATOM     20  O   UNL     1       1.973   4.402  18.113  0.00  0.00    +0.000 OA
ATOM     21  C   UNL     1       5.282   5.995  17.921  0.00  0.00    +0.000 C 
ATOM     22  C   UNL     1       5.941   6.225  16.560  0.00  0.00    +0.000 C 
ENDBRANCH   1  19
BRANCH  11  23
ATOM     23  C   UNL     1      -0.551  12.981  21.467  0.00  0.00    +0.000 A 
ATOM     24  C   UNL     1       0.340  14.036  21.239  0.00  0.00    +0.000 A 
ATOM     25  C   UNL     1      -0.115  15.227  20.673  0.00  0.00    +0.000 A 
ATOM     26  C   UNL     1      -1.458  15.363  20.327  0.00  0.00    +0.000 A 
ATOM     27  C   UNL     1      -2.351  14.318  20.560  0.00  0.00    +0.000 A 
ATOM     28  C   UNL     1      -1.901  13.129  21.136  0.00  0.00    +0.000 A 
ENDBRANCH  11  23
TORSDOF 2
ENDMDL
MODEL 2
REMARK VINA RESULT:      -8.2      2.460      3.595
REMARK  Name = 
REMARK  3 active torsions:
REMARK  status: ('A' for Active; 'I' for Inactive)
REMARK    1  A    between atoms: C_1  and  C_2
REMARK    2  A    between atoms: C_6  and  C_8
REMARK    3  A    between atoms: C_18  and  C_19
REMARK                            x       y       z     vdW  Elec       q    Type
REMARK                         _______ _______ _______ _____ _____    ______ ____
ROOT
ATOM      1  C   UNL     1       2.386   7.843  18.646  0.00  0.00    +0.000 A 
ATOM      2  C   UNL     1       2.142   7.609  20.004  0.00  0.00    +0.000 A 
ATOM      3  C   UNL     1       1.260   8.433  20.706  0.00  0.00    +0.000 A 
ATOM      4  C   UNL     1       0.625   9.510  20.074  0.00  0.00    +0.000 A 
ATOM      5  C   UNL     1       0.846   9.720  18.716  0.00  0.00    +0.000 A 
ATOM      6  C   UNL     1       1.673   8.856  17.997  0.00  0.00    +0.000 A 
ATOM      7  N   UNL     1       0.276  10.783  18.018  0.00  0.00    +0.000 N 
ATOM      8  C   UNL     1      -0.556  11.746  18.499  0.00  0.00    +0.000 C 
ATOM      9  O   UNL     1      -0.955  12.604  17.709  0.00  0.00    +0.000 OA
ATOM     10  C   UNL     1      -0.942  11.758  19.947  0.00  0.00    +0.000 C 
ATOM     11  C   UNL     1      -1.695  12.803  20.343  0.00  0.00    +0.000 C 
ATOM     12  S   UNL     1      -0.441  10.523  21.045  0.00  0.00    +0.000 S 
ATOM     13  H   UNL     1       0.496  10.906  17.037  0.00  0.00    +0.000 HD
ENDROOT
BRANCH   1  19
ATOM     14  C   UNL     1       3.138   1.570  19.006  0.00  0.00    +0.000 C 
ATOM     15  C   UNL     1       2.919   2.776  18.098  0.00  0.00    +0.000 C 
ATOM     16  C   UNL     1       4.248   3.501  17.820  0.00  0.00    +0.000 C 
ATOM     17  C   UNL     1       4.044   4.789  17.019  0.00  0.00    +0.000 C 
ATOM     18  N   UNL     1       3.029   5.632  17.655  0.00  0.00    +0.000 N 
ATOM     19  C   UNL     1       3.352   6.963  17.933  0.00  0.00    +0.000 C 
ATOM     20  O   UNL     1       4.421   7.469  17.604  0.00  0.00    +0.000 OA
ATOM     21  C   UNL     1       1.733   4.968  17.809  0.00  0.00    +0.000 C 
ATOM     22  C   UNL     1       1.896   3.744  18.711  0.00  0.00    +0.000 C 
ENDBRANCH   1  19
BRANCH  11  23
ATOM     23  C   UNL     1      -2.128  13.063  21.719  0.00  0.00    +0.000 A 
ATOM     24  C   UNL     1      -3.363  12.570  22.156  0.00  0.00    +0.000 A 
ATOM     25  C   UNL     1      -3.793  12.818  23.460  0.00  0.00    +0.000 A 
ATOM     26  C   UNL     1      -2.988  13.552  24.330  0.00  0.00    +0.000 A 
ATOM     27  C   UNL     1      -1.762  14.053  23.895  0.00  0.00    +0.000 A 
ATOM     28  C   UNL     1      -1.332  13.815  22.588  0.00  0.00    +0.000 A 
ENDBRANCH  11  23
TORSDOF 2
ENDMDL
MODEL 3
REMARK VINA RESULT:      -8.2      1.993      2.814
REMARK  Name = 
REMARK  3 active torsions:
REMARK  status: ('A' for Active; 'I' for Inactive)
REMARK    1  A    between atoms: C_1  and  C_2
REMARK    2  A    between atoms: C_6  and  C_8
REMARK    3  A    between atoms: C_18  and  C_19
REMARK                            x       y       z     vdW  Elec       q    Type
REMARK                         _______ _______ _______ _____ _____    ______ ____
ROOT
ATOM      1  C   UNL     1       2.221   7.852  18.641  0.00  0.00    +0.000 A 
ATOM      2  C   UNL     1       1.651   8.832  17.821  0.00  0.00    +0.000 A 
ATOM      3  C   UNL     1       0.882   9.853  18.384  0.00  0.00    +0.000 A 
ATOM      4  C   UNL     1       0.653   9.901  19.765  0.00  0.00    +0.000 A 
ATOM      5  C   UNL     1       1.247   8.943  20.580  0.00  0.00    +0.000 A 
ATOM      6  C   UNL     1       2.072   7.963  20.027  0.00  0.00    +0.000 A 
ATOM      7  N   UNL     1       1.049   8.904  21.959  0.00  0.00    +0.000 N 
ATOM      8  C   UNL     1       0.294   9.744  22.718  0.00  0.00    +0.000 C 
ATOM      9  O   UNL     1       0.252   9.536  23.932  0.00  0.00    +0.000 OA
ATOM     10  C   UNL     1      -0.469  10.862  22.076  0.00  0.00    +0.000 C 
ATOM     11  C   UNL     1      -1.258  11.581  22.900  0.00  0.00    +0.000 C 
ATOM     12  S   UNL     1      -0.364  11.200  20.386  0.00  0.00    +0.000 S 
ATOM     13  H   UNL     1       1.481   8.165  22.501  0.00  0.00    +0.000 HD
ENDROOT
BRANCH   1  19
ATOM     14  C   UNL     1       3.740   2.141  20.906  0.00  0.00    +0.000 C 
ATOM     15  C   UNL     1       3.120   2.932  19.758  0.00  0.00    +0.000 C 
ATOM     16  C   UNL     1       4.210   3.492  18.826  0.00  0.00    +0.000 C 
ATOM     17  C   UNL     1       3.628   4.399  17.739  0.00  0.00    +0.000 C 
ATOM     18  N   UNL     1       2.770   5.426  18.334  0.00  0.00    +0.000 N 
ATOM     19  C   UNL     1       3.013   6.763  18.007  0.00  0.00    +0.000 C 
ATOM     20  O   UNL     1       3.866   7.103  17.192  0.00  0.00    +0.000 OA
ATOM     21  C   UNL     1       1.666   4.877  19.124  0.00  0.00    +0.000 C 
ATOM     22  C   UNL     1       2.234   4.068  20.291  0.00  0.00    +0.000 C 
ENDBRANCH   1  19
BRANCH  11  23
ATOM     23  C   UNL     1      -2.148  12.669  22.486  0.00  0.00    +0.000 A 
ATOM     24  C   UNL     1      -1.661  13.981  22.455  0.00  0.00    +0.000 A 
ATOM     25  C   UNL     1      -2.499  15.029  22.073  0.00  0.00    +0.000 A 
ATOM     26  C   UNL     1      -3.821  14.767  21.715  0.00  0.00    +0.000 A 
ATOM     27  C   UNL     1      -4.312  13.462  21.754  0.00  0.00    +0.000 A 
ATOM     28  C   UNL     1      -3.479  12.412  22.145  0.00  0.00    +0.000 A 
ENDBRANCH  11  23
TORSDOF 2
ENDMDL
MODEL 4
REMARK VINA RESULT:      -8.0      1.846      2.888
REMARK  Name = 
REMARK  3 active torsions:
REMARK  status: ('A' for Active; 'I' for Inactive)
REMARK    1  A    between atoms: C_1  and  C_2
REMARK    2  A    between atoms: C_6  and  C_8
REMARK    3  A    between atoms: C_18  and  C_19
REMARK                            x       y       z     vdW  Elec       q    Type
REMARK                         _______ _______ _______ _____ _____    ______ ____
ROOT
ATOM      1  C   UNL     1       2.493   7.745  18.523  0.00  0.00    +0.000 A 
ATOM      2  C   UNL     1       2.010   8.749  17.677  0.00  0.00    +0.000 A 
ATOM      3  C   UNL     1       1.221   9.779  18.195  0.00  0.00    +0.000 A 
ATOM      4  C   UNL     1       0.887   9.813  19.555  0.00  0.00    +0.000 A 
ATOM      5  C   UNL     1       1.395   8.830  20.398  0.00  0.00    +0.000 A 
ATOM      6  C   UNL     1       2.240   7.840  19.895  0.00  0.00    +0.000 A 
ATOM      7  N   UNL     1       1.089   8.775  21.757  0.00  0.00    +0.000 N 
ATOM      8  C   UNL     1       0.296   9.622  22.468  0.00  0.00    +0.000 C 
ATOM      9  O   UNL     1       0.155   9.397  23.672  0.00  0.00    +0.000 OA
ATOM     10  C   UNL     1      -0.391  10.765  21.787  0.00  0.00    +0.000 C 
ATOM     11  C   UNL     1      -1.225  11.490  22.559  0.00  0.00    +0.000 C 
ATOM     12  S   UNL     1      -0.147  11.125  20.117  0.00  0.00    +0.000 S 
ATOM     13  H   UNL     1       1.463   8.019  22.318  0.00  0.00    +0.000 HD
ENDROOT
BRANCH   1  19
ATOM     14  C   UNL     1       2.122   1.501  19.482  0.00  0.00    +0.000 C 
ATOM     15  C   UNL     1       2.143   2.633  18.460  0.00  0.00    +0.000 C 
ATOM     16  C   UNL     1       3.585   3.088  18.175  0.00  0.00    +0.000 C 
ATOM     17  C   UNL     1       3.632   4.309  17.252  0.00  0.00    +0.000 C 
ATOM     18  N   UNL     1       2.764   5.371  17.764  0.00  0.00    +0.000 N 
ATOM     19  C   UNL     1       3.308   6.648  17.935  0.00  0.00    +0.000 C 
ATOM     20  O   UNL     1       4.458   6.928  17.608  0.00  0.00    +0.000 OA
ATOM     21  C   UNL     1       1.368   4.959  17.922  0.00  0.00    +0.000 C 
ATOM     22  C   UNL     1       1.290   3.817  18.938  0.00  0.00    +0.000 C 
ENDBRANCH   1  19
BRANCH  11  23
ATOM     23  C   UNL     1      -2.056  12.604  22.095  0.00  0.00    +0.000 A 
ATOM     24  C   UNL     1      -3.338  12.344  21.597  0.00  0.00    +0.000 A 
ATOM     25  C   UNL     1      -4.138  13.393  21.142  0.00  0.00    +0.000 A 
ATOM     26  C   UNL     1      -3.661  14.702  21.190  0.00  0.00    +0.000 A 
ATOM     27  C   UNL     1      -2.381  14.964  21.677  0.00  0.00    +0.000 A 
ATOM     28  C   UNL     1      -1.575  13.916  22.124  0.00  0.00    +0.000 A 
ENDBRANCH  11  23
TORSDOF 2
ENDMDL
MODEL 5
REMARK VINA RESULT:      -7.9      3.124      9.882
REMARK  Name = 
REMARK  3 active torsions:
REMARK  status: ('A' for Active; 'I' for Inactive)
REMARK    1  A    between atoms: C_1  and  C_2
REMARK    2  A    between atoms: C_6  and  C_8
REMARK    3  A    between atoms: C_18  and  C_19
REMARK                            x       y       z     vdW  Elec       q    Type
REMARK                         _______ _______ _______ _____ _____    ______ ____
ROOT
ATOM      1  C   UNL     1      -0.743  11.781  22.379  0.00  0.00    +0.000 A 
ATOM      2  C   UNL     1      -0.719  10.578  23.091  0.00  0.00    +0.000 A 
ATOM      3  C   UNL     1      -0.077   9.461  22.553  0.00  0.00    +0.000 A 
ATOM      4  C   UNL     1       0.532   9.521  21.293  0.00  0.00    +0.000 A 
ATOM      5  C   UNL     1       0.533  10.728  20.601  0.00  0.00    +0.000 A 
ATOM      6  C   UNL     1      -0.048  11.863  21.168  0.00  0.00    +0.000 A 
ATOM      7  N   UNL     1       1.092  10.866  19.332  0.00  0.00    +0.000 N 
ATOM      8  C   UNL     1       1.709   9.911  18.584  0.00  0.00    +0.000 C 
ATOM      9  O   UNL     1       2.140  10.241  17.477  0.00  0.00    +0.000 OA
ATOM     10  C   UNL     1       1.827   8.508  19.097  0.00  0.00    +0.000 C 
ATOM     11  C   UNL     1       2.372   7.618  18.245  0.00  0.00    +0.000 C 
ATOM     12  S   UNL     1       1.285   8.053  20.671  0.00  0.00    +0.000 S 
ATOM     13  H   UNL     1       1.038  11.761  18.861  0.00  0.00    +0.000 HD
ENDROOT
BRANCH   1  19
ATOM     14  C   UNL     1      -5.543  15.167  20.022  0.00  0.00    +0.000 C 
ATOM     15  C   UNL     1      -5.014  14.358  21.202  0.00  0.00    +0.000 C 
ATOM     16  C   UNL     1      -4.082  15.212  22.079  0.00  0.00    +0.000 C 
ATOM     17  C   UNL     1      -3.432  14.393  23.198  0.00  0.00    +0.000 C 
ATOM     18  N   UNL     1      -2.798  13.192  22.650  0.00  0.00    +0.000 N 
ATOM     19  C   UNL     1      -1.459  12.946  22.968  0.00  0.00    +0.000 C 
ATOM     20  O   UNL     1      -0.819  13.655  23.740  0.00  0.00    +0.000 OA
ATOM     21  C   UNL     1      -3.723  12.327  21.915  0.00  0.00    +0.000 C 
ATOM     22  C   UNL     1      -4.288  13.094  20.718  0.00  0.00    +0.000 C 
ENDBRANCH   1  19
BRANCH  11  23
ATOM     23  C   UNL     1       2.521   6.182  18.499  0.00  0.00    +0.000 A 
ATOM     24  C   UNL     1       1.635   5.282  17.896  0.00  0.00    +0.000 A 
ATOM     25  C   UNL     1       1.757   3.913  18.136  0.00  0.00    +0.000 A 
ATOM     26  C   UNL     1       2.767   3.441  18.972  0.00  0.00    +0.000 A 
ATOM     27  C   UNL     1       3.646   4.336  19.583  0.00  0.00    +0.000 A 
ATOM     28  C   UNL     1       3.520   5.707  19.352  0.00  0.00    +0.000 A 
ENDBRANCH  11  23
TORSDOF 2
ENDMDL
MODEL 6
REMARK VINA RESULT:      -7.8      1.783      9.240
REMARK  Name = 
REMARK  3 active torsions:
REMARK  status: ('A' for Active; 'I' for Inactive)
REMARK    1  A    between atoms: C_1  and  C_2
REMARK    2  A    between atoms: C_6  and  C_8
REMARK    3  A    between atoms: C_18  and  C_19
REMARK                            x       y       z     vdW  Elec       q    Type
REMARK                         _______ _______ _______ _____ _____    ______ ____
ROOT
ATOM      1  C   UNL     1       1.052   9.031  20.736  0.00  0.00    +0.000 A 
ATOM      2  C   UNL     1       1.468   9.585  19.521  0.00  0.00    +0.000 A 
ATOM      3  C   UNL     1       2.203   8.815  18.617  0.00  0.00    +0.000 A 
ATOM      4  C   UNL     1       2.551   7.492  18.918  0.00  0.00    +0.000 A 
ATOM      5  C   UNL     1       2.109   6.934  20.114  0.00  0.00    +0.000 A 
ATOM      6  C   UNL     1       1.316   7.681  20.986  0.00  0.00    +0.000 A 
ATOM      7  N   UNL     1       2.434   5.635  20.502  0.00  0.00    +0.000 N 
ATOM      8  C   UNL     1       3.186   4.726  19.824  0.00  0.00    +0.000 C 
ATOM      9  O   UNL     1       3.354   3.621  20.345  0.00  0.00    +0.000 OA
ATOM     10  C   UNL     1       3.799   5.084  18.506  0.00  0.00    +0.000 C 
ATOM     11  C   UNL     1       4.600   4.148  17.959  0.00  0.00    +0.000 C 
ATOM     12  S   UNL     1       3.516   6.605  17.739  0.00  0.00    +0.000 S 
ATOM     13  H   UNL     1       2.110   5.291  21.398  0.00  0.00    +0.000 HD
ENDROOT
BRANCH   1  19
ATOM     14  C   UNL     1      -1.172  14.906  19.972  0.00  0.00    +0.000 C 
ATOM     15  C   UNL     1      -1.489  13.465  20.358  0.00  0.00    +0.000 C 
ATOM     16  C   UNL     1      -1.085  13.186  21.817  0.00  0.00    +0.000 C 
ATOM     17  C   UNL     1      -1.270  11.714  22.195  0.00  0.00    +0.000 C 
ATOM     18  N   UNL     1      -0.606  10.848  21.218  0.00  0.00    +0.000 N 
ATOM     19  C   UNL     1       0.293   9.886  21.688  0.00  0.00    +0.000 C 
ATOM     20  O   UNL     1       0.494   9.694  22.884  0.00  0.00    +0.000 OA
ATOM     21  C   UNL     1      -1.083  11.041  19.847  0.00  0.00    +0.000 C 
ATOM     22  C   UNL     1      -0.793  12.478  19.409  0.00  0.00    +0.000 C 
ENDBRANCH   1  19
BRANCH  11  23
ATOM     23  C   UNL     1       5.362   4.304  16.717  0.00  0.00    +0.000 A 
ATOM     24  C   UNL     1       6.703   4.703  16.778  0.00  0.00    +0.000 A 
ATOM     25  C   UNL     1       7.438   4.866  15.604  0.00  0.00    +0.000 A 
ATOM     26  C   UNL     1       6.838   4.624  14.369  0.00  0.00    +0.000 A 
ATOM     27  C   UNL     1       5.500   4.236  14.304  0.00  0.00    +0.000 A 
ATOM     28  C   UNL     1       4.759   4.082  15.476  0.00  0.00    +0.000 A 
ENDBRANCH  11  23
TORSDOF 2
ENDMDL
MODEL 7
REMARK VINA RESULT:      -7.8      1.832      9.249
REMARK  Name = 
REMARK  3 active torsions:
REMARK  status: ('A' for Active; 'I' for Inactive)
REMARK    1  A    between atoms: C_1  and  C_2
REMARK    2  A    between atoms: C_6  and  C_8
REMARK    3  A    between atoms: C_18  and  C_19
REMARK                            x       y       z     vdW  Elec       q    Type
REMARK                         _______ _______ _______ _____ _____    ______ ____
ROOT
ATOM      1  C   UNL     1       0.609   9.249  20.888  0.00  0.00    +0.000 A 
ATOM      2  C   UNL     1       1.130   9.761  19.695  0.00  0.00    +0.000 A 
ATOM      3  C   UNL     1       1.927   8.955  18.879  0.00  0.00    +0.000 A 
ATOM      4  C   UNL     1       2.232   7.638  19.248  0.00  0.00    +0.000 A 
ATOM      5  C   UNL     1       1.686   7.124  20.420  0.00  0.00    +0.000 A 
ATOM      6  C   UNL     1       0.834   7.905  21.200  0.00  0.00    +0.000 A 
ATOM      7  N   UNL     1       1.961   5.834  20.872  0.00  0.00    +0.000 N 
ATOM      8  C   UNL     1       2.755   4.896  20.287  0.00  0.00    +0.000 C 
ATOM      9  O   UNL     1       2.865   3.807  20.854  0.00  0.00    +0.000 OA
ATOM     10  C   UNL     1       3.479   5.206  19.013  0.00  0.00    +0.000 C 
ATOM     11  C   UNL     1       4.310   4.245  18.564  0.00  0.00    +0.000 C 
ATOM     12  S   UNL     1       3.278   6.705  18.180  0.00  0.00    +0.000 S 
ATOM     13  H   UNL     1       1.561   5.522  21.749  0.00  0.00    +0.000 HD
ENDROOT
BRANCH   1  19
ATOM     14  C   UNL     1      -1.061  15.286  19.984  0.00  0.00    +0.000 C 
ATOM     15  C   UNL     1      -1.531  13.866  20.281  0.00  0.00    +0.000 C 
ATOM     16  C   UNL     1      -1.359  13.532  21.774  0.00  0.00    +0.000 C 
ATOM     17  C   UNL     1      -1.699  12.072  22.081  0.00  0.00    +0.000 C 
ATOM     18  N   UNL     1      -0.967  11.176  21.183  0.00  0.00    +0.000 N 
ATOM     19  C   UNL     1      -0.214  10.142  21.748  0.00  0.00    +0.000 C 
ATOM     20  O   UNL     1      -0.199   9.915  22.955  0.00  0.00    +0.000 OA
ATOM     21  C   UNL     1      -1.230  11.428  19.765  0.00  0.00    +0.000 C 
ATOM     22  C   UNL     1      -0.779  12.847  19.412  0.00  0.00    +0.000 C 
ENDBRANCH   1  19
BRANCH  11  23
ATOM     23  C   UNL     1       5.173   4.354  17.384  0.00  0.00    +0.000 A 
ATOM     24  C   UNL     1       4.670   3.995  16.128  0.00  0.00    +0.000 A 
ATOM     25  C   UNL     1       5.482   4.084  14.998  0.00  0.00    +0.000 A 
ATOM     26  C   UNL     1       6.795   4.537  15.119  0.00  0.00    +0.000 A 
ATOM     27  C   UNL     1       7.303   4.886  16.370  0.00  0.00    +0.000 A 
ATOM     28  C   UNL     1       6.495   4.789  17.505  0.00  0.00    +0.000 A 
ENDBRANCH  11  23
TORSDOF 2
ENDMDL
MODEL 8
REMARK VINA RESULT:      -7.7      1.975      9.132
REMARK  Name = 
REMARK  3 active torsions:
REMARK  status: ('A' for Active; 'I' for Inactive)
REMARK    1  A    between atoms: C_1  and  C_2
REMARK    2  A    between atoms: C_6  and  C_8
REMARK    3  A    between atoms: C_18  and  C_19
REMARK                            x       y       z     vdW  Elec       q    Type
REMARK                         _______ _______ _______ _____ _____    ______ ____
ROOT
ATOM      1  C   UNL     1       0.564   9.952  20.271  0.00  0.00    +0.000 A 
ATOM      2  C   UNL     1       1.153  10.267  19.042  0.00  0.00    +0.000 A 
ATOM      3  C   UNL     1       1.949   9.323  18.388  0.00  0.00    +0.000 A 
ATOM      4  C   UNL     1       2.184   8.064  18.956  0.00  0.00    +0.000 A 
ATOM      5  C   UNL     1       1.571   7.745  20.164  0.00  0.00    +0.000 A 
ATOM      6  C   UNL     1       0.720   8.661  20.784  0.00  0.00    +0.000 A 
ATOM      7  N   UNL     1       1.774   6.526  20.809  0.00  0.00    +0.000 N 
ATOM      8  C   UNL     1       2.551   5.486  20.402  0.00  0.00    +0.000 C 
ATOM      9  O   UNL     1       2.594   4.488  21.124  0.00  0.00    +0.000 OA
ATOM     10  C   UNL     1       3.338   5.582  19.132  0.00  0.00    +0.000 C 
ATOM     11  C   UNL     1       4.146   4.538  18.863  0.00  0.00    +0.000 C 
ATOM     12  S   UNL     1       3.233   6.950  18.083  0.00  0.00    +0.000 S 
ATOM     13  H   UNL     1       1.326   6.359  21.702  0.00  0.00    +0.000 HD
ENDROOT
BRANCH   1  19
ATOM     14  C   UNL     1       0.054  16.139  19.038  0.00  0.00    +0.000 C 
ATOM     15  C   UNL     1      -0.679  14.817  19.248  0.00  0.00    +0.000 C 
ATOM     16  C   UNL     1      -0.843  14.513  20.748  0.00  0.00    +0.000 C 
ATOM     17  C   UNL     1      -1.458  13.133  20.991  0.00  0.00    +0.000 C 
ATOM     18  N   UNL     1      -0.720  12.105  20.253  0.00  0.00    +0.000 N 
ATOM     19  C   UNL     1      -0.256  10.989  20.955  0.00  0.00    +0.000 C 
ATOM     20  O   UNL     1      -0.503  10.803  22.144  0.00  0.00    +0.000 OA
ATOM     21  C   UNL     1      -0.671  12.346  18.810  0.00  0.00    +0.000 C 
ATOM     22  C   UNL     1       0.054  13.667  18.542  0.00  0.00    +0.000 C 
ENDBRANCH   1  19
BRANCH  11  23
ATOM     23  C   UNL     1       5.060   4.444  17.721  0.00  0.00    +0.000 A 
ATOM     24  C   UNL     1       6.420   4.721  17.904  0.00  0.00    +0.000 A 
ATOM     25  C   UNL     1       7.300   4.646  16.825  0.00  0.00    +0.000 A 
ATOM     26  C   UNL     1       6.826   4.287  15.564  0.00  0.00    +0.000 A 
ATOM     27  C   UNL     1       5.470   4.020  15.376  0.00  0.00    +0.000 A 
ATOM     28  C   UNL     1       4.585   4.104  16.452  0.00  0.00    +0.000 A 
ENDBRANCH  11  23
TORSDOF 2
ENDMDL
MODEL 9
REMARK VINA RESULT:      -7.6      1.807      9.337
REMARK  Name = 
REMARK  3 active torsions:
REMARK  status: ('A' for Active; 'I' for Inactive)
REMARK    1  A    between atoms: C_1  and  C_2
REMARK    2  A    between atoms: C_6  and  C_8
REMARK    3  A    between atoms: C_18  and  C_19
REMARK                            x       y       z     vdW  Elec       q    Type
REMARK                         _______ _______ _______ _____ _____    ______ ____
ROOT
ATOM      1  C   UNL     1       1.356   8.579  20.459  0.00  0.00    +0.000 A 
ATOM      2  C   UNL     1       1.603   9.148  19.206  0.00  0.00    +0.000 A 
ATOM      3  C   UNL     1       2.330   8.438  18.248  0.00  0.00    +0.000 A 
ATOM      4  C   UNL     1       2.837   7.163  18.531  0.00  0.00    +0.000 A 
ATOM      5  C   UNL     1       2.562   6.588  19.768  0.00  0.00    +0.000 A 
ATOM      6  C   UNL     1       1.777   7.268  20.700  0.00  0.00    +0.000 A 
ATOM      7  N   UNL     1       3.050   5.336  20.140  0.00  0.00    +0.000 N 
ATOM      8  C   UNL     1       3.828   4.494  19.407  0.00  0.00    +0.000 C 
ATOM      9  O   UNL     1       4.153   3.422  19.923  0.00  0.00    +0.000 OA
ATOM     10  C   UNL     1       4.282   4.885  18.035  0.00  0.00    +0.000 C 
ATOM     11  C   UNL     1       5.123   4.023  17.429  0.00  0.00    +0.000 C 
ATOM     12  S   UNL     1       3.778   6.354  17.280  0.00  0.00    +0.000 S 
ATOM     13  H   UNL     1       2.844   4.979  21.065  0.00  0.00    +0.000 HD
ENDROOT
BRANCH   1  19
ATOM     14  C   UNL     1      -1.075  14.404  19.992  0.00  0.00    +0.000 C 
ATOM     15  C   UNL     1      -1.334  12.939  20.331  0.00  0.00    +0.000 C 
ATOM     16  C   UNL     1      -0.875  12.619  21.765  0.00  0.00    +0.000 C 
ATOM     17  C   UNL     1      -1.002  11.129  22.091  0.00  0.00    +0.000 C 
ATOM     18  N   UNL     1      -0.343  10.322  21.062  0.00  0.00    +0.000 N 
ATOM     19  C   UNL     1       0.601   9.373  21.467  0.00  0.00    +0.000 C 
ATOM     20  O   UNL     1       0.845   9.143  22.648  0.00  0.00    +0.000 OA
ATOM     21  C   UNL     1      -0.868  10.552  19.715  0.00  0.00    +0.000 C 
ATOM     22  C   UNL     1      -0.637  12.013  19.324  0.00  0.00    +0.000 C 
ENDBRANCH   1  19
BRANCH  11  23
ATOM     23  C   UNL     1       5.752   4.230  16.121  0.00  0.00    +0.000 A 
ATOM     24  C   UNL     1       5.155   3.687  14.978  0.00  0.00    +0.000 A 
ATOM     25  C   UNL     1       5.747   3.867  13.727  0.00  0.00    +0.000 A 
ATOM     26  C   UNL     1       6.931   4.594  13.617  0.00  0.00    +0.000 A 
ATOM     27  C   UNL     1       7.534   5.128  14.755  0.00  0.00    +0.000 A 
ATOM     28  C   UNL     1       6.950   4.942  16.009  0.00  0.00    +0.000 A 
ENDBRANCH  11  23
TORSDOF 2
ENDMDL
