MODEL 1
REMARK VINA RESULT:      -7.9      0.000      0.000
REMARK  Name = 
REMARK  5 active torsions:
REMARK  status: ('A' for Active; 'I' for Inactive)
REMARK    1  A    between atoms: C_1  and  O_2
REMARK    2  A    between atoms: O_2  and  C_3
REMARK    3  A    between atoms: C_5  and  C_6
REMARK    4  A    between atoms: C_20  and  O_21
REMARK    5  A    between atoms: C_24  and  O_25
REMARK                            x       y       z     vdW  Elec       q    Type
REMARK                         _______ _______ _______ _____ _____    ______ ____
ROOT
ATOM      1  C   UNL     1       3.641   5.989  18.613  0.00  0.00    +0.000 A 
ATOM      2  O   UNL     1       3.091   7.259  18.515  0.00  0.00    +0.000 OA
ATOM      3  C   UNL     1       2.127   7.644  19.426  0.00  0.00    +0.000 A 
ATOM      4  C   UNL     1       1.701   6.790  20.446  0.00  0.00    +0.000 A 
ATOM      5  C   UNL     1       0.723   7.191  21.355  0.00  0.00    +0.000 A 
ATOM      6  C   UNL     1       0.161   8.461  21.245  0.00  0.00    +0.000 A 
ATOM      7  C   UNL     1       0.570   9.341  20.232  0.00  0.00    +0.000 A 
ATOM      8  C   UNL     1      -0.006  10.617  20.133  0.00  0.00    +0.000 A 
ATOM      9  C   UNL     1       0.388  11.503  19.131  0.00  0.00    +0.000 A 
ATOM     10  C   UNL     1       1.365  11.124  18.218  0.00  0.00    +0.000 A 
ATOM     11  C   UNL     1       1.949   9.858  18.303  0.00  0.00    +0.000 A 
ATOM     12  C   UNL     1       1.567   8.940  19.304  0.00  0.00    +0.000 A 
ATOM     13  C   UNL     1       2.297   5.453  20.559  0.00  0.00    +0.000 A 
ATOM     14  O   UNL     1       1.988   4.650  21.432  0.00  0.00    +0.000 OA
ATOM     15  C   UNL     1       3.318   5.086  19.553  0.00  0.00    +0.000 A 
ENDROOT
BRANCH   1  18
ATOM     16  C   UNL     1       6.792   6.204  16.515  0.00  0.00    +0.000 A 
ATOM     17  C   UNL     1       5.813   6.473  17.487  0.00  0.00    +0.000 A 
ATOM     18  C   UNL     1       4.647   5.702  17.581  0.00  0.00    +0.000 A 
ATOM     19  C   UNL     1       4.449   4.656  16.676  0.00  0.00    +0.000 A 
ATOM     20  C   UNL     1       5.411   4.380  15.702  0.00  0.00    +0.000 A 
ATOM     21  C   UNL     1       6.580   5.146  15.625  0.00  0.00    +0.000 A 
BRANCH  16  23
ATOM     22  C   UNL     1       7.855   8.063  17.588  0.00  0.00    +0.000 C 
ATOM     23  O   UNL     1       7.862   7.055  16.587  0.00  0.00    +0.000 OA
ENDBRANCH  16  23
BRANCH  21  24
ATOM     24  O   UNL     1       7.496   4.827  14.660  0.00  0.00    +0.000 OA
ATOM     25  H   UNL     1       7.030   4.501  13.872  0.00  0.00    +0.000 HD
ENDBRANCH  21  24
ENDBRANCH   1  18
BRANCH  15  26
ATOM     26  O   UNL     1       3.883   3.829  19.649  0.00  0.00    +0.000 OA
ATOM     27  H   UNL     1       4.690   3.956  20.192  0.00  0.00    +0.000 HD
ENDBRANCH  15  26
TORSDOF 4
ENDMDL
MODEL 2
REMARK VINA RESULT:      -7.6      1.523      2.671
REMARK  Name = 
REMARK  5 active torsions:
REMARK  status: ('A' for Active; 'I' for Inactive)
REMARK    1  A    between atoms: C_1  and  O_2
REMARK    2  A    between atoms: O_2  and  C_3
REMARK    3  A    between atoms: C_5  and  C_6
REMARK    4  A    between atoms: C_20  and  O_21
REMARK    5  A    between atoms: C_24  and  O_25
REMARK                            x       y       z     vdW  Elec       q    Type
REMARK                         _______ _______ _______ _____ _____    ______ ____
ROOT
ATOM      1  C   UNL     1       4.402   5.104  17.509  0.00  0.00    +0.000 A 
ATOM      2  O   UNL     1       3.786   6.341  17.629  0.00  0.00    +0.000 OA
ATOM      3  C   UNL     1       2.943   6.570  18.699  0.00  0.00    +0.000 A 
ATOM      4  C   UNL     1       2.705   5.591  19.665  0.00  0.00    +0.000 A 
ATOM      5  C   UNL     1       1.848   5.835  20.737  0.00  0.00    +0.000 A 
ATOM      6  C   UNL     1       1.218   7.073  20.846  0.00  0.00    +0.000 A 
ATOM      7  C   UNL     1       1.439   8.077  19.892  0.00  0.00    +0.000 A 
ATOM      8  C   UNL     1       0.797   9.319  20.014  0.00  0.00    +0.000 A 
ATOM      9  C   UNL     1       1.005  10.326  19.073  0.00  0.00    +0.000 A 
ATOM     10  C   UNL     1       1.861  10.105  18.000  0.00  0.00    +0.000 A 
ATOM     11  C   UNL     1       2.508   8.874  17.864  0.00  0.00    +0.000 A 
ATOM     12  C   UNL     1       2.314   7.835  18.799  0.00  0.00    +0.000 A 
ATOM     13  C   UNL     1       3.371   4.289  19.547  0.00  0.00    +0.000 A 
ATOM     14  O   UNL     1       3.226   3.381  20.359  0.00  0.00    +0.000 OA
ATOM     15  C   UNL     1       4.256   4.090  18.378  0.00  0.00    +0.000 A 
ENDROOT
BRANCH   1  18
ATOM     16  C   UNL     1       5.569   4.369  13.978  0.00  0.00    +0.000 A 
ATOM     17  C   UNL     1       4.762   4.475  15.123  0.00  0.00    +0.000 A 
ATOM     18  C   UNL     1       5.265   4.988  16.326  0.00  0.00    +0.000 A 
ATOM     19  C   UNL     1       6.603   5.384  16.388  0.00  0.00    +0.000 A 
ATOM     20  C   UNL     1       7.419   5.280  15.260  0.00  0.00    +0.000 A 
ATOM     21  C   UNL     1       6.904   4.781  14.058  0.00  0.00    +0.000 A 
BRANCH  16  23
ATOM     22  C   UNL     1       5.558   2.885  12.098  0.00  0.00    +0.000 C 
ATOM     23  O   UNL     1       4.899   3.856  12.899  0.00  0.00    +0.000 OA
ENDBRANCH  16  23
BRANCH  21  24
ATOM     24  O   UNL     1       7.741   4.710  12.978  0.00  0.00    +0.000 OA
ATOM     25  H   UNL     1       8.425   5.395  13.059  0.00  0.00    +0.000 HD
ENDBRANCH  21  24
ENDBRANCH   1  18
BRANCH  15  26
ATOM     26  O   UNL     1       4.886   2.867  18.256  0.00  0.00    +0.000 OA
ATOM     27  H   UNL     1       5.152   2.813  17.313  0.00  0.00    +0.000 HD
ENDBRANCH  15  26
TORSDOF 4
ENDMDL
MODEL 3
REMARK VINA RESULT:      -7.6      2.760      7.759
REMARK  Name = 
REMARK  5 active torsions:
REMARK  status: ('A' for Active; 'I' for Inactive)
REMARK    1  A    between atoms: C_1  and  O_2
REMARK    2  A    between atoms: O_2  and  C_3
REMARK    3  A    between atoms: C_5  and  C_6
REMARK    4  A    between atoms: C_20  and  O_21
REMARK    5  A    between atoms: C_24  and  O_25
REMARK                            x       y       z     vdW  Elec       q    Type
REMARK                         _______ _______ _______ _____ _____    ______ ____
ROOT
ATOM      1  C   UNL     1       1.475   8.410  19.931  0.00  0.00    +0.000 A 
ATOM      2  O   UNL     1       1.683   7.115  20.382  0.00  0.00    +0.000 OA
ATOM      3  C   UNL     1       2.397   6.236  19.591  0.00  0.00    +0.000 A 
ATOM      4  C   UNL     1       2.921   6.623  18.356  0.00  0.00    +0.000 A 
ATOM      5  C   UNL     1       3.635   5.722  17.567  0.00  0.00    +0.000 A 
ATOM      6  C   UNL     1       3.828   4.418  18.015  0.00  0.00    +0.000 A 
ATOM      7  C   UNL     1       3.316   4.001  19.253  0.00  0.00    +0.000 A 
ATOM      8  C   UNL     1       3.518   2.683  19.691  0.00  0.00    +0.000 A 
ATOM      9  C   UNL     1       3.013   2.253  20.917  0.00  0.00    +0.000 A 
ATOM     10  C   UNL     1       2.304   3.136  21.722  0.00  0.00    +0.000 A 
ATOM     11  C   UNL     1       2.094   4.452  21.300  0.00  0.00    +0.000 A 
ATOM     12  C   UNL     1       2.590   4.914  20.062  0.00  0.00    +0.000 A 
ATOM     13  C   UNL     1       2.716   7.999  17.888  0.00  0.00    +0.000 A 
ATOM     14  O   UNL     1       3.153   8.420  16.823  0.00  0.00    +0.000 OA
ATOM     15  C   UNL     1       1.936   8.898  18.767  0.00  0.00    +0.000 A 
ENDROOT
BRANCH   1  18
ATOM     16  C   UNL     1      -0.871  11.077  21.256  0.00  0.00    +0.000 A 
ATOM     17  C   UNL     1      -0.109  10.282  20.383  0.00  0.00    +0.000 A 
ATOM     18  C   UNL     1       0.697   9.240  20.860  0.00  0.00    +0.000 A 
ATOM     19  C   UNL     1       0.755   9.001  22.235  0.00  0.00    +0.000 A 
ATOM     20  C   UNL     1       0.007   9.786  23.116  0.00  0.00    +0.000 A 
ATOM     21  C   UNL     1      -0.807  10.815  22.629  0.00  0.00    +0.000 A 
BRANCH  16  23
ATOM     22  C   UNL     1      -1.617  12.020  19.184  0.00  0.00    +0.000 C 
ATOM     23  O   UNL     1      -1.602  12.035  20.605  0.00  0.00    +0.000 OA
ENDBRANCH  16  23
BRANCH  21  24
ATOM     24  O   UNL     1      -1.529  11.547  23.532  0.00  0.00    +0.000 OA
ATOM     25  H   UNL     1      -1.479  12.488  23.294  0.00  0.00    +0.000 HD
ENDBRANCH  21  24
ENDBRANCH   1  18
BRANCH  15  26
ATOM     26  O   UNL     1       1.735  10.194  18.334  0.00  0.00    +0.000 OA
ATOM     27  H   UNL     1       1.041  10.554  18.928  0.00  0.00    +0.000 HD
ENDBRANCH  15  26
TORSDOF 4
ENDMDL
MODEL 4
REMARK VINA RESULT:      -7.5      2.550      7.413
REMARK  Name = 
REMARK  5 active torsions:
REMARK  status: ('A' for Active; 'I' for Inactive)
REMARK    1  A    between atoms: C_1  and  O_2
REMARK    2  A    between atoms: O_2  and  C_3
REMARK    3  A    between atoms: C_5  and  C_6
REMARK    4  A    between atoms: C_20  and  O_21
REMARK    5  A    between atoms: C_24  and  O_25
REMARK                            x       y       z     vdW  Elec       q    Type
REMARK                         _______ _______ _______ _____ _____    ______ ____
ROOT
ATOM      1  C   UNL     1       1.796   8.326  18.961  0.00  0.00    +0.000 A 
ATOM      2  O   UNL     1       1.849   7.131  19.663  0.00  0.00    +0.000 OA
ATOM      3  C   UNL     1       2.682   6.126  19.214  0.00  0.00    +0.000 A 
ATOM      4  C   UNL     1       3.475   6.286  18.076  0.00  0.00    +0.000 A 
ATOM      5  C   UNL     1       4.307   5.260  17.631  0.00  0.00    +0.000 A 
ATOM      6  C   UNL     1       4.346   4.055  18.329  0.00  0.00    +0.000 A 
ATOM      7  C   UNL     1       3.562   3.865  19.477  0.00  0.00    +0.000 A 
ATOM      8  C   UNL     1       3.612   2.645  20.170  0.00  0.00    +0.000 A 
ATOM      9  C   UNL     1       2.837   2.440  21.311  0.00  0.00    +0.000 A 
ATOM     10  C   UNL     1       2.006   3.453  21.774  0.00  0.00    +0.000 A 
ATOM     11  C   UNL     1       1.945   4.673  21.096  0.00  0.00    +0.000 A 
ATOM     12  C   UNL     1       2.715   4.908  19.937  0.00  0.00    +0.000 A 
ATOM     13  C   UNL     1       3.431   7.558  17.344  0.00  0.00    +0.000 A 
ATOM     14  O   UNL     1       4.105   7.783  16.345  0.00  0.00    +0.000 OA
ATOM     15  C   UNL     1       2.517   8.599  17.861  0.00  0.00    +0.000 A 
ENDROOT
BRANCH   1  18
ATOM     16  C   UNL     1      -0.003  10.512  21.483  0.00  0.00    +0.000 A 
ATOM     17  C   UNL     1       0.868   9.566  20.915  0.00  0.00    +0.000 A 
ATOM     18  C   UNL     1       0.868   9.308  19.538  0.00  0.00    +0.000 A 
ATOM     19  C   UNL     1      -0.030   9.995  18.718  0.00  0.00    +0.000 A 
ATOM     20  C   UNL     1      -0.905  10.935  19.268  0.00  0.00    +0.000 A 
ATOM     21  C   UNL     1      -0.888  11.197  20.643  0.00  0.00    +0.000 A 
BRANCH  16  23
ATOM     22  C   UNL     1      -0.010   9.470  23.640  0.00  0.00    +0.000 C 
ATOM     23  O   UNL     1       0.150  10.632  22.838  0.00  0.00    +0.000 OA
ENDBRANCH  16  23
BRANCH  21  24
ATOM     24  O   UNL     1      -1.757  12.135  21.131  0.00  0.00    +0.000 OA
ATOM     25  H   UNL     1      -1.752  12.910  20.545  0.00  0.00    +0.000 HD
ENDBRANCH  21  24
ENDBRANCH   1  18
BRANCH  15  26
ATOM     26  O   UNL     1       2.465   9.798  17.177  0.00  0.00    +0.000 OA
ATOM     27  H   UNL     1       2.778  10.470  17.821  0.00  0.00    +0.000 HD
ENDBRANCH  15  26
TORSDOF 4
ENDMDL
MODEL 5
REMARK VINA RESULT:      -7.3      2.252      4.456
REMARK  Name = 
REMARK  5 active torsions:
REMARK  status: ('A' for Active; 'I' for Inactive)
REMARK    1  A    between atoms: C_1  and  O_2
REMARK    2  A    between atoms: O_2  and  C_3
REMARK    3  A    between atoms: C_5  and  C_6
REMARK    4  A    between atoms: C_20  and  O_21
REMARK    5  A    between atoms: C_24  and  O_25
REMARK                            x       y       z     vdW  Elec       q    Type
REMARK                         _______ _______ _______ _____ _____    ______ ____
ROOT
ATOM      1  C   UNL     1       2.162   7.386  19.488  0.00  0.00    +0.000 A 
ATOM      2  O   UNL     1       1.382   8.009  20.450  0.00  0.00    +0.000 OA
ATOM      3  C   UNL     1       0.966   9.309  20.237  0.00  0.00    +0.000 A 
ATOM      4  C   UNL     1       1.305  10.005  19.075  0.00  0.00    +0.000 A 
ATOM      5  C   UNL     1       0.884  11.319  18.876  0.00  0.00    +0.000 A 
ATOM      6  C   UNL     1       0.114  11.948  19.852  0.00  0.00    +0.000 A 
ATOM      7  C   UNL     1      -0.245  11.274  21.029  0.00  0.00    +0.000 A 
ATOM      8  C   UNL     1      -1.020  11.922  22.003  0.00  0.00    +0.000 A 
ATOM      9  C   UNL     1      -1.383  11.267  23.179  0.00  0.00    +0.000 A 
ATOM     10  C   UNL     1      -0.977   9.955  23.393  0.00  0.00    +0.000 A 
ATOM     11  C   UNL     1      -0.204   9.296  22.433  0.00  0.00    +0.000 A 
ATOM     12  C   UNL     1       0.180   9.935  21.235  0.00  0.00    +0.000 A 
ATOM     13  C   UNL     1       2.116   9.337  18.049  0.00  0.00    +0.000 A 
ATOM     14  O   UNL     1       2.446   9.873  16.997  0.00  0.00    +0.000 OA
ATOM     15  C   UNL     1       2.543   7.949  18.329  0.00  0.00    +0.000 A 
ENDROOT
BRANCH   1  18
ATOM     16  C   UNL     1       4.165   4.179  19.777  0.00  0.00    +0.000 A 
ATOM     17  C   UNL     1       3.779   5.488  19.439  0.00  0.00    +0.000 A 
ATOM     18  C   UNL     1       2.542   6.010  19.838  0.00  0.00    +0.000 A 
ATOM     19  C   UNL     1       1.669   5.204  20.573  0.00  0.00    +0.000 A 
ATOM     20  C   UNL     1       2.036   3.900  20.912  0.00  0.00    +0.000 A 
ATOM     21  C   UNL     1       3.281   3.391  20.522  0.00  0.00    +0.000 A 
BRANCH  16  23
ATOM     22  C   UNL     1       6.045   4.747  18.406  0.00  0.00    +0.000 C 
ATOM     23  O   UNL     1       5.409   3.852  19.308  0.00  0.00    +0.000 OA
ENDBRANCH  16  23
BRANCH  21  24
ATOM     24  O   UNL     1       3.597   2.112  20.890  0.00  0.00    +0.000 OA
ATOM     25  H   UNL     1       3.850   2.102  21.828  0.00  0.00    +0.000 HD
ENDBRANCH  21  24
ENDBRANCH   1  18
BRANCH  15  26
ATOM     26  O   UNL     1       3.309   7.312  17.372  0.00  0.00    +0.000 OA
ATOM     27  H   UNL     1       2.673   7.050  16.673  0.00  0.00    +0.000 HD
ENDBRANCH  15  26
TORSDOF 4
ENDMDL
MODEL 6
REMARK VINA RESULT:      -7.3      3.058      5.271
REMARK  Name = 
REMARK  5 active torsions:
REMARK  status: ('A' for Active; 'I' for Inactive)
REMARK    1  A    between atoms: C_1  and  O_2
REMARK    2  A    between atoms: O_2  and  C_3
REMARK    3  A    between atoms: C_5  and  C_6
REMARK    4  A    between atoms: C_20  and  O_21
REMARK    5  A    between atoms: C_24  and  O_25
REMARK                            x       y       z     vdW  Elec       q    Type
REMARK                         _______ _______ _______ _____ _____    ______ ____
ROOT
ATOM      1  C   UNL     1       0.836   9.267  19.676  0.00  0.00    +0.000 A 
ATOM      2  O   UNL     1      -0.165   9.492  18.743  0.00  0.00    +0.000 OA
ATOM      3  C   UNL     1      -1.140  10.430  19.018  0.00  0.00    +0.000 A 
ATOM      4  C   UNL     1      -1.136  11.162  20.207  0.00  0.00    +0.000 A 
ATOM      5  C   UNL     1      -2.130  12.102  20.474  0.00  0.00    +0.000 A 
ATOM      6  C   UNL     1      -3.143  12.314  19.542  0.00  0.00    +0.000 A 
ATOM      7  C   UNL     1      -3.173  11.596  18.338  0.00  0.00    +0.000 A 
ATOM      8  C   UNL     1      -4.201  11.820  17.408  0.00  0.00    +0.000 A 
ATOM      9  C   UNL     1      -4.245  11.112  16.208  0.00  0.00    +0.000 A 
ATOM     10  C   UNL     1      -3.260  10.175  15.921  0.00  0.00    +0.000 A 
ATOM     11  C   UNL     1      -2.230   9.940  16.835  0.00  0.00    +0.000 A 
ATOM     12  C   UNL     1      -2.162  10.639  18.059  0.00  0.00    +0.000 A 
ATOM     13  C   UNL     1      -0.066  10.936  21.186  0.00  0.00    +0.000 A 
ATOM     14  O   UNL     1       0.017  11.545  22.247  0.00  0.00    +0.000 OA
ATOM     15  C   UNL     1       0.949   9.913  20.848  0.00  0.00    +0.000 A 
ENDROOT
BRANCH   1  18
ATOM     16  C   UNL     1       2.886   6.077  19.640  0.00  0.00    +0.000 A 
ATOM     17  C   UNL     1       1.974   7.075  20.025  0.00  0.00    +0.000 A 
ATOM     18  C   UNL     1       1.805   8.241  19.266  0.00  0.00    +0.000 A 
ATOM     19  C   UNL     1       2.573   8.419  18.113  0.00  0.00    +0.000 A 
ATOM     20  C   UNL     1       3.486   7.438  17.720  0.00  0.00    +0.000 A 
ATOM     21  C   UNL     1       3.639   6.269  18.476  0.00  0.00    +0.000 A 
BRANCH  16  23
ATOM     22  C   UNL     1       1.677   4.349  20.775  0.00  0.00    +0.000 C 
ATOM     23  O   UNL     1       2.904   5.011  20.498  0.00  0.00    +0.000 OA
ENDBRANCH  16  23
BRANCH  21  24
ATOM     24  O   UNL     1       4.539   5.335  18.042  0.00  0.00    +0.000 OA
ATOM     25  H   UNL     1       5.368   5.435  18.538  0.00  0.00    +0.000 HD
ENDBRANCH  21  24
ENDBRANCH   1  18
BRANCH  15  26
ATOM     26  O   UNL     1       1.959   9.691  21.764  0.00  0.00    +0.000 OA
ATOM     27  H   UNL     1       1.497   9.537  22.617  0.00  0.00    +0.000 HD
ENDBRANCH  15  26
TORSDOF 4
ENDMDL
MODEL 7
REMARK VINA RESULT:      -7.1      0.784      1.846
REMARK  Name = 
REMARK  5 active torsions:
REMARK  status: ('A' for Active; 'I' for Inactive)
REMARK    1  A    between atoms: C_1  and  O_2
REMARK    2  A    between atoms: O_2  and  C_3
REMARK    3  A    between atoms: C_5  and  C_6
REMARK    4  A    between atoms: C_20  and  O_21
REMARK    5  A    between atoms: C_24  and  O_25
REMARK                            x       y       z     vdW  Elec       q    Type
REMARK                         _______ _______ _______ _____ _____    ______ ____
ROOT
ATOM      1  C   UNL     1       3.889   6.055  18.541  0.00  0.00    +0.000 A 
ATOM      2  O   UNL     1       3.273   7.296  18.457  0.00  0.00    +0.000 OA
ATOM      3  C   UNL     1       2.273   7.610  19.357  0.00  0.00    +0.000 A 
ATOM      4  C   UNL     1       1.876   6.715  20.351  0.00  0.00    +0.000 A 
ATOM      5  C   UNL     1       0.861   7.044  21.249  0.00  0.00    +0.000 A 
ATOM      6  C   UNL     1       0.233   8.284  21.152  0.00  0.00    +0.000 A 
ATOM      7  C   UNL     1       0.613   9.205  20.164  0.00  0.00    +0.000 A 
ATOM      8  C   UNL     1      -0.029  10.451  20.079  0.00  0.00    +0.000 A 
ATOM      9  C   UNL     1       0.335  11.376  19.102  0.00  0.00    +0.000 A 
ATOM     10  C   UNL     1       1.348  11.069  18.201  0.00  0.00    +0.000 A 
ATOM     11  C   UNL     1       1.997   9.834  18.273  0.00  0.00    +0.000 A 
ATOM     12  C   UNL     1       1.647   8.876  19.249  0.00  0.00    +0.000 A 
ATOM     13  C   UNL     1       2.540   5.410  20.451  0.00  0.00    +0.000 A 
ATOM     14  O   UNL     1       2.259   4.573  21.301  0.00  0.00    +0.000 OA
ATOM     15  C   UNL     1       3.597   5.118  19.458  0.00  0.00    +0.000 A 
ENDROOT
BRANCH   1  18
ATOM     16  C   UNL     1       5.602   5.004  15.327  0.00  0.00    +0.000 A 
ATOM     17  C   UNL     1       4.624   5.203  16.316  0.00  0.00    +0.000 A 
ATOM     18  C   UNL     1       4.928   5.843  17.524  0.00  0.00    +0.000 A 
ATOM     19  C   UNL     1       6.236   6.276  17.754  0.00  0.00    +0.000 A 
ATOM     20  C   UNL     1       7.220   6.081  16.782  0.00  0.00    +0.000 A 
ATOM     21  C   UNL     1       6.904   5.453  15.571  0.00  0.00    +0.000 A 
BRANCH  16  23
ATOM     22  C   UNL     1       6.027   3.656  13.392  0.00  0.00    +0.000 C 
ATOM     23  O   UNL     1       5.114   4.371  14.214  0.00  0.00    +0.000 OA
ENDBRANCH  16  23
BRANCH  21  24
ATOM     24  O   UNL     1       7.901   5.297  14.647  0.00  0.00    +0.000 OA
ATOM     25  H   UNL     1       8.640   4.815  15.054  0.00  0.00    +0.000 HD
ENDBRANCH  21  24
ENDBRANCH   1  18
BRANCH  15  26
ATOM     26  O   UNL     1       4.227   3.891  19.540  0.00  0.00    +0.000 OA
ATOM     27  H   UNL     1       4.688   3.901  20.407  0.00  0.00    +0.000 HD
ENDBRANCH  15  26
TORSDOF 4
ENDMDL
MODEL 8
REMARK VINA RESULT:      -7.1      6.149     10.876
REMARK  Name = 
REMARK  5 active torsions:
REMARK  status: ('A' for Active; 'I' for Inactive)
REMARK    1  A    between atoms: C_1  and  O_2
REMARK    2  A    between atoms: O_2  and  C_3
REMARK    3  A    between atoms: C_5  and  C_6
REMARK    4  A    between atoms: C_20  and  O_21
REMARK    5  A    between atoms: C_24  and  O_25
REMARK                            x       y       z     vdW  Elec       q    Type
REMARK                         _______ _______ _______ _____ _____    ______ ____
ROOT
ATOM      1  C   UNL     1      -2.279  12.566  21.521  0.00  0.00    +0.000 A 
ATOM      2  O   UNL     1      -2.791  12.215  20.280  0.00  0.00    +0.000 OA
ATOM      3  C   UNL     1      -2.035  11.418  19.444  0.00  0.00    +0.000 A 
ATOM      4  C   UNL     1      -0.774  10.951  19.820  0.00  0.00    +0.000 A 
ATOM      5  C   UNL     1      -0.020  10.152  18.962  0.00  0.00    +0.000 A 
ATOM      6  C   UNL     1      -0.530   9.814  17.710  0.00  0.00    +0.000 A 
ATOM      7  C   UNL     1      -1.795  10.267  17.306  0.00  0.00    +0.000 A 
ATOM      8  C   UNL     1      -2.296   9.919  16.041  0.00  0.00    +0.000 A 
ATOM      9  C   UNL     1      -3.550  10.362  15.623  0.00  0.00    +0.000 A 
ATOM     10  C   UNL     1      -4.319  11.155  16.466  0.00  0.00    +0.000 A 
ATOM     11  C   UNL     1      -3.836  11.510  17.728  0.00  0.00    +0.000 A 
ATOM     12  C   UNL     1      -2.569  11.079  18.176  0.00  0.00    +0.000 A 
ATOM     13  C   UNL     1      -0.241  11.308  21.140  0.00  0.00    +0.000 A 
ATOM     14  O   UNL     1       0.850  10.930  21.551  0.00  0.00    +0.000 OA
ATOM     15  C   UNL     1      -1.085  12.172  21.994  0.00  0.00    +0.000 A 
ENDROOT
BRANCH   1  18
ATOM     16  C   UNL     1      -5.094  13.664  23.810  0.00  0.00    +0.000 A 
ATOM     17  C   UNL     1      -4.234  12.863  23.041  0.00  0.00    +0.000 A 
ATOM     18  C   UNL     1      -3.177  13.421  22.309  0.00  0.00    +0.000 A 
ATOM     19  C   UNL     1      -2.990  14.805  22.333  0.00  0.00    +0.000 A 
ATOM     20  C   UNL     1      -3.840  15.615  23.090  0.00  0.00    +0.000 A 
ATOM     21  C   UNL     1      -4.884  15.047  23.830  0.00  0.00    +0.000 A 
BRANCH  16  23
ATOM     22  C   UNL     1      -7.325  12.792  23.838  0.00  0.00    +0.000 C 
ATOM     23  O   UNL     1      -6.057  12.940  24.462  0.00  0.00    +0.000 OA
ENDBRANCH  16  23
BRANCH  21  24
ATOM     24  O   UNL     1      -5.681  15.883  24.564  0.00  0.00    +0.000 OA
ATOM     25  H   UNL     1      -6.363  15.358  25.016  0.00  0.00    +0.000 HD
ENDBRANCH  21  24
ENDBRANCH   1  18
BRANCH  15  26
ATOM     26  O   UNL     1      -0.591  12.517  23.237  0.00  0.00    +0.000 OA
ATOM     27  H   UNL     1      -0.463  13.489  23.198  0.00  0.00    +0.000 HD
ENDBRANCH  15  26
TORSDOF 4
ENDMDL
MODEL 9
REMARK VINA RESULT:      -7.0      2.039      6.717
REMARK  Name = 
REMARK  5 active torsions:
REMARK  status: ('A' for Active; 'I' for Inactive)
REMARK    1  A    between atoms: C_1  and  O_2
REMARK    2  A    between atoms: O_2  and  C_3
REMARK    3  A    between atoms: C_5  and  C_6
REMARK    4  A    between atoms: C_20  and  O_21
REMARK    5  A    between atoms: C_24  and  O_25
REMARK                            x       y       z     vdW  Elec       q    Type
REMARK                         _______ _______ _______ _____ _____    ______ ____
ROOT
ATOM      1  C   UNL     1       2.248   7.058  19.360  0.00  0.00    +0.000 A 
ATOM      2  O   UNL     1       3.094   6.823  18.286  0.00  0.00    +0.000 OA
ATOM      3  C   UNL     1       3.592   5.550  18.091  0.00  0.00    +0.000 A 
ATOM      4  C   UNL     1       3.258   4.495  18.942  0.00  0.00    +0.000 A 
ATOM      5  C   UNL     1       3.774   3.216  18.735  0.00  0.00    +0.000 A 
ATOM      6  C   UNL     1       4.636   2.987  17.665  0.00  0.00    +0.000 A 
ATOM      7  C   UNL     1       4.988   4.027  16.792  0.00  0.00    +0.000 A 
ATOM      8  C   UNL     1       5.858   3.781  15.718  0.00  0.00    +0.000 A 
ATOM      9  C   UNL     1       6.219   4.804  14.843  0.00  0.00    +0.000 A 
ATOM     10  C   UNL     1       5.712   6.085  15.029  0.00  0.00    +0.000 A 
ATOM     11  C   UNL     1       4.845   6.346  16.092  0.00  0.00    +0.000 A 
ATOM     12  C   UNL     1       4.464   5.331  16.996  0.00  0.00    +0.000 A 
ATOM     13  C   UNL     1       2.349   4.741  20.068  0.00  0.00    +0.000 A 
ATOM     14  O   UNL     1       1.996   3.867  20.852  0.00  0.00    +0.000 OA
ATOM     15  C   UNL     1       1.851   6.123  20.239  0.00  0.00    +0.000 A 
ENDROOT
BRANCH   1  18
ATOM     16  C   UNL     1       0.937  10.311  20.800  0.00  0.00    +0.000 A 
ATOM     17  C   UNL     1       1.361   8.976  20.684  0.00  0.00    +0.000 A 
ATOM     18  C   UNL     1       1.795   8.452  19.460  0.00  0.00    +0.000 A 
ATOM     19  C   UNL     1       1.788   9.272  18.329  0.00  0.00    +0.000 A 
ATOM     20  C   UNL     1       1.365  10.600  18.428  0.00  0.00    +0.000 A 
ATOM     21  C   UNL     1       0.947  11.119  19.659  0.00  0.00    +0.000 A 
BRANCH  16  23
ATOM     22  C   UNL     1      -0.104   9.660  22.857  0.00  0.00    +0.000 C 
ATOM     23  O   UNL     1       0.561  10.642  22.075  0.00  0.00    +0.000 OA
ENDBRANCH  16  23
BRANCH  21  24
ATOM     24  O   UNL     1       0.553  12.429  19.704  0.00  0.00    +0.000 OA
ATOM     25  H   UNL     1      -0.352  12.503  19.361  0.00  0.00    +0.000 HD
ENDBRANCH  21  24
ENDBRANCH   1  18
BRANCH  15  26
ATOM     26  O   UNL     1       0.996   6.366  21.297  0.00  0.00    +0.000 OA
ATOM     27  H   UNL     1       1.557   6.789  21.982  0.00  0.00    +0.000 HD
ENDBRANCH  15  26
TORSDOF 4
ENDMDL
