MODEL 1
REMARK VINA RESULT:      -8.1      0.000      0.000
REMARK  Name = 
REMARK  6 active torsions:
REMARK  status: ('A' for Active; 'I' for Inactive)
REMARK    1  A    between atoms: C_1  and  O_2
REMARK    2  A    between atoms: O_2  and  C_3
REMARK    3  A    between atoms: C_6  and  C_7
REMARK    4  A    between atoms: C_9  and  C_10
REMARK    5  A    between atoms: C_13  and  O_14
REMARK    6  A    between atoms: C_18  and  C_19
REMARK                            x       y       z     vdW  Elec       q    Type
REMARK                         _______ _______ _______ _____ _____    ______ ____
ROOT
ATOM      1  C   UNL     1       3.039   6.666  18.153  0.00  0.00    +0.000 A 
ATOM      2  N   UNL     1       2.843   8.018  17.980  0.00  0.00    +0.000 N 
ATOM      3  C   UNL     1       1.943   8.486  18.901  0.00  0.00    +0.000 A 
ATOM      4  N   UNL     1       1.532   7.488  19.659  0.00  0.00    +0.000 NA
ATOM      5  C   UNL     1       2.196   6.356  19.217  0.00  0.00    +0.000 A 
ATOM      6  H   UNL     1       3.288   8.582  17.273  0.00  0.00    +0.000 HD
ENDROOT
BRANCH   1  10
ATOM      7  C   UNL     1       5.695   4.514  15.573  0.00  0.00    +0.000 A 
ATOM      8  C   UNL     1       4.902   3.828  16.493  0.00  0.00    +0.000 A 
ATOM      9  C   UNL     1       4.058   4.525  17.364  0.00  0.00    +0.000 A 
ATOM     10  C   UNL     1       3.969   5.919  17.307  0.00  0.00    +0.000 A 
ATOM     11  C   UNL     1       4.797   6.601  16.403  0.00  0.00    +0.000 A 
ATOM     12  C   UNL     1       5.660   5.905  15.548  0.00  0.00    +0.000 A 
BRANCH   7  14
ATOM     13  C   UNL     1       6.198   3.766  13.385  0.00  0.00    +0.000 C 
ATOM     14  O   UNL     1       6.484   3.728  14.779  0.00  0.00    +0.000 OA
ENDBRANCH   7  14
ENDBRANCH   1  10
BRANCH   3  15
ATOM     15  C   UNL     1       1.512   9.884  18.958  0.00  0.00    +0.000 A 
ATOM     16  C   UNL     1       2.216  10.866  18.245  0.00  0.00    +0.000 A 
ATOM     17  C   UNL     1       1.839  12.210  18.313  0.00  0.00    +0.000 A 
ATOM     18  C   UNL     1       0.744  12.574  19.087  0.00  0.00    +0.000 A 
ATOM     19  C   UNL     1       0.024  11.619  19.793  0.00  0.00    +0.000 A 
ATOM     20  C   UNL     1       0.405  10.276  19.727  0.00  0.00    +0.000 A 
BRANCH  18  21
ATOM     21  O   UNL     1       0.333  13.869  19.185  0.00  0.00    +0.000 OA
ATOM     22  H   UNL     1       0.603  14.214  20.052  0.00  0.00    +0.000 HD
ENDBRANCH  18  21
ENDBRANCH   3  15
BRANCH   5  23
ATOM     23  C   UNL     1       1.989   5.058  19.850  0.00  0.00    +0.000 A 
ATOM     24  C   UNL     1       2.505   4.748  21.115  0.00  0.00    +0.000 A 
ATOM     25  C   UNL     1       2.227   3.521  21.725  0.00  0.00    +0.000 A 
ATOM     26  C   UNL     1       1.470   2.565  21.052  0.00  0.00    +0.000 A 
ATOM     27  C   UNL     1       0.995   2.835  19.769  0.00  0.00    +0.000 A 
ATOM     28  C   UNL     1       1.250   4.074  19.174  0.00  0.00    +0.000 A 
ENDBRANCH   5  23
TORSDOF 5
ENDMDL
MODEL 2
REMARK VINA RESULT:      -8.1      1.845      2.468
REMARK  Name = 
REMARK  6 active torsions:
REMARK  status: ('A' for Active; 'I' for Inactive)
REMARK    1  A    between atoms: C_1  and  O_2
REMARK    2  A    between atoms: O_2  and  C_3
REMARK    3  A    between atoms: C_6  and  C_7
REMARK    4  A    between atoms: C_9  and  C_10
REMARK    5  A    between atoms: C_13  and  O_14
REMARK    6  A    between atoms: C_18  and  C_19
REMARK                            x       y       z     vdW  Elec       q    Type
REMARK                         _______ _______ _______ _____ _____    ______ ____
ROOT
ATOM      1  C   UNL     1       2.506   6.899  19.516  0.00  0.00    +0.000 A 
ATOM      2  N   UNL     1       2.108   8.170  19.868  0.00  0.00    +0.000 N 
ATOM      3  C   UNL     1       1.142   8.111  20.837  0.00  0.00    +0.000 A 
ATOM      4  N   UNL     1       0.881   6.849  21.120  0.00  0.00    +0.000 NA
ATOM      5  C   UNL     1       1.712   6.084  20.319  0.00  0.00    +0.000 A 
ATOM      6  H   UNL     1       2.468   9.021  19.466  0.00  0.00    +0.000 HD
ENDROOT
BRANCH   1  10
ATOM      7  C   UNL     1       5.457   6.214  16.489  0.00  0.00    +0.000 A 
ATOM      8  C   UNL     1       5.453   5.444  17.651  0.00  0.00    +0.000 A 
ATOM      9  C   UNL     1       4.515   5.684  18.662  0.00  0.00    +0.000 A 
ATOM     10  C   UNL     1       3.545   6.679  18.511  0.00  0.00    +0.000 A 
ATOM     11  C   UNL     1       3.580   7.471  17.353  0.00  0.00    +0.000 A 
ATOM     12  C   UNL     1       4.533   7.247  16.354  0.00  0.00    +0.000 A 
BRANCH   7  14
ATOM     13  C   UNL     1       6.935   4.567  15.653  0.00  0.00    +0.000 C 
ATOM     14  O   UNL     1       6.423   5.892  15.576  0.00  0.00    +0.000 OA
ENDBRANCH   7  14
ENDBRANCH   1  10
BRANCH   3  15
ATOM     15  C   UNL     1       0.504   9.301  21.402  0.00  0.00    +0.000 A 
ATOM     16  C   UNL     1       0.684  10.551  20.792  0.00  0.00    +0.000 A 
ATOM     17  C   UNL     1       0.109  11.703  21.336  0.00  0.00    +0.000 A 
ATOM     18  C   UNL     1      -0.662  11.604  22.488  0.00  0.00    +0.000 A 
ATOM     19  C   UNL     1      -0.865  10.376  23.103  0.00  0.00    +0.000 A 
ATOM     20  C   UNL     1      -0.286   9.226  22.561  0.00  0.00    +0.000 A 
BRANCH  18  21
ATOM     21  O   UNL     1      -1.246  12.696  23.056  0.00  0.00    +0.000 OA
ATOM     22  H   UNL     1      -0.555  13.231  23.478  0.00  0.00    +0.000 HD
ENDBRANCH  18  21
ENDBRANCH   3  15
BRANCH   5  23
ATOM     23  C   UNL     1       1.700   4.627  20.385  0.00  0.00    +0.000 A 
ATOM     24  C   UNL     1       1.191   3.833  19.348  0.00  0.00    +0.000 A 
ATOM     25  C   UNL     1       1.260   2.438  19.410  0.00  0.00    +0.000 A 
ATOM     26  C   UNL     1       1.793   1.816  20.537  0.00  0.00    +0.000 A 
ATOM     27  C   UNL     1       2.253   2.590  21.601  0.00  0.00    +0.000 A 
ATOM     28  C   UNL     1       2.210   3.985  21.524  0.00  0.00    +0.000 A 
ENDBRANCH   5  23
TORSDOF 5
ENDMDL
MODEL 3
REMARK VINA RESULT:      -8.1      1.801      7.053
REMARK  Name = 
REMARK  6 active torsions:
REMARK  status: ('A' for Active; 'I' for Inactive)
REMARK    1  A    between atoms: C_1  and  O_2
REMARK    2  A    between atoms: O_2  and  C_3
REMARK    3  A    between atoms: C_6  and  C_7
REMARK    4  A    between atoms: C_9  and  C_10
REMARK    5  A    between atoms: C_13  and  O_14
REMARK    6  A    between atoms: C_18  and  C_19
REMARK                            x       y       z     vdW  Elec       q    Type
REMARK                         _______ _______ _______ _____ _____    ______ ____
ROOT
ATOM      1  C   UNL     1       3.227   5.976  17.998  0.00  0.00    +0.000 A 
ATOM      2  N   UNL     1       3.991   6.106  16.859  0.00  0.00    +0.000 N 
ATOM      3  C   UNL     1       4.486   4.886  16.481  0.00  0.00    +0.000 A 
ATOM      4  N   UNL     1       4.088   3.966  17.339  0.00  0.00    +0.000 NA
ATOM      5  C   UNL     1       3.308   4.616  18.282  0.00  0.00    +0.000 A 
ATOM      6  H   UNL     1       4.169   6.973  16.377  0.00  0.00    +0.000 HD
ENDROOT
BRANCH   1  10
ATOM      7  C   UNL     1       1.181   9.284  19.791  0.00  0.00    +0.000 A 
ATOM      8  C   UNL     1       1.532   9.324  18.442  0.00  0.00    +0.000 A 
ATOM      9  C   UNL     1       2.232   8.264  17.856  0.00  0.00    +0.000 A 
ATOM     10  C   UNL     1       2.565   7.131  18.604  0.00  0.00    +0.000 A 
ATOM     11  C   UNL     1       2.239   7.116  19.968  0.00  0.00    +0.000 A 
ATOM     12  C   UNL     1       1.560   8.187  20.560  0.00  0.00    +0.000 A 
BRANCH   7  14
ATOM     13  C   UNL     1      -0.682  10.721  19.548  0.00  0.00    +0.000 C 
ATOM     14  O   UNL     1       0.506  10.379  20.253  0.00  0.00    +0.000 OA
ENDBRANCH   7  14
ENDBRANCH   1  10
BRANCH   3  15
ATOM     15  C   UNL     1       5.354   4.701  15.316  0.00  0.00    +0.000 A 
ATOM     16  C   UNL     1       6.629   5.283  15.292  0.00  0.00    +0.000 A 
ATOM     17  C   UNL     1       7.459   5.144  14.176  0.00  0.00    +0.000 A 
ATOM     18  C   UNL     1       7.017   4.410  13.083  0.00  0.00    +0.000 A 
ATOM     19  C   UNL     1       5.762   3.815  13.087  0.00  0.00    +0.000 A 
ATOM     20  C   UNL     1       4.932   3.958  14.202  0.00  0.00    +0.000 A 
BRANCH  18  21
ATOM     21  O   UNL     1       7.787   4.243  11.972  0.00  0.00    +0.000 OA
ATOM     22  H   UNL     1       8.711   4.432  12.205  0.00  0.00    +0.000 HD
ENDBRANCH  18  21
ENDBRANCH   3  15
BRANCH   5  23
ATOM     23  C   UNL     1       2.685   3.890  19.383  0.00  0.00    +0.000 A 
ATOM     24  C   UNL     1       3.431   3.312  20.419  0.00  0.00    +0.000 A 
ATOM     25  C   UNL     1       2.798   2.686  21.498  0.00  0.00    +0.000 A 
ATOM     26  C   UNL     1       1.410   2.583  21.527  0.00  0.00    +0.000 A 
ATOM     27  C   UNL     1       0.655   3.104  20.477  0.00  0.00    +0.000 A 
ATOM     28  C   UNL     1       1.288   3.755  19.414  0.00  0.00    +0.000 A 
ENDBRANCH   5  23
TORSDOF 5
ENDMDL
MODEL 4
REMARK VINA RESULT:      -8.1      1.817      2.698
REMARK  Name = 
REMARK  6 active torsions:
REMARK  status: ('A' for Active; 'I' for Inactive)
REMARK    1  A    between atoms: C_1  and  O_2
REMARK    2  A    between atoms: O_2  and  C_3
REMARK    3  A    between atoms: C_6  and  C_7
REMARK    4  A    between atoms: C_9  and  C_10
REMARK    5  A    between atoms: C_13  and  O_14
REMARK    6  A    between atoms: C_18  and  C_19
REMARK                            x       y       z     vdW  Elec       q    Type
REMARK                         _______ _______ _______ _____ _____    ______ ____
ROOT
ATOM      1  C   UNL     1       2.579   6.836  19.507  0.00  0.00    +0.000 A 
ATOM      2  N   UNL     1       2.210   8.118  19.849  0.00  0.00    +0.000 N 
ATOM      3  C   UNL     1       1.219   8.087  20.795  0.00  0.00    +0.000 A 
ATOM      4  N   UNL     1       0.915   6.833  21.071  0.00  0.00    +0.000 NA
ATOM      5  C   UNL     1       1.743   6.044  20.290  0.00  0.00    +0.000 A 
ATOM      6  H   UNL     1       2.603   8.958  19.457  0.00  0.00    +0.000 HD
ENDROOT
BRANCH   1  10
ATOM      7  C   UNL     1       5.759   6.152  16.720  0.00  0.00    +0.000 A 
ATOM      8  C   UNL     1       4.759   7.080  16.430  0.00  0.00    +0.000 A 
ATOM      9  C   UNL     1       3.697   7.285  17.318  0.00  0.00    +0.000 A 
ATOM     10  C   UNL     1       3.635   6.586  18.527  0.00  0.00    +0.000 A 
ATOM     11  C   UNL     1       4.627   5.628  18.793  0.00  0.00    +0.000 A 
ATOM     12  C   UNL     1       5.675   5.406  17.893  0.00  0.00    +0.000 A 
BRANCH   7  14
ATOM     13  C   UNL     1       6.942   4.728  15.246  0.00  0.00    +0.000 C 
ATOM     14  O   UNL     1       6.740   6.034  15.775  0.00  0.00    +0.000 OA
ENDBRANCH   7  14
ENDBRANCH   1  10
BRANCH   3  15
ATOM     15  C   UNL     1       0.602   9.295  21.345  0.00  0.00    +0.000 A 
ATOM     16  C   UNL     1      -0.129   9.229  22.540  0.00  0.00    +0.000 A 
ATOM     17  C   UNL     1      -0.752  10.365  23.063  0.00  0.00    +0.000 A 
ATOM     18  C   UNL     1      -0.633  11.578  22.395  0.00  0.00    +0.000 A 
ATOM     19  C   UNL     1       0.094  11.672  21.216  0.00  0.00    +0.000 A 
ATOM     20  C   UNL     1       0.713  10.533  20.693  0.00  0.00    +0.000 A 
BRANCH  18  21
ATOM     21  O   UNL     1      -1.219  12.715  22.864  0.00  0.00    +0.000 OA
ATOM     22  H   UNL     1      -1.953  12.466  23.449  0.00  0.00    +0.000 HD
ENDBRANCH  18  21
ENDBRANCH   3  15
BRANCH   5  23
ATOM     23  C   UNL     1       1.687   4.588  20.354  0.00  0.00    +0.000 A 
ATOM     24  C   UNL     1       1.178   3.809  19.306  0.00  0.00    +0.000 A 
ATOM     25  C   UNL     1       1.205   2.412  19.369  0.00  0.00    +0.000 A 
ATOM     26  C   UNL     1       1.696   1.776  20.506  0.00  0.00    +0.000 A 
ATOM     27  C   UNL     1       2.155   2.536  21.581  0.00  0.00    +0.000 A 
ATOM     28  C   UNL     1       2.154   3.932  21.504  0.00  0.00    +0.000 A 
ENDBRANCH   5  23
TORSDOF 5
ENDMDL
MODEL 5
REMARK VINA RESULT:      -8.1      0.081      1.340
REMARK  Name = 
REMARK  6 active torsions:
REMARK  status: ('A' for Active; 'I' for Inactive)
REMARK    1  A    between atoms: C_1  and  O_2
REMARK    2  A    between atoms: O_2  and  C_3
REMARK    3  A    between atoms: C_6  and  C_7
REMARK    4  A    between atoms: C_9  and  C_10
REMARK    5  A    between atoms: C_13  and  O_14
REMARK    6  A    between atoms: C_18  and  C_19
REMARK                            x       y       z     vdW  Elec       q    Type
REMARK                         _______ _______ _______ _____ _____    ______ ____
ROOT
ATOM      1  C   UNL     1       3.002   6.656  18.181  0.00  0.00    +0.000 A 
ATOM      2  N   UNL     1       2.820   8.010  18.011  0.00  0.00    +0.000 N 
ATOM      3  C   UNL     1       1.910   8.481  18.919  0.00  0.00    +0.000 A 
ATOM      4  N   UNL     1       1.477   7.483  19.666  0.00  0.00    +0.000 NA
ATOM      5  C   UNL     1       2.140   6.348  19.230  0.00  0.00    +0.000 A 
ATOM      6  H   UNL     1       3.281   8.573  17.314  0.00  0.00    +0.000 HD
ENDROOT
BRANCH   1  10
ATOM      7  C   UNL     1       5.685   4.497  15.635  0.00  0.00    +0.000 A 
ATOM      8  C   UNL     1       4.846   3.810  16.512  0.00  0.00    +0.000 A 
ATOM      9  C   UNL     1       3.992   4.508  17.373  0.00  0.00    +0.000 A 
ATOM     10  C   UNL     1       3.941   5.905  17.348  0.00  0.00    +0.000 A 
ATOM     11  C   UNL     1       4.814   6.586  16.486  0.00  0.00    +0.000 A 
ATOM     12  C   UNL     1       5.686   5.889  15.643  0.00  0.00    +0.000 A 
BRANCH   7  14
ATOM     13  C   UNL     1       6.261   3.811  13.445  0.00  0.00    +0.000 C 
ATOM     14  O   UNL     1       6.479   3.709  14.847  0.00  0.00    +0.000 OA
ENDBRANCH   7  14
ENDBRANCH   1  10
BRANCH   3  15
ATOM     15  C   UNL     1       1.489   9.883  18.975  0.00  0.00    +0.000 A 
ATOM     16  C   UNL     1       0.358  10.247  19.720  0.00  0.00    +0.000 A 
ATOM     17  C   UNL     1      -0.078  11.575  19.758  0.00  0.00    +0.000 A 
ATOM     18  C   UNL     1       0.629  12.546  19.060  0.00  0.00    +0.000 A 
ATOM     19  C   UNL     1       1.759  12.212  18.324  0.00  0.00    +0.000 A 
ATOM     20  C   UNL     1       2.190  10.883  18.284  0.00  0.00    +0.000 A 
BRANCH  18  21
ATOM     21  O   UNL     1       0.248  13.854  19.067  0.00  0.00    +0.000 OA
ATOM     22  H   UNL     1      -0.652  13.912  19.427  0.00  0.00    +0.000 HD
ENDBRANCH  18  21
ENDBRANCH   3  15
BRANCH   5  23
ATOM     23  C   UNL     1       1.912   5.049  19.853  0.00  0.00    +0.000 A 
ATOM     24  C   UNL     1       1.165   4.039  19.232  0.00  0.00    +0.000 A 
ATOM     25  C   UNL     1       1.026   2.779  19.824  0.00  0.00    +0.000 A 
ATOM     26  C   UNL     1       1.591   2.531  21.073  0.00  0.00    +0.000 A 
ATOM     27  C   UNL     1       2.290   3.542  21.730  0.00  0.00    +0.000 A 
ATOM     28  C   UNL     1       2.453   4.791  21.122  0.00  0.00    +0.000 A 
ENDBRANCH   5  23
TORSDOF 5
ENDMDL
MODEL 6
REMARK VINA RESULT:      -8.1      1.814      2.381
REMARK  Name = 
REMARK  6 active torsions:
REMARK  status: ('A' for Active; 'I' for Inactive)
REMARK    1  A    between atoms: C_1  and  O_2
REMARK    2  A    between atoms: O_2  and  C_3
REMARK    3  A    between atoms: C_6  and  C_7
REMARK    4  A    between atoms: C_9  and  C_10
REMARK    5  A    between atoms: C_13  and  O_14
REMARK    6  A    between atoms: C_18  and  C_19
REMARK                            x       y       z     vdW  Elec       q    Type
REMARK                         _______ _______ _______ _____ _____    ______ ____
ROOT
ATOM      1  C   UNL     1       2.526   6.892  19.498  0.00  0.00    +0.000 A 
ATOM      2  N   UNL     1       2.135   8.171  19.826  0.00  0.00    +0.000 N 
ATOM      3  C   UNL     1       1.180   8.136  20.808  0.00  0.00    +0.000 A 
ATOM      4  N   UNL     1       0.920   6.882  21.122  0.00  0.00    +0.000 NA
ATOM      5  C   UNL     1       1.740   6.097  20.329  0.00  0.00    +0.000 A 
ATOM      6  H   UNL     1       2.491   9.012  19.401  0.00  0.00    +0.000 HD
ENDROOT
BRANCH   1  10
ATOM      7  C   UNL     1       5.621   6.216  16.616  0.00  0.00    +0.000 A 
ATOM      8  C   UNL     1       4.655   7.197  16.391  0.00  0.00    +0.000 A 
ATOM      9  C   UNL     1       3.619   7.401  17.310  0.00  0.00    +0.000 A 
ATOM     10  C   UNL     1       3.552   6.647  18.485  0.00  0.00    +0.000 A 
ATOM     11  C   UNL     1       4.508   5.639  18.685  0.00  0.00    +0.000 A 
ATOM     12  C   UNL     1       5.529   5.419  17.754  0.00  0.00    +0.000 A 
BRANCH   7  14
ATOM     13  C   UNL     1       6.985   4.779  15.323  0.00  0.00    +0.000 C 
ATOM     14  O   UNL     1       6.579   6.104  15.646  0.00  0.00    +0.000 OA
ENDBRANCH   7  14
ENDBRANCH   1  10
BRANCH   3  15
ATOM     15  C   UNL     1       0.551   9.340  21.354  0.00  0.00    +0.000 A 
ATOM     16  C   UNL     1       0.731  10.577  20.717  0.00  0.00    +0.000 A 
ATOM     17  C   UNL     1       0.164  11.742  21.243  0.00  0.00    +0.000 A 
ATOM     18  C   UNL     1      -0.596  11.669  22.402  0.00  0.00    +0.000 A 
ATOM     19  C   UNL     1      -0.798  10.455  23.045  0.00  0.00    +0.000 A 
ATOM     20  C   UNL     1      -0.228   9.291  22.521  0.00  0.00    +0.000 A 
BRANCH  18  21
ATOM     21  O   UNL     1      -1.172  12.774  22.953  0.00  0.00    +0.000 OA
ATOM     22  H   UNL     1      -1.926  12.491  23.496  0.00  0.00    +0.000 HD
ENDBRANCH  18  21
ENDBRANCH   3  15
BRANCH   5  23
ATOM     23  C   UNL     1       1.726   4.641  20.427  0.00  0.00    +0.000 A 
ATOM     24  C   UNL     1       2.198   3.960  21.557  0.00  0.00    +0.000 A 
ATOM     25  C   UNL     1       2.103   2.568  21.650  0.00  0.00    +0.000 A 
ATOM     26  C   UNL     1       1.580   1.834  20.588  0.00  0.00    +0.000 A 
ATOM     27  C   UNL     1       1.157   2.491  19.434  0.00  0.00    +0.000 A 
ATOM     28  C   UNL     1       1.226   3.885  19.356  0.00  0.00    +0.000 A 
ENDBRANCH   5  23
TORSDOF 5
ENDMDL
MODEL 7
REMARK VINA RESULT:      -8.0      0.276      1.354
REMARK  Name = 
REMARK  6 active torsions:
REMARK  status: ('A' for Active; 'I' for Inactive)
REMARK    1  A    between atoms: C_1  and  O_2
REMARK    2  A    between atoms: O_2  and  C_3
REMARK    3  A    between atoms: C_6  and  C_7
REMARK    4  A    between atoms: C_9  and  C_10
REMARK    5  A    between atoms: C_13  and  O_14
REMARK    6  A    between atoms: C_18  and  C_19
REMARK                            x       y       z     vdW  Elec       q    Type
REMARK                         _______ _______ _______ _____ _____    ______ ____
ROOT
ATOM      1  C   UNL     1       2.950   6.692  18.300  0.00  0.00    +0.000 A 
ATOM      2  N   UNL     1       2.746   8.048  18.177  0.00  0.00    +0.000 N 
ATOM      3  C   UNL     1       1.872   8.483  19.138  0.00  0.00    +0.000 A 
ATOM      4  N   UNL     1       1.483   7.458  19.873  0.00  0.00    +0.000 NA
ATOM      5  C   UNL     1       2.138   6.344  19.376  0.00  0.00    +0.000 A 
ATOM      6  H   UNL     1       3.171   8.637  17.478  0.00  0.00    +0.000 HD
ENDROOT
BRANCH   1  10
ATOM      7  C   UNL     1       5.675   4.552  15.782  0.00  0.00    +0.000 A 
ATOM      8  C   UNL     1       5.645   5.947  15.758  0.00  0.00    +0.000 A 
ATOM      9  C   UNL     1       4.734   6.653  16.550  0.00  0.00    +0.000 A 
ATOM     10  C   UNL     1       3.859   5.976  17.405  0.00  0.00    +0.000 A 
ATOM     11  C   UNL     1       3.873   4.573  17.395  0.00  0.00    +0.000 A 
ATOM     12  C   UNL     1       4.767   3.866  16.583  0.00  0.00    +0.000 A 
BRANCH   7  14
ATOM     13  C   UNL     1       6.248   3.885  13.585  0.00  0.00    +0.000 C 
ATOM     14  O   UNL     1       6.603   3.972  14.961  0.00  0.00    +0.000 OA
ENDBRANCH   7  14
ENDBRANCH   1  10
BRANCH   3  15
ATOM     15  C   UNL     1       1.439   9.877  19.253  0.00  0.00    +0.000 A 
ATOM     16  C   UNL     1       0.524  10.248  20.249  0.00  0.00    +0.000 A 
ATOM     17  C   UNL     1       0.076  11.568  20.353  0.00  0.00    +0.000 A 
ATOM     18  C   UNL     1       0.554  12.524  19.467  0.00  0.00    +0.000 A 
ATOM     19  C   UNL     1       1.469  12.184  18.479  0.00  0.00    +0.000 A 
ATOM     20  C   UNL     1       1.913  10.863  18.374  0.00  0.00    +0.000 A 
BRANCH  18  21
ATOM     21  O   UNL     1       0.151  13.825  19.528  0.00  0.00    +0.000 OA
ATOM     22  H   UNL     1      -0.799  13.862  19.329  0.00  0.00    +0.000 HD
ENDBRANCH  18  21
ENDBRANCH   3  15
BRANCH   5  23
ATOM     23  C   UNL     1       1.951   5.025  19.970  0.00  0.00    +0.000 A 
ATOM     24  C   UNL     1       2.503   4.675  21.209  0.00  0.00    +0.000 A 
ATOM     25  C   UNL     1       2.245   3.427  21.785  0.00  0.00    +0.000 A 
ATOM     26  C   UNL     1       1.471   2.491  21.102  0.00  0.00    +0.000 A 
ATOM     27  C   UNL     1       0.960   2.803  19.843  0.00  0.00    +0.000 A 
ATOM     28  C   UNL     1       1.195   4.062  19.283  0.00  0.00    +0.000 A 
ENDBRANCH   5  23
TORSDOF 5
ENDMDL
MODEL 8
REMARK VINA RESULT:      -8.0      1.838      2.427
REMARK  Name = 
REMARK  6 active torsions:
REMARK  status: ('A' for Active; 'I' for Inactive)
REMARK    1  A    between atoms: C_1  and  O_2
REMARK    2  A    between atoms: O_2  and  C_3
REMARK    3  A    between atoms: C_6  and  C_7
REMARK    4  A    between atoms: C_9  and  C_10
REMARK    5  A    between atoms: C_13  and  O_14
REMARK    6  A    between atoms: C_18  and  C_19
REMARK                            x       y       z     vdW  Elec       q    Type
REMARK                         _______ _______ _______ _____ _____    ______ ____
ROOT
ATOM      1  C   UNL     1       2.692   6.820  19.505  0.00  0.00    +0.000 A 
ATOM      2  N   UNL     1       2.322   8.090  19.889  0.00  0.00    +0.000 N 
ATOM      3  C   UNL     1       1.279   8.030  20.775  0.00  0.00    +0.000 A 
ATOM      4  N   UNL     1       0.942   6.769  20.972  0.00  0.00    +0.000 NA
ATOM      5  C   UNL     1       1.802   6.005  20.200  0.00  0.00    +0.000 A 
ATOM      6  H   UNL     1       2.748   8.942  19.561  0.00  0.00    +0.000 HD
ENDROOT
BRANCH   1  10
ATOM      7  C   UNL     1       5.850   6.115  16.699  0.00  0.00    +0.000 A 
ATOM      8  C   UNL     1       5.877   5.505  17.954  0.00  0.00    +0.000 A 
ATOM      9  C   UNL     1       4.868   5.757  18.890  0.00  0.00    +0.000 A 
ATOM     10  C   UNL     1       3.799   6.600  18.574  0.00  0.00    +0.000 A 
ATOM     11  C   UNL     1       3.800   7.236  17.324  0.00  0.00    +0.000 A 
ATOM     12  C   UNL     1       4.822   7.003  16.397  0.00  0.00    +0.000 A 
BRANCH   7  14
ATOM     13  C   UNL     1       6.720   4.632  15.074  0.00  0.00    +0.000 C 
ATOM     14  O   UNL     1       6.892   5.798  15.872  0.00  0.00    +0.000 OA
ENDBRANCH   7  14
ENDBRANCH   1  10
BRANCH   3  15
ATOM     15  C   UNL     1       0.648   9.220  21.348  0.00  0.00    +0.000 A 
ATOM     16  C   UNL     1      -0.100   9.118  22.530  0.00  0.00    +0.000 A 
ATOM     17  C   UNL     1      -0.736  10.238  23.074  0.00  0.00    +0.000 A 
ATOM     18  C   UNL     1      -0.614  11.468  22.441  0.00  0.00    +0.000 A 
ATOM     19  C   UNL     1       0.131  11.597  21.276  0.00  0.00    +0.000 A 
ATOM     20  C   UNL     1       0.763  10.476  20.731  0.00  0.00    +0.000 A 
BRANCH  18  21
ATOM     21  O   UNL     1      -1.211  12.590  22.932  0.00  0.00    +0.000 OA
ATOM     22  H   UNL     1      -2.173  12.457  22.921  0.00  0.00    +0.000 HD
ENDBRANCH  18  21
ENDBRANCH   3  15
BRANCH   5  23
ATOM     23  C   UNL     1       1.723   4.549  20.190  0.00  0.00    +0.000 A 
ATOM     24  C   UNL     1       1.962   3.775  21.334  0.00  0.00    +0.000 A 
ATOM     25  C   UNL     1       1.806   2.386  21.308  0.00  0.00    +0.000 A 
ATOM     26  C   UNL     1       1.459   1.746  20.121  0.00  0.00    +0.000 A 
ATOM     27  C   UNL     1       1.272   2.495  18.960  0.00  0.00    +0.000 A 
ATOM     28  C   UNL     1       1.399   3.887  18.996  0.00  0.00    +0.000 A 
ENDBRANCH   5  23
TORSDOF 5
ENDMDL
MODEL 9
REMARK VINA RESULT:      -8.0      0.291      1.366
REMARK  Name = 
REMARK  6 active torsions:
REMARK  status: ('A' for Active; 'I' for Inactive)
REMARK    1  A    between atoms: C_1  and  O_2
REMARK    2  A    between atoms: O_2  and  C_3
REMARK    3  A    between atoms: C_6  and  C_7
REMARK    4  A    between atoms: C_9  and  C_10
REMARK    5  A    between atoms: C_13  and  O_14
REMARK    6  A    between atoms: C_18  and  C_19
REMARK                            x       y       z     vdW  Elec       q    Type
REMARK                         _______ _______ _______ _____ _____    ______ ____
ROOT
ATOM      1  C   UNL     1       2.941   6.684  18.299  0.00  0.00    +0.000 A 
ATOM      2  N   UNL     1       2.762   8.046  18.190  0.00  0.00    +0.000 N 
ATOM      3  C   UNL     1       1.885   8.484  19.146  0.00  0.00    +0.000 A 
ATOM      4  N   UNL     1       1.470   7.459  19.865  0.00  0.00    +0.000 NA
ATOM      5  C   UNL     1       2.111   6.339  19.362  0.00  0.00    +0.000 A 
ATOM      6  H   UNL     1       3.204   8.634  17.502  0.00  0.00    +0.000 HD
ENDROOT
BRANCH   1  10
ATOM      7  C   UNL     1       5.660   4.531  15.786  0.00  0.00    +0.000 A 
ATOM      8  C   UNL     1       5.615   5.924  15.739  0.00  0.00    +0.000 A 
ATOM      9  C   UNL     1       4.706   6.634  16.530  0.00  0.00    +0.000 A 
ATOM     10  C   UNL     1       3.847   5.963  17.406  0.00  0.00    +0.000 A 
ATOM     11  C   UNL     1       3.876   4.560  17.419  0.00  0.00    +0.000 A 
ATOM     12  C   UNL     1       4.769   3.849  16.610  0.00  0.00    +0.000 A 
BRANCH   7  14
ATOM     13  C   UNL     1       6.220   3.842  13.593  0.00  0.00    +0.000 C 
ATOM     14  O   UNL     1       6.584   3.946  14.965  0.00  0.00    +0.000 OA
ENDBRANCH   7  14
ENDBRANCH   1  10
BRANCH   3  15
ATOM     15  C   UNL     1       1.475   9.884  19.272  0.00  0.00    +0.000 A 
ATOM     16  C   UNL     1       1.955  10.841  18.366  0.00  0.00    +0.000 A 
ATOM     17  C   UNL     1       1.600  12.187  18.490  0.00  0.00    +0.000 A 
ATOM     18  C   UNL     1       0.751  12.578  19.517  0.00  0.00    +0.000 A 
ATOM     19  C   UNL     1       0.254  11.648  20.421  0.00  0.00    +0.000 A 
ATOM     20  C   UNL     1       0.612  10.303  20.297  0.00  0.00    +0.000 A 
BRANCH  18  21
ATOM     21  O   UNL     1       0.373  13.877  19.681  0.00  0.00    +0.000 OA
ATOM     22  H   UNL     1       0.818  14.415  19.006  0.00  0.00    +0.000 HD
ENDBRANCH  18  21
ENDBRANCH   3  15
BRANCH   5  23
ATOM     23  C   UNL     1       1.895   5.016  19.939  0.00  0.00    +0.000 A 
ATOM     24  C   UNL     1       1.173   4.016  19.274  0.00  0.00    +0.000 A 
ATOM     25  C   UNL     1       1.046   2.736  19.823  0.00  0.00    +0.000 A 
ATOM     26  C   UNL     1       1.596   2.455  21.071  0.00  0.00    +0.000 A 
ATOM     27  C   UNL     1       2.269   3.455  21.771  0.00  0.00    +0.000 A 
ATOM     28  C   UNL     1       2.421   4.726  21.207  0.00  0.00    +0.000 A 
ENDBRANCH   5  23
TORSDOF 5
ENDMDL
