MODEL 1
REMARK VINA RESULT:      -7.7      0.000      0.000
REMARK  Name = 
REMARK  13 active torsions:
REMARK  status: ('A' for Active; 'I' for Inactive)
REMARK    1  A    between atoms: C_1  and  O_2
REMARK    2  A    between atoms: O_2  and  C_3
REMARK    3  A    between atoms: C_3  and  C_5
REMARK    4  A    between atoms: C_7  and  O_8
REMARK    5  A    between atoms: O_8  and  C_9
REMARK    6  A    between atoms: C_12  and  O_13
REMARK    7  A    between atoms: C_17  and  O_18
REMARK    8  A    between atoms: C_21  and  C_22
REMARK    9  A    between atoms: C_21  and  C_23
REMARK   10  A    between atoms: C_23  and  C_24
REMARK   11  A    between atoms: C_24  and  C_25
REMARK   12  A    between atoms: C_26  and  C_27
REMARK   13  A    between atoms: C_26  and  C_28
REMARK                            x       y       z     vdW  Elec       q    Type
REMARK                         _______ _______ _______ _____ _____    ______ ____
ROOT
ATOM      1  C   UNL     1       3.794   5.420  18.296  0.00  0.00    +0.000 A 
ATOM      2  C   UNL     1       3.464   4.637  19.389  0.00  0.00    +0.000 A 
ATOM      3  C   UNL     1       2.570   5.102  20.366  0.00  0.00    +0.000 A 
ATOM      4  C   UNL     1       2.008   6.418  20.272  0.00  0.00    +0.000 A 
ATOM      5  C   UNL     1       1.133   6.973  21.237  0.00  0.00    +0.000 A 
ATOM      6  C   UNL     1       0.648   8.268  21.166  0.00  0.00    +0.000 A 
ATOM      7  C   UNL     1       1.010   9.096  20.122  0.00  0.00    +0.000 A 
ATOM      8  C   UNL     1       1.839   8.612  19.098  0.00  0.00    +0.000 A 
ATOM      9  C   UNL     1       2.348   7.254  19.151  0.00  0.00    +0.000 A 
ATOM     10  C   UNL     1       3.213   6.684  18.168  0.00  0.00    +0.000 A 
ATOM     11  C   UNL     1       2.185   9.586  18.051  0.00  0.00    +0.000 C 
ATOM     12  C   UNL     1       1.749  10.848  18.124  0.00  0.00    +0.000 C 
ATOM     13  C   UNL     1       0.815  11.325  19.192  0.00  0.00    +0.000 C 
ATOM     14  C   UNL     1       1.475  12.492  19.931  0.00  0.00    +0.000 C 
ATOM     15  O   UNL     1       0.512  10.364  20.205  0.00  0.00    +0.000 OA
ENDROOT
BRANCH   1  16
ATOM     16  C   UNL     1       4.817   4.970  17.321  0.00  0.00    +0.000 C 
ATOM     17  O   UNL     1       4.673   3.984  16.615  0.00  0.00    +0.000 OA
BRANCH  16  19
ATOM     18  C   UNL     1       6.845   5.514  16.302  0.00  0.00    +0.000 C 
ATOM     19  O   UNL     1       5.885   5.806  17.321  0.00  0.00    +0.000 OA
ENDBRANCH  16  19
ENDBRANCH   1  16
BRANCH   3  20
ATOM     20  O   UNL     1       2.419   4.123  21.314  0.00  0.00    +0.000 OA
ATOM     21  C   UNL     1       1.424   3.125  21.252  0.00  0.00    +0.000 C 
ENDBRANCH   3  20
BRANCH   6  22
ATOM     22  O   UNL     1      -0.181   8.748  22.147  0.00  0.00    +0.000 OA
ATOM     23  H   UNL     1      -0.863   8.094  22.358  0.00  0.00    +0.000 HD
ENDBRANCH   6  22
BRANCH  10  24
ATOM     24  O   UNL     1       3.464   7.366  17.004  0.00  0.00    +0.000 OA
ATOM     25  H   UNL     1       4.278   7.886  17.156  0.00  0.00    +0.000 HD
ENDBRANCH  10  24
BRANCH  13  26
ATOM     26  C   UNL     1      -0.537  11.734  18.553  0.00  0.00    +0.000 C 
BRANCH  26  27
ATOM     27  C   UNL     1      -1.483  10.523  18.448  0.00  0.00    +0.000 C 
BRANCH  27  28
ATOM     28  C   UNL     1      -1.786  10.045  17.056  0.00  0.00    +0.000 C 
ATOM     29  C   UNL     1      -2.872  10.433  16.368  0.00  0.00    +0.000 C 
ATOM     30  C   UNL     1      -3.912  11.377  16.905  0.00  0.00    +0.000 C 
ATOM     31  C   UNL     1      -3.130   9.948  14.969  0.00  0.00    +0.000 C 
ENDBRANCH  27  28
ENDBRANCH  26  27
ENDBRANCH  13  26
TORSDOF 8
ENDMDL
MODEL 2
REMARK VINA RESULT:      -7.5      2.335      4.496
REMARK  Name = 
REMARK  13 active torsions:
REMARK  status: ('A' for Active; 'I' for Inactive)
REMARK    1  A    between atoms: C_1  and  O_2
REMARK    2  A    between atoms: O_2  and  C_3
REMARK    3  A    between atoms: C_3  and  C_5
REMARK    4  A    between atoms: C_7  and  O_8
REMARK    5  A    between atoms: O_8  and  C_9
REMARK    6  A    between atoms: C_12  and  O_13
REMARK    7  A    between atoms: C_17  and  O_18
REMARK    8  A    between atoms: C_21  and  C_22
REMARK    9  A    between atoms: C_21  and  C_23
REMARK   10  A    between atoms: C_23  and  C_24
REMARK   11  A    between atoms: C_24  and  C_25
REMARK   12  A    between atoms: C_26  and  C_27
REMARK   13  A    between atoms: C_26  and  C_28
REMARK                            x       y       z     vdW  Elec       q    Type
REMARK                         _______ _______ _______ _____ _____    ______ ____
ROOT
ATOM      1  C   UNL     1       3.639   4.227  19.424  0.00  0.00    +0.000 A 
ATOM      2  C   UNL     1       4.266   4.406  18.203  0.00  0.00    +0.000 A 
ATOM      3  C   UNL     1       4.174   5.627  17.517  0.00  0.00    +0.000 A 
ATOM      4  C   UNL     1       3.391   6.705  18.049  0.00  0.00    +0.000 A 
ATOM      5  C   UNL     1       3.216   7.949  17.397  0.00  0.00    +0.000 A 
ATOM      6  C   UNL     1       2.407   8.958  17.893  0.00  0.00    +0.000 A 
ATOM      7  C   UNL     1       1.716   8.786  19.075  0.00  0.00    +0.000 A 
ATOM      8  C   UNL     1       1.867   7.599  19.809  0.00  0.00    +0.000 A 
ATOM      9  C   UNL     1       2.719   6.535  19.310  0.00  0.00    +0.000 A 
ATOM     10  C   UNL     1       2.915   5.288  19.976  0.00  0.00    +0.000 A 
ATOM     11  C   UNL     1       1.063   7.509  21.039  0.00  0.00    +0.000 C 
ATOM     12  C   UNL     1       0.231   8.496  21.381  0.00  0.00    +0.000 C 
ATOM     13  C   UNL     1       0.131   9.779  20.616  0.00  0.00    +0.000 C 
ATOM     14  C   UNL     1      -1.318   9.967  20.163  0.00  0.00    +0.000 C 
ATOM     15  O   UNL     1       0.907   9.831  19.418  0.00  0.00    +0.000 OA
ENDROOT
BRANCH   1  16
ATOM     16  C   UNL     1       3.651   2.906  20.097  0.00  0.00    +0.000 C 
ATOM     17  O   UNL     1       4.677   2.280  20.315  0.00  0.00    +0.000 OA
BRANCH  16  19
ATOM     18  C   UNL     1       1.570   2.186  19.322  0.00  0.00    +0.000 C 
ATOM     19  O   UNL     1       2.394   2.526  20.440  0.00  0.00    +0.000 OA
ENDBRANCH  16  19
ENDBRANCH   1  16
BRANCH   3  20
ATOM     20  O   UNL     1       4.896   5.525  16.357  0.00  0.00    +0.000 OA
ATOM     21  C   UNL     1       5.575   4.354  15.961  0.00  0.00    +0.000 C 
ENDBRANCH   3  20
BRANCH   6  22
ATOM     22  O   UNL     1       2.266  10.132  17.199  0.00  0.00    +0.000 OA
ATOM     23  H   UNL     1       3.123  10.416  16.847  0.00  0.00    +0.000 HD
ENDBRANCH   6  22
BRANCH  10  24
ATOM     24  O   UNL     1       2.426   5.109  21.246  0.00  0.00    +0.000 OA
ATOM     25  H   UNL     1       1.520   4.755  21.147  0.00  0.00    +0.000 HD
ENDBRANCH  10  24
BRANCH  13  26
ATOM     26  C   UNL     1       0.618  10.952  21.507  0.00  0.00    +0.000 C 
BRANCH  26  27
ATOM     27  C   UNL     1      -0.461  12.047  21.612  0.00  0.00    +0.000 C 
BRANCH  27  28
ATOM     28  C   UNL     1      -1.317  12.008  22.847  0.00  0.00    +0.000 C 
ATOM     29  C   UNL     1      -2.623  12.318  22.842  0.00  0.00    +0.000 C 
ATOM     30  C   UNL     1      -3.380  12.745  21.614  0.00  0.00    +0.000 C 
ATOM     31  C   UNL     1      -3.452  12.248  24.094  0.00  0.00    +0.000 C 
ENDBRANCH  27  28
ENDBRANCH  26  27
ENDBRANCH  13  26
TORSDOF 8
ENDMDL
MODEL 3
REMARK VINA RESULT:      -7.5      2.161      4.271
REMARK  Name = 
REMARK  13 active torsions:
REMARK  status: ('A' for Active; 'I' for Inactive)
REMARK    1  A    between atoms: C_1  and  O_2
REMARK    2  A    between atoms: O_2  and  C_3
REMARK    3  A    between atoms: C_3  and  C_5
REMARK    4  A    between atoms: C_7  and  O_8
REMARK    5  A    between atoms: O_8  and  C_9
REMARK    6  A    between atoms: C_12  and  O_13
REMARK    7  A    between atoms: C_17  and  O_18
REMARK    8  A    between atoms: C_21  and  C_22
REMARK    9  A    between atoms: C_21  and  C_23
REMARK   10  A    between atoms: C_23  and  C_24
REMARK   11  A    between atoms: C_24  and  C_25
REMARK   12  A    between atoms: C_26  and  C_27
REMARK   13  A    between atoms: C_26  and  C_28
REMARK                            x       y       z     vdW  Elec       q    Type
REMARK                         _______ _______ _______ _____ _____    ______ ____
ROOT
ATOM      1  C   UNL     1       3.667   4.226  19.335  0.00  0.00    +0.000 A 
ATOM      2  C   UNL     1       4.248   4.425  18.095  0.00  0.00    +0.000 A 
ATOM      3  C   UNL     1       4.136   5.657  17.434  0.00  0.00    +0.000 A 
ATOM      4  C   UNL     1       3.380   6.729  18.014  0.00  0.00    +0.000 A 
ATOM      5  C   UNL     1       3.187   7.986  17.391  0.00  0.00    +0.000 A 
ATOM      6  C   UNL     1       2.402   8.989  17.934  0.00  0.00    +0.000 A 
ATOM      7  C   UNL     1       1.755   8.799  19.139  0.00  0.00    +0.000 A 
ATOM      8  C   UNL     1       1.928   7.599  19.846  0.00  0.00    +0.000 A 
ATOM      9  C   UNL     1       2.756   6.541  19.297  0.00  0.00    +0.000 A 
ATOM     10  C   UNL     1       2.970   5.281  19.933  0.00  0.00    +0.000 A 
ATOM     11  C   UNL     1       1.171   7.491  21.103  0.00  0.00    +0.000 C 
ATOM     12  C   UNL     1       0.357   8.476  21.494  0.00  0.00    +0.000 C 
ATOM     13  C   UNL     1       0.236   9.773  20.756  0.00  0.00    +0.000 C 
ATOM     14  C   UNL     1      -1.229   9.975  20.361  0.00  0.00    +0.000 C 
ATOM     15  O   UNL     1       0.966   9.842  19.530  0.00  0.00    +0.000 OA
ENDROOT
BRANCH   1  16
ATOM     16  C   UNL     1       3.698   2.894  19.984  0.00  0.00    +0.000 C 
ATOM     17  O   UNL     1       4.735   2.295  20.224  0.00  0.00    +0.000 OA
BRANCH  16  19
ATOM     18  C   UNL     1       1.731   1.949  19.153  0.00  0.00    +0.000 C 
ATOM     19  O   UNL     1       2.443   2.470  20.279  0.00  0.00    +0.000 OA
ENDBRANCH  16  19
ENDBRANCH   1  16
BRANCH   3  20
ATOM     20  O   UNL     1       4.814   5.573  16.245  0.00  0.00    +0.000 OA
ATOM     21  C   UNL     1       5.304   4.363  15.712  0.00  0.00    +0.000 C 
ENDBRANCH   3  20
BRANCH   6  22
ATOM     22  O   UNL     1       2.241  10.175  17.266  0.00  0.00    +0.000 OA
ATOM     23  H   UNL     1       2.313  10.033  16.311  0.00  0.00    +0.000 HD
ENDBRANCH   6  22
BRANCH  10  24
ATOM     24  O   UNL     1       2.528   5.082  21.217  0.00  0.00    +0.000 OA
ATOM     25  H   UNL     1       1.632   4.698  21.146  0.00  0.00    +0.000 HD
ENDBRANCH  10  24
BRANCH  13  26
ATOM     26  C   UNL     1       0.761  10.928  21.647  0.00  0.00    +0.000 C 
BRANCH  26  27
ATOM     27  C   UNL     1       0.296  12.294  21.109  0.00  0.00    +0.000 C 
BRANCH  27  28
ATOM     28  C   UNL     1       1.317  13.076  20.332  0.00  0.00    +0.000 C 
ATOM     29  C   UNL     1       1.107  13.513  19.080  0.00  0.00    +0.000 C 
ATOM     30  C   UNL     1      -0.161  13.272  18.309  0.00  0.00    +0.000 C 
ATOM     31  C   UNL     1       2.146  14.311  18.342  0.00  0.00    +0.000 C 
ENDBRANCH  27  28
ENDBRANCH  26  27
ENDBRANCH  13  26
TORSDOF 8
ENDMDL
MODEL 4
REMARK VINA RESULT:      -7.5      3.012      7.560
REMARK  Name = 
REMARK  13 active torsions:
REMARK  status: ('A' for Active; 'I' for Inactive)
REMARK    1  A    between atoms: C_1  and  O_2
REMARK    2  A    between atoms: O_2  and  C_3
REMARK    3  A    between atoms: C_3  and  C_5
REMARK    4  A    between atoms: C_7  and  O_8
REMARK    5  A    between atoms: O_8  and  C_9
REMARK    6  A    between atoms: C_12  and  O_13
REMARK    7  A    between atoms: C_17  and  O_18
REMARK    8  A    between atoms: C_21  and  C_22
REMARK    9  A    between atoms: C_21  and  C_23
REMARK   10  A    between atoms: C_23  and  C_24
REMARK   11  A    between atoms: C_24  and  C_25
REMARK   12  A    between atoms: C_26  and  C_27
REMARK   13  A    between atoms: C_26  and  C_28
REMARK                            x       y       z     vdW  Elec       q    Type
REMARK                         _______ _______ _______ _____ _____    ______ ____
ROOT
ATOM      1  C   UNL     1       1.944   6.973  19.976  0.00  0.00    +0.000 A 
ATOM      2  C   UNL     1       1.463   5.899  20.705  0.00  0.00    +0.000 A 
ATOM      3  C   UNL     1       1.845   4.585  20.393  0.00  0.00    +0.000 A 
ATOM      4  C   UNL     1       2.714   4.323  19.283  0.00  0.00    +0.000 A 
ATOM      5  C   UNL     1       3.111   3.025  18.881  0.00  0.00    +0.000 A 
ATOM      6  C   UNL     1       3.900   2.783  17.769  0.00  0.00    +0.000 A 
ATOM      7  C   UNL     1       4.342   3.828  16.983  0.00  0.00    +0.000 A 
ATOM      8  C   UNL     1       4.033   5.151  17.334  0.00  0.00    +0.000 A 
ATOM      9  C   UNL     1       3.215   5.423  18.503  0.00  0.00    +0.000 A 
ATOM     10  C   UNL     1       2.832   6.733  18.924  0.00  0.00    +0.000 A 
ATOM     11  C   UNL     1       4.531   6.184  16.412  0.00  0.00    +0.000 C 
ATOM     12  C   UNL     1       5.198   5.844  15.306  0.00  0.00    +0.000 C 
ATOM     13  C   UNL     1       5.571   4.430  14.983  0.00  0.00    +0.000 C 
ATOM     14  C   UNL     1       4.980   4.069  13.618  0.00  0.00    +0.000 C 
ATOM     15  O   UNL     1       5.058   3.448  15.884  0.00  0.00    +0.000 OA
ENDROOT
BRANCH   1  16
ATOM     16  C   UNL     1       1.459   8.349  20.241  0.00  0.00    +0.000 C 
ATOM     17  O   UNL     1       1.197   9.143  19.351  0.00  0.00    +0.000 OA
BRANCH  16  19
ATOM     18  C   UNL     1       0.627   9.770  21.895  0.00  0.00    +0.000 C 
ATOM     19  O   UNL     1       1.335   8.569  21.574  0.00  0.00    +0.000 OA
ENDBRANCH  16  19
ENDBRANCH   1  16
BRANCH   3  20
ATOM     20  O   UNL     1       1.233   3.736  21.280  0.00  0.00    +0.000 OA
ATOM     21  C   UNL     1       1.900   2.679  21.933  0.00  0.00    +0.000 C 
ENDBRANCH   3  20
BRANCH   6  22
ATOM     22  O   UNL     1       4.229   1.498  17.425  0.00  0.00    +0.000 OA
ATOM     23  H   UNL     1       5.187   1.368  17.496  0.00  0.00    +0.000 HD
ENDBRANCH   6  22
BRANCH  10  24
ATOM     24  O   UNL     1       3.387   7.832  18.319  0.00  0.00    +0.000 OA
ATOM     25  H   UNL     1       2.651   8.450  18.136  0.00  0.00    +0.000 HD
ENDBRANCH  10  24
BRANCH  13  26
ATOM     26  C   UNL     1       7.114   4.284  15.003  0.00  0.00    +0.000 C 
BRANCH  26  27
ATOM     27  C   UNL     1       7.752   5.309  15.960  0.00  0.00    +0.000 C 
BRANCH  27  28
ATOM     28  C   UNL     1       7.685   4.972  17.423  0.00  0.00    +0.000 C 
ATOM     29  C   UNL     1       7.698   5.903  18.390  0.00  0.00    +0.000 C 
ATOM     30  C   UNL     1       7.786   7.381  18.131  0.00  0.00    +0.000 C 
ATOM     31  C   UNL     1       7.610   5.527  19.843  0.00  0.00    +0.000 C 
ENDBRANCH  27  28
ENDBRANCH  26  27
ENDBRANCH  13  26
TORSDOF 8
ENDMDL
MODEL 5
REMARK VINA RESULT:      -7.5      1.528      2.220
REMARK  Name = 
REMARK  13 active torsions:
REMARK  status: ('A' for Active; 'I' for Inactive)
REMARK    1  A    between atoms: C_1  and  O_2
REMARK    2  A    between atoms: O_2  and  C_3
REMARK    3  A    between atoms: C_3  and  C_5
REMARK    4  A    between atoms: C_7  and  O_8
REMARK    5  A    between atoms: O_8  and  C_9
REMARK    6  A    between atoms: C_12  and  O_13
REMARK    7  A    between atoms: C_17  and  O_18
REMARK    8  A    between atoms: C_21  and  C_22
REMARK    9  A    between atoms: C_21  and  C_23
REMARK   10  A    between atoms: C_23  and  C_24
REMARK   11  A    between atoms: C_24  and  C_25
REMARK   12  A    between atoms: C_26  and  C_27
REMARK   13  A    between atoms: C_26  and  C_28
REMARK                            x       y       z     vdW  Elec       q    Type
REMARK                         _______ _______ _______ _____ _____    ______ ____
ROOT
ATOM      1  C   UNL     1       5.411   5.470  16.775  0.00  0.00    +0.000 A 
ATOM      2  C   UNL     1       5.520   4.471  17.727  0.00  0.00    +0.000 A 
ATOM      3  C   UNL     1       4.692   4.460  18.860  0.00  0.00    +0.000 A 
ATOM      4  C   UNL     1       3.739   5.509  19.076  0.00  0.00    +0.000 A 
ATOM      5  C   UNL     1       2.898   5.590  20.212  0.00  0.00    +0.000 A 
ATOM      6  C   UNL     1       2.026   6.642  20.438  0.00  0.00    +0.000 A 
ATOM      7  C   UNL     1       1.941   7.687  19.540  0.00  0.00    +0.000 A 
ATOM      8  C   UNL     1       2.707   7.666  18.364  0.00  0.00    +0.000 A 
ATOM      9  C   UNL     1       3.618   6.565  18.106  0.00  0.00    +0.000 A 
ATOM     10  C   UNL     1       4.450   6.470  16.950  0.00  0.00    +0.000 A 
ATOM     11  C   UNL     1       2.560   8.842  17.492  0.00  0.00    +0.000 C 
ATOM     12  C   UNL     1       1.768   9.858  17.847  0.00  0.00    +0.000 C 
ATOM     13  C   UNL     1       0.913   9.832  19.076  0.00  0.00    +0.000 C 
ATOM     14  C   UNL     1       1.282  11.031  19.953  0.00  0.00    +0.000 C 
ATOM     15  O   UNL     1       1.091   8.688  19.913  0.00  0.00    +0.000 OA
ENDROOT
BRANCH   1  16
ATOM     16  C   UNL     1       6.356   5.537  15.634  0.00  0.00    +0.000 C 
ATOM     17  O   UNL     1       7.518   5.893  15.753  0.00  0.00    +0.000 OA
BRANCH  16  19
ATOM     18  C   UNL     1       6.313   3.940  13.933  0.00  0.00    +0.000 C 
ATOM     19  O   UNL     1       5.755   5.135  14.486  0.00  0.00    +0.000 OA
ENDBRANCH  16  19
ENDBRANCH   1  16
BRANCH   3  20
ATOM     20  O   UNL     1       5.007   3.359  19.614  0.00  0.00    +0.000 OA
ATOM     21  C   UNL     1       4.223   2.187  19.649  0.00  0.00    +0.000 C 
ENDBRANCH   3  20
BRANCH   6  22
ATOM     22  O   UNL     1       1.255   6.667  21.571  0.00  0.00    +0.000 OA
ATOM     23  H   UNL     1       1.782   6.968  22.326  0.00  0.00    +0.000 HD
ENDBRANCH   6  22
BRANCH  10  24
ATOM     24  O   UNL     1       4.288   7.359  15.918  0.00  0.00    +0.000 OA
ATOM     25  H   UNL     1       5.177   7.705  15.706  0.00  0.00    +0.000 HD
ENDBRANCH  10  24
BRANCH  13  26
ATOM     26  C   UNL     1      -0.582   9.851  18.667  0.00  0.00    +0.000 C 
BRANCH  26  27
ATOM     27  C   UNL     1      -0.956  11.193  18.009  0.00  0.00    +0.000 C 
BRANCH  27  28
ATOM     28  C   UNL     1      -2.424  11.511  17.957  0.00  0.00    +0.000 C 
ATOM     29  C   UNL     1      -3.201  11.210  16.904  0.00  0.00    +0.000 C 
ATOM     30  C   UNL     1      -2.703  10.530  15.660  0.00  0.00    +0.000 C 
ATOM     31  C   UNL     1      -4.670  11.527  16.898  0.00  0.00    +0.000 C 
ENDBRANCH  27  28
ENDBRANCH  26  27
ENDBRANCH  13  26
TORSDOF 8
ENDMDL
MODEL 6
REMARK VINA RESULT:      -7.3      2.161      7.318
REMARK  Name = 
REMARK  13 active torsions:
REMARK  status: ('A' for Active; 'I' for Inactive)
REMARK    1  A    between atoms: C_1  and  O_2
REMARK    2  A    between atoms: O_2  and  C_3
REMARK    3  A    between atoms: C_3  and  C_5
REMARK    4  A    between atoms: C_7  and  O_8
REMARK    5  A    between atoms: O_8  and  C_9
REMARK    6  A    between atoms: C_12  and  O_13
REMARK    7  A    between atoms: C_17  and  O_18
REMARK    8  A    between atoms: C_21  and  C_22
REMARK    9  A    between atoms: C_21  and  C_23
REMARK   10  A    between atoms: C_23  and  C_24
REMARK   11  A    between atoms: C_24  and  C_25
REMARK   12  A    between atoms: C_26  and  C_27
REMARK   13  A    between atoms: C_26  and  C_28
REMARK                            x       y       z     vdW  Elec       q    Type
REMARK                         _______ _______ _______ _____ _____    ______ ____
ROOT
ATOM      1  C   UNL     1       0.372  10.898  19.179  0.00  0.00    +0.000 A 
ATOM      2  C   UNL     1      -0.259  10.620  20.380  0.00  0.00    +0.000 A 
ATOM      3  C   UNL     1       0.029   9.445  21.091  0.00  0.00    +0.000 A 
ATOM      4  C   UNL     1       0.957   8.485  20.567  0.00  0.00    +0.000 A 
ATOM      5  C   UNL     1       1.268   7.260  21.204  0.00  0.00    +0.000 A 
ATOM      6  C   UNL     1       2.119   6.314  20.656  0.00  0.00    +0.000 A 
ATOM      7  C   UNL     1       2.713   6.533  19.429  0.00  0.00    +0.000 A 
ATOM      8  C   UNL     1       2.495   7.741  18.750  0.00  0.00    +0.000 A 
ATOM      9  C   UNL     1       1.614   8.748  19.314  0.00  0.00    +0.000 A 
ATOM     10  C   UNL     1       1.316   9.994  18.685  0.00  0.00    +0.000 A 
ATOM     11  C   UNL     1       3.154   7.858  17.439  0.00  0.00    +0.000 C 
ATOM     12  C   UNL     1       3.875   6.846  16.948  0.00  0.00    +0.000 C 
ATOM     13  C   UNL     1       4.146   5.591  17.717  0.00  0.00    +0.000 C 
ATOM     14  C   UNL     1       3.635   4.399  16.904  0.00  0.00    +0.000 C 
ATOM     15  O   UNL     1       3.478   5.497  18.977  0.00  0.00    +0.000 OA
ENDROOT
BRANCH   1  16
ATOM     16  C   UNL     1      -0.009  12.087  18.379  0.00  0.00    +0.000 C 
ATOM     17  O   UNL     1      -1.125  12.240  17.906  0.00  0.00    +0.000 OA
BRANCH  16  19
ATOM     18  C   UNL     1       0.859  14.148  19.051  0.00  0.00    +0.000 C 
ATOM     19  O   UNL     1       1.029  12.955  18.279  0.00  0.00    +0.000 OA
ENDBRANCH  16  19
ENDBRANCH   1  16
BRANCH   3  20
ATOM     20  O   UNL     1      -0.724   9.439  22.237  0.00  0.00    +0.000 OA
ATOM     21  C   UNL     1      -0.180   9.605  23.527  0.00  0.00    +0.000 C 
ENDBRANCH   3  20
BRANCH   6  22
ATOM     22  O   UNL     1       2.360   5.138  21.318  0.00  0.00    +0.000 OA
ATOM     23  H   UNL     1       2.412   4.405  20.688  0.00  0.00    +0.000 HD
ENDBRANCH   6  22
BRANCH  10  24
ATOM     24  O   UNL     1       2.012  10.376  17.566  0.00  0.00    +0.000 OA
ATOM     25  H   UNL     1       1.352  10.490  16.853  0.00  0.00    +0.000 HD
ENDBRANCH  10  24
BRANCH  13  26
ATOM     26  C   UNL     1       5.663   5.483  18.014  0.00  0.00    +0.000 C 
BRANCH  26  27
ATOM     27  C   UNL     1       6.341   4.478  17.063  0.00  0.00    +0.000 C 
BRANCH  27  28
ATOM     28  C   UNL     1       7.136   5.074  15.937  0.00  0.00    +0.000 C 
ATOM     29  C   UNL     1       6.921   4.769  14.647  0.00  0.00    +0.000 C 
ATOM     30  C   UNL     1       5.872   3.800  14.177  0.00  0.00    +0.000 C 
ATOM     31  C   UNL     1       7.725   5.402  13.546  0.00  0.00    +0.000 C 
ENDBRANCH  27  28
ENDBRANCH  26  27
ENDBRANCH  13  26
TORSDOF 8
ENDMDL
MODEL 7
REMARK VINA RESULT:      -7.3      1.120      1.517
REMARK  Name = 
REMARK  13 active torsions:
REMARK  status: ('A' for Active; 'I' for Inactive)
REMARK    1  A    between atoms: C_1  and  O_2
REMARK    2  A    between atoms: O_2  and  C_3
REMARK    3  A    between atoms: C_3  and  C_5
REMARK    4  A    between atoms: C_7  and  O_8
REMARK    5  A    between atoms: O_8  and  C_9
REMARK    6  A    between atoms: C_12  and  O_13
REMARK    7  A    between atoms: C_17  and  O_18
REMARK    8  A    between atoms: C_21  and  C_22
REMARK    9  A    between atoms: C_21  and  C_23
REMARK   10  A    between atoms: C_23  and  C_24
REMARK   11  A    between atoms: C_24  and  C_25
REMARK   12  A    between atoms: C_26  and  C_27
REMARK   13  A    between atoms: C_26  and  C_28
REMARK                            x       y       z     vdW  Elec       q    Type
REMARK                         _______ _______ _______ _____ _____    ______ ____
ROOT
ATOM      1  C   UNL     1       3.128   6.537  18.279  0.00  0.00    +0.000 A 
ATOM      2  C   UNL     1       2.858   5.657  19.313  0.00  0.00    +0.000 A 
ATOM      3  C   UNL     1       2.040   6.037  20.389  0.00  0.00    +0.000 A 
ATOM      4  C   UNL     1       1.498   7.363  20.459  0.00  0.00    +0.000 A 
ATOM      5  C   UNL     1       0.700   7.833  21.530  0.00  0.00    +0.000 A 
ATOM      6  C   UNL     1       0.235   9.135  21.616  0.00  0.00    +0.000 A 
ATOM      7  C   UNL     1       0.542  10.055  20.633  0.00  0.00    +0.000 A 
ATOM      8  C   UNL     1       1.291   9.661  19.513  0.00  0.00    +0.000 A 
ATOM      9  C   UNL     1       1.777   8.298  19.402  0.00  0.00    +0.000 A 
ATOM     10  C   UNL     1       2.563   7.815  18.312  0.00  0.00    +0.000 A 
ATOM     11  C   UNL     1       1.584  10.727  18.542  0.00  0.00    +0.000 C 
ATOM     12  C   UNL     1       1.178  11.981  18.764  0.00  0.00    +0.000 C 
ATOM     13  C   UNL     1       0.327  12.365  19.935  0.00  0.00    +0.000 C 
ATOM     14  C   UNL     1       1.056  13.447  20.734  0.00  0.00    +0.000 C 
ATOM     15  O   UNL     1       0.075  11.315  20.870  0.00  0.00    +0.000 OA
ENDROOT
BRANCH   1  16
ATOM     16  C   UNL     1       4.074   6.170  17.198  0.00  0.00    +0.000 C 
ATOM     17  O   UNL     1       4.842   6.971  16.687  0.00  0.00    +0.000 OA
BRANCH  16  19
ATOM     18  C   UNL     1       5.235   4.187  16.789  0.00  0.00    +0.000 C 
ATOM     19  O   UNL     1       3.974   4.852  16.895  0.00  0.00    +0.000 OA
ENDBRANCH  16  19
ENDBRANCH   1  16
BRANCH   3  20
ATOM     20  O   UNL     1       1.935   4.973  21.247  0.00  0.00    +0.000 OA
ATOM     21  C   UNL     1       1.413   3.718  20.873  0.00  0.00    +0.000 C 
ENDBRANCH   3  20
BRANCH   6  22
ATOM     22  O   UNL     1      -0.516   9.529  22.693  0.00  0.00    +0.000 OA
ATOM     23  H   UNL     1      -1.178   8.853  22.903  0.00  0.00    +0.000 HD
ENDBRANCH   6  22
BRANCH  10  24
ATOM     24  O   UNL     1       2.748   8.602  17.204  0.00  0.00    +0.000 OA
ATOM     25  H   UNL     1       3.710   8.612  17.026  0.00  0.00    +0.000 HD
ENDBRANCH  10  24
BRANCH  13  26
ATOM     26  C   UNL     1      -1.057  12.849  19.432  0.00  0.00    +0.000 C 
BRANCH  26  27
ATOM     27  C   UNL     1      -2.010  11.659  19.213  0.00  0.00    +0.000 C 
BRANCH  27  28
ATOM     28  C   UNL     1      -2.779  11.662  17.922  0.00  0.00    +0.000 C 
ATOM     29  C   UNL     1      -2.571  10.766  16.944  0.00  0.00    +0.000 C 
ATOM     30  C   UNL     1      -1.551   9.664  17.018  0.00  0.00    +0.000 C 
ATOM     31  C   UNL     1      -3.375  10.790  15.673  0.00  0.00    +0.000 C 
ENDBRANCH  27  28
ENDBRANCH  26  27
ENDBRANCH  13  26
TORSDOF 8
ENDMDL
MODEL 8
REMARK VINA RESULT:      -7.2      1.739      7.360
REMARK  Name = 
REMARK  13 active torsions:
REMARK  status: ('A' for Active; 'I' for Inactive)
REMARK    1  A    between atoms: C_1  and  O_2
REMARK    2  A    between atoms: O_2  and  C_3
REMARK    3  A    between atoms: C_3  and  C_5
REMARK    4  A    between atoms: C_7  and  O_8
REMARK    5  A    between atoms: O_8  and  C_9
REMARK    6  A    between atoms: C_12  and  O_13
REMARK    7  A    between atoms: C_17  and  O_18
REMARK    8  A    between atoms: C_21  and  C_22
REMARK    9  A    between atoms: C_21  and  C_23
REMARK   10  A    between atoms: C_23  and  C_24
REMARK   11  A    between atoms: C_24  and  C_25
REMARK   12  A    between atoms: C_26  and  C_27
REMARK   13  A    between atoms: C_26  and  C_28
REMARK                            x       y       z     vdW  Elec       q    Type
REMARK                         _______ _______ _______ _____ _____    ______ ____
ROOT
ATOM      1  C   UNL     1       0.290  10.678  19.340  0.00  0.00    +0.000 A 
ATOM      2  C   UNL     1      -0.323  10.335  20.532  0.00  0.00    +0.000 A 
ATOM      3  C   UNL     1       0.010   9.146  21.199  0.00  0.00    +0.000 A 
ATOM      4  C   UNL     1       0.967   8.238  20.636  0.00  0.00    +0.000 A 
ATOM      5  C   UNL     1       1.324   7.002  21.227  0.00  0.00    +0.000 A 
ATOM      6  C   UNL     1       2.204   6.107  20.640  0.00  0.00    +0.000 A 
ATOM      7  C   UNL     1       2.783   6.391  19.419  0.00  0.00    +0.000 A 
ATOM      8  C   UNL     1       2.518   7.614  18.785  0.00  0.00    +0.000 A 
ATOM      9  C   UNL     1       1.607   8.569  19.390  0.00  0.00    +0.000 A 
ATOM     10  C   UNL     1       1.262   9.826  18.808  0.00  0.00    +0.000 A 
ATOM     11  C   UNL     1       3.165   7.802  17.476  0.00  0.00    +0.000 C 
ATOM     12  C   UNL     1       3.917   6.834  16.945  0.00  0.00    +0.000 C 
ATOM     13  C   UNL     1       4.236   5.561  17.667  0.00  0.00    +0.000 C 
ATOM     14  C   UNL     1       3.762   4.383  16.813  0.00  0.00    +0.000 C 
ATOM     15  O   UNL     1       3.580   5.399  18.925  0.00  0.00    +0.000 OA
ENDROOT
BRANCH   1  16
ATOM     16  C   UNL     1      -0.136  11.881  18.585  0.00  0.00    +0.000 C 
ATOM     17  O   UNL     1       0.654  12.675  18.098  0.00  0.00    +0.000 OA
BRANCH  16  19
ATOM     18  C   UNL     1      -2.014  11.497  17.252  0.00  0.00    +0.000 C 
ATOM     19  O   UNL     1      -1.489  11.946  18.504  0.00  0.00    +0.000 OA
ENDBRANCH  16  19
ENDBRANCH   1  16
BRANCH   3  20
ATOM     20  O   UNL     1      -0.735   9.072  22.348  0.00  0.00    +0.000 OA
ATOM     21  C   UNL     1      -0.573   9.951  23.439  0.00  0.00    +0.000 C 
ENDBRANCH   3  20
BRANCH   6  22
ATOM     22  O   UNL     1       2.490   4.917  21.258  0.00  0.00    +0.000 OA
ATOM     23  H   UNL     1       2.243   4.960  22.194  0.00  0.00    +0.000 HD
ENDBRANCH   6  22
BRANCH  10  24
ATOM     24  O   UNL     1       1.937  10.272  17.700  0.00  0.00    +0.000 OA
ATOM     25  H   UNL     1       1.980   9.518  17.078  0.00  0.00    +0.000 HD
ENDBRANCH  10  24
BRANCH  13  26
ATOM     26  C   UNL     1       5.759   5.496  17.952  0.00  0.00    +0.000 C 
BRANCH  26  27
ATOM     27  C   UNL     1       6.451   4.484  17.019  0.00  0.00    +0.000 C 
BRANCH  27  28
ATOM     28  C   UNL     1       7.237   5.073  15.881  0.00  0.00    +0.000 C 
ATOM     29  C   UNL     1       7.009   4.760  14.595  0.00  0.00    +0.000 C 
ATOM     30  C   UNL     1       5.955   3.789  14.142  0.00  0.00    +0.000 C 
ATOM     31  C   UNL     1       7.804   5.385  13.483  0.00  0.00    +0.000 C 
ENDBRANCH  27  28
ENDBRANCH  26  27
ENDBRANCH  13  26
TORSDOF 8
ENDMDL
MODEL 9
REMARK VINA RESULT:      -7.2      2.232      7.234
REMARK  Name = 
REMARK  13 active torsions:
REMARK  status: ('A' for Active; 'I' for Inactive)
REMARK    1  A    between atoms: C_1  and  O_2
REMARK    2  A    between atoms: O_2  and  C_3
REMARK    3  A    between atoms: C_3  and  C_5
REMARK    4  A    between atoms: C_7  and  O_8
REMARK    5  A    between atoms: O_8  and  C_9
REMARK    6  A    between atoms: C_12  and  O_13
REMARK    7  A    between atoms: C_17  and  O_18
REMARK    8  A    between atoms: C_21  and  C_22
REMARK    9  A    between atoms: C_21  and  C_23
REMARK   10  A    between atoms: C_23  and  C_24
REMARK   11  A    between atoms: C_24  and  C_25
REMARK   12  A    between atoms: C_26  and  C_27
REMARK   13  A    between atoms: C_26  and  C_28
REMARK                            x       y       z     vdW  Elec       q    Type
REMARK                         _______ _______ _______ _____ _____    ______ ____
ROOT
ATOM      1  C   UNL     1       0.798  10.381  19.375  0.00  0.00    +0.000 A 
ATOM      2  C   UNL     1       0.112  10.116  20.548  0.00  0.00    +0.000 A 
ATOM      3  C   UNL     1       0.274   8.894  21.219  0.00  0.00    +0.000 A 
ATOM      4  C   UNL     1       1.126   7.874  20.680  0.00  0.00    +0.000 A 
ATOM      5  C   UNL     1       1.309   6.603  21.276  0.00  0.00    +0.000 A 
ATOM      6  C   UNL     1       2.086   5.605  20.711  0.00  0.00    +0.000 A 
ATOM      7  C   UNL     1       2.731   5.814  19.509  0.00  0.00    +0.000 A 
ATOM      8  C   UNL     1       2.640   7.062  18.872  0.00  0.00    +0.000 A 
ATOM      9  C   UNL     1       1.839   8.123  19.455  0.00  0.00    +0.000 A 
ATOM     10  C   UNL     1       1.671   9.413  18.868  0.00  0.00    +0.000 A 
ATOM     11  C   UNL     1       3.343   7.167  17.583  0.00  0.00    +0.000 C 
ATOM     12  C   UNL     1       3.983   6.113  17.069  0.00  0.00    +0.000 C 
ATOM     13  C   UNL     1       4.119   4.810  17.795  0.00  0.00    +0.000 C 
ATOM     14  C   UNL     1       3.527   3.701  16.923  0.00  0.00    +0.000 C 
ATOM     15  O   UNL     1       3.411   4.731  19.034  0.00  0.00    +0.000 OA
ENDROOT
BRANCH   1  16
ATOM     16  C   UNL     1       0.548  11.628  18.614  0.00  0.00    +0.000 C 
ATOM     17  O   UNL     1      -0.566  11.970  18.247  0.00  0.00    +0.000 OA
BRANCH  16  19
ATOM     18  C   UNL     1       1.562  13.730  18.567  0.00  0.00    +0.000 C 
ATOM     19  O   UNL     1       1.702  12.314  18.418  0.00  0.00    +0.000 OA
ENDBRANCH  16  19
ENDBRANCH   1  16
BRANCH   3  20
ATOM     20  O   UNL     1      -0.507   8.914  22.346  0.00  0.00    +0.000 OA
ATOM     21  C   UNL     1      -0.748  10.076  23.107  0.00  0.00    +0.000 C 
ENDBRANCH   3  20
BRANCH   6  22
ATOM     22  O   UNL     1       2.202   4.388  21.332  0.00  0.00    +0.000 OA
ATOM     23  H   UNL     1       1.749   4.405  22.187  0.00  0.00    +0.000 HD
ENDBRANCH   6  22
BRANCH  10  24
ATOM     24  O   UNL     1       2.428   9.772  17.782  0.00  0.00    +0.000 OA
ATOM     25  H   UNL     1       2.832   8.949  17.440  0.00  0.00    +0.000 HD
ENDBRANCH  10  24
BRANCH  13  26
ATOM     26  C   UNL     1       5.613   4.554  18.124  0.00  0.00    +0.000 C 
BRANCH  26  27
ATOM     27  C   UNL     1       6.513   4.951  16.939  0.00  0.00    +0.000 C 
BRANCH  27  28
ATOM     28  C   UNL     1       6.963   6.384  16.908  0.00  0.00    +0.000 C 
ATOM     29  C   UNL     1       7.657   6.956  17.906  0.00  0.00    +0.000 C 
ATOM     30  C   UNL     1       8.058   6.241  19.165  0.00  0.00    +0.000 C 
ATOM     31  C   UNL     1       8.107   8.388  17.829  0.00  0.00    +0.000 C 
ENDBRANCH  27  28
ENDBRANCH  26  27
ENDBRANCH  13  26
TORSDOF 8
ENDMDL
