MODEL 1
REMARK VINA RESULT:      -8.5      0.000      0.000
REMARK  Name = 
REMARK  4 active torsions:
REMARK  status: ('A' for Active; 'I' for Inactive)
REMARK    1  A    between atoms: C_1  and  C_2
REMARK    2  A    between atoms: C_8  and  C_9
REMARK    3  A    between atoms: C_11  and  C_12
REMARK    4  A    between atoms: C_14  and  C_15
REMARK                            x       y       z     vdW  Elec       q    Type
REMARK                         _______ _______ _______ _____ _____    ______ ____
ROOT
ATOM      1  C   UNL     1       4.264   4.936  19.273  0.00  0.00    +0.000 A 
ATOM      2  N   UNL     1       3.703   3.961  20.018  0.00  0.00    +0.000 NA
ATOM      3  C   UNL     1       2.509   4.224  20.579  0.00  0.00    +0.000 A 
ATOM      4  C   UNL     1       1.863   3.137  21.384  0.00  0.00    +0.000 C 
ATOM      5  C   UNL     1       1.886   5.444  20.443  0.00  0.00    +0.000 A 
ATOM      6  C   UNL     1       2.545   6.417  19.708  0.00  0.00    +0.000 A 
ATOM      7  N   UNL     1       3.738   6.175  19.120  0.00  0.00    +0.000 NA
ENDROOT
BRANCH   1  15
ATOM      8  C   UNL     1       5.744   4.506  14.885  0.00  0.00    +0.000 C 
ATOM      9  C   UNL     1       5.314   4.193  16.295  0.00  0.00    +0.000 C 
ATOM     10  O   UNL     1       4.586   3.230  16.528  0.00  0.00    +0.000 OA
ATOM     11  N   UNL     1       5.830   4.989  17.288  0.00  0.00    +0.000 N 
ATOM     12  C   UNL     1       6.715   6.127  17.150  0.00  0.00    +0.000 C 
ATOM     13  C   UNL     1       7.634   5.994  18.348  0.00  0.00    +0.000 C 
ATOM     14  C   UNL     1       6.720   5.454  19.444  0.00  0.00    +0.000 C 
ATOM     15  C   UNL     1       5.645   4.640  18.700  0.00  0.00    +0.000 C 
ENDBRANCH   1  15
BRANCH   6  16
ATOM     16  C   UNL     1       1.973   7.768  19.524  0.00  0.00    +0.000 A 
ATOM     17  C   UNL     1       1.294   8.431  20.569  0.00  0.00    +0.000 A 
ATOM     18  C   UNL     1       0.698   9.681  20.375  0.00  0.00    +0.000 A 
ATOM     19  C   UNL     1       0.782  10.292  19.134  0.00  0.00    +0.000 A 
ATOM     20  F   UNL     1       0.196  11.481  18.944  0.00  0.00    +0.000 F 
ATOM     21  C   UNL     1       1.464   9.684  18.089  0.00  0.00    +0.000 A 
ATOM     22  C   UNL     1       2.059   8.432  18.285  0.00  0.00    +0.000 A 
ENDBRANCH   6  16
TORSDOF 2
ENDMDL
MODEL 2
REMARK VINA RESULT:      -8.5      0.093      1.032
REMARK  Name = 
REMARK  4 active torsions:
REMARK  status: ('A' for Active; 'I' for Inactive)
REMARK    1  A    between atoms: C_1  and  C_2
REMARK    2  A    between atoms: C_8  and  C_9
REMARK    3  A    between atoms: C_11  and  C_12
REMARK    4  A    between atoms: C_14  and  C_15
REMARK                            x       y       z     vdW  Elec       q    Type
REMARK                         _______ _______ _______ _____ _____    ______ ____
ROOT
ATOM      1  C   UNL     1       4.254   4.939  19.254  0.00  0.00    +0.000 A 
ATOM      2  N   UNL     1       3.702   3.961  20.004  0.00  0.00    +0.000 NA
ATOM      3  C   UNL     1       2.510   4.218  20.570  0.00  0.00    +0.000 A 
ATOM      4  C   UNL     1       1.874   3.129  21.379  0.00  0.00    +0.000 C 
ATOM      5  C   UNL     1       1.879   5.434  20.434  0.00  0.00    +0.000 A 
ATOM      6  C   UNL     1       2.528   6.409  19.695  0.00  0.00    +0.000 A 
ATOM      7  N   UNL     1       3.719   6.174  19.102  0.00  0.00    +0.000 NA
ENDROOT
BRANCH   1  15
ATOM      8  C   UNL     1       5.727   4.561  14.859  0.00  0.00    +0.000 C 
ATOM      9  C   UNL     1       5.300   4.231  16.266  0.00  0.00    +0.000 C 
ATOM     10  O   UNL     1       4.573   3.265  16.489  0.00  0.00    +0.000 OA
ATOM     11  N   UNL     1       5.817   5.016  17.267  0.00  0.00    +0.000 N 
ATOM     12  C   UNL     1       6.701   6.157  17.141  0.00  0.00    +0.000 C 
ATOM     13  C   UNL     1       7.622   6.010  18.336  0.00  0.00    +0.000 C 
ATOM     14  C   UNL     1       6.710   5.456  19.428  0.00  0.00    +0.000 C 
ATOM     15  C   UNL     1       5.635   4.651  18.675  0.00  0.00    +0.000 C 
ENDBRANCH   1  15
BRANCH   6  16
ATOM     16  C   UNL     1       1.946   7.756  19.510  0.00  0.00    +0.000 A 
ATOM     17  C   UNL     1       2.040   8.439  18.278  0.00  0.00    +0.000 A 
ATOM     18  C   UNL     1       1.546   9.738  18.124  0.00  0.00    +0.000 A 
ATOM     19  C   UNL     1       0.940  10.370  19.199  0.00  0.00    +0.000 A 
ATOM     20  F   UNL     1       0.482  11.620  19.054  0.00  0.00    +0.000 F 
ATOM     21  C   UNL     1       0.804   9.722  20.418  0.00  0.00    +0.000 A 
ATOM     22  C   UNL     1       1.300   8.422  20.571  0.00  0.00    +0.000 A 
ENDBRANCH   6  16
TORSDOF 2
ENDMDL
MODEL 3
REMARK VINA RESULT:      -8.3      3.415      6.773
REMARK  Name = 
REMARK  4 active torsions:
REMARK  status: ('A' for Active; 'I' for Inactive)
REMARK    1  A    between atoms: C_1  and  C_2
REMARK    2  A    between atoms: C_8  and  C_9
REMARK    3  A    between atoms: C_11  and  C_12
REMARK    4  A    between atoms: C_14  and  C_15
REMARK                            x       y       z     vdW  Elec       q    Type
REMARK                         _______ _______ _______ _____ _____    ______ ____
ROOT
ATOM      1  C   UNL     1       4.368   5.471  17.910  0.00  0.00    +0.000 A 
ATOM      2  N   UNL     1       5.285   5.570  18.896  0.00  0.00    +0.000 NA
ATOM      3  C   UNL     1       6.578   5.445  18.550  0.00  0.00    +0.000 A 
ATOM      4  C   UNL     1       7.605   5.584  19.632  0.00  0.00    +0.000 C 
ATOM      5  C   UNL     1       6.970   5.188  17.256  0.00  0.00    +0.000 A 
ATOM      6  C   UNL     1       5.973   5.045  16.304  0.00  0.00    +0.000 A 
ATOM      7  N   UNL     1       4.666   5.181  16.620  0.00  0.00    +0.000 NA
ENDROOT
BRANCH   1  15
ATOM      8  C   UNL     1       1.242   2.149  18.812  0.00  0.00    +0.000 C 
ATOM      9  C   UNL     1       2.004   3.262  18.141  0.00  0.00    +0.000 C 
ATOM     10  O   UNL     1       2.236   3.224  16.935  0.00  0.00    +0.000 OA
ATOM     11  N   UNL     1       2.353   4.331  18.929  0.00  0.00    +0.000 N 
ATOM     12  C   UNL     1       2.115   4.511  20.346  0.00  0.00    +0.000 C 
ATOM     13  C   UNL     1       1.802   5.990  20.456  0.00  0.00    +0.000 C 
ATOM     14  C   UNL     1       2.720   6.630  19.417  0.00  0.00    +0.000 C 
ATOM     15  C   UNL     1       2.906   5.552  18.334  0.00  0.00    +0.000 C 
ENDBRANCH   1  15
BRANCH   6  16
ATOM     16  C   UNL     1       6.289   4.743  14.891  0.00  0.00    +0.000 A 
ATOM     17  C   UNL     1       5.506   3.843  14.136  0.00  0.00    +0.000 A 
ATOM     18  C   UNL     1       5.842   3.509  12.820  0.00  0.00    +0.000 A 
ATOM     19  C   UNL     1       6.963   4.079  12.237  0.00  0.00    +0.000 A 
ATOM     20  F   UNL     1       7.293   3.746  10.982  0.00  0.00    +0.000 F 
ATOM     21  C   UNL     1       7.743   4.988  12.937  0.00  0.00    +0.000 A 
ATOM     22  C   UNL     1       7.405   5.320  14.255  0.00  0.00    +0.000 A 
ENDBRANCH   6  16
TORSDOF 2
ENDMDL
MODEL 4
REMARK VINA RESULT:      -8.2      3.395      6.784
REMARK  Name = 
REMARK  4 active torsions:
REMARK  status: ('A' for Active; 'I' for Inactive)
REMARK    1  A    between atoms: C_1  and  C_2
REMARK    2  A    between atoms: C_8  and  C_9
REMARK    3  A    between atoms: C_11  and  C_12
REMARK    4  A    between atoms: C_14  and  C_15
REMARK                            x       y       z     vdW  Elec       q    Type
REMARK                         _______ _______ _______ _____ _____    ______ ____
ROOT
ATOM      1  C   UNL     1       4.422   5.453  17.901  0.00  0.00    +0.000 A 
ATOM      2  N   UNL     1       5.320   5.556  18.903  0.00  0.00    +0.000 NA
ATOM      3  C   UNL     1       6.619   5.419  18.583  0.00  0.00    +0.000 A 
ATOM      4  C   UNL     1       7.627   5.562  19.683  0.00  0.00    +0.000 C 
ATOM      5  C   UNL     1       7.034   5.148  17.299  0.00  0.00    +0.000 A 
ATOM      6  C   UNL     1       6.054   5.003  16.330  0.00  0.00    +0.000 A 
ATOM      7  N   UNL     1       4.743   5.150  16.620  0.00  0.00    +0.000 NA
ENDROOT
BRANCH   1  15
ATOM      8  C   UNL     1       1.265   2.159  18.799  0.00  0.00    +0.000 C 
ATOM      9  C   UNL     1       2.044   3.258  18.125  0.00  0.00    +0.000 C 
ATOM     10  O   UNL     1       2.298   3.199  16.924  0.00  0.00    +0.000 OA
ATOM     11  N   UNL     1       2.384   4.339  18.901  0.00  0.00    +0.000 N 
ATOM     12  C   UNL     1       2.120   4.543  20.311  0.00  0.00    +0.000 C 
ATOM     13  C   UNL     1       1.812   6.025  20.390  0.00  0.00    +0.000 C 
ATOM     14  C   UNL     1       2.752   6.644  19.358  0.00  0.00    +0.000 C 
ATOM     15  C   UNL     1       2.952   5.547  18.296  0.00  0.00    +0.000 C 
ENDBRANCH   1  15
BRANCH   6  16
ATOM     16  C   UNL     1       6.395   4.685  14.926  0.00  0.00    +0.000 A 
ATOM     17  C   UNL     1       7.487   5.299  14.274  0.00  0.00    +0.000 A 
ATOM     18  C   UNL     1       7.769   5.046  12.928  0.00  0.00    +0.000 A 
ATOM     19  C   UNL     1       6.968   4.167  12.216  0.00  0.00    +0.000 A 
ATOM     20  F   UNL     1       7.229   3.938  10.923  0.00  0.00    +0.000 F 
ATOM     21  C   UNL     1       5.902   3.523  12.829  0.00  0.00    +0.000 A 
ATOM     22  C   UNL     1       5.620   3.779  14.176  0.00  0.00    +0.000 A 
ENDBRANCH   6  16
TORSDOF 2
ENDMDL
MODEL 5
REMARK VINA RESULT:      -7.7      3.314      6.922
REMARK  Name = 
REMARK  4 active torsions:
REMARK  status: ('A' for Active; 'I' for Inactive)
REMARK    1  A    between atoms: C_1  and  C_2
REMARK    2  A    between atoms: C_8  and  C_9
REMARK    3  A    between atoms: C_11  and  C_12
REMARK    4  A    between atoms: C_14  and  C_15
REMARK                            x       y       z     vdW  Elec       q    Type
REMARK                         _______ _______ _______ _____ _____    ______ ____
ROOT
ATOM      1  C   UNL     1       4.415   5.973  17.607  0.00  0.00    +0.000 A 
ATOM      2  N   UNL     1       5.281   5.961  18.642  0.00  0.00    +0.000 NA
ATOM      3  C   UNL     1       6.553   5.619  18.376  0.00  0.00    +0.000 A 
ATOM      4  C   UNL     1       7.531   5.632  19.511  0.00  0.00    +0.000 C 
ATOM      5  C   UNL     1       6.968   5.254  17.114  0.00  0.00    +0.000 A 
ATOM      6  C   UNL     1       6.013   5.236  16.110  0.00  0.00    +0.000 A 
ATOM      7  N   UNL     1       4.730   5.591  16.346  0.00  0.00    +0.000 NA
ENDROOT
BRANCH   1  15
ATOM      8  C   UNL     1       1.334   3.830  20.354  0.00  0.00    +0.000 C 
ATOM      9  C   UNL     1       2.071   4.337  19.141  0.00  0.00    +0.000 C 
ATOM     10  O   UNL     1       2.270   3.601  18.177  0.00  0.00    +0.000 OA
ATOM     11  N   UNL     1       2.435   5.661  19.150  0.00  0.00    +0.000 N 
ATOM     12  C   UNL     1       2.235   6.635  20.204  0.00  0.00    +0.000 C 
ATOM     13  C   UNL     1       1.916   7.905  19.440  0.00  0.00    +0.000 C 
ATOM     14  C   UNL     1       2.802   7.811  18.200  0.00  0.00    +0.000 C 
ATOM     15  C   UNL     1       2.964   6.301  17.942  0.00  0.00    +0.000 C 
ENDBRANCH   1  15
BRANCH   6  16
ATOM     16  C   UNL     1       6.350   4.835  14.728  0.00  0.00    +0.000 A 
ATOM     17  C   UNL     1       5.583   3.879  14.028  0.00  0.00    +0.000 A 
ATOM     18  C   UNL     1       5.940   3.453  12.745  0.00  0.00    +0.000 A 
ATOM     19  C   UNL     1       7.066   3.987  12.138  0.00  0.00    +0.000 A 
ATOM     20  F   UNL     1       7.416   3.566  10.915  0.00  0.00    +0.000 F 
ATOM     21  C   UNL     1       7.831   4.948  12.782  0.00  0.00    +0.000 A 
ATOM     22  C   UNL     1       7.473   5.372  14.068  0.00  0.00    +0.000 A 
ENDBRANCH   6  16
TORSDOF 2
ENDMDL
MODEL 6
REMARK VINA RESULT:      -7.4      3.817      6.986
REMARK  Name = 
REMARK  4 active torsions:
REMARK  status: ('A' for Active; 'I' for Inactive)
REMARK    1  A    between atoms: C_1  and  C_2
REMARK    2  A    between atoms: C_8  and  C_9
REMARK    3  A    between atoms: C_11  and  C_12
REMARK    4  A    between atoms: C_14  and  C_15
REMARK                            x       y       z     vdW  Elec       q    Type
REMARK                         _______ _______ _______ _____ _____    ______ ____
ROOT
ATOM      1  C   UNL     1       5.081   3.888  18.284  0.00  0.00    +0.000 A 
ATOM      2  N   UNL     1       5.930   4.477  19.152  0.00  0.00    +0.000 NA
ATOM      3  C   UNL     1       6.986   5.128  18.634  0.00  0.00    +0.000 A 
ATOM      4  C   UNL     1       7.919   5.813  19.587  0.00  0.00    +0.000 C 
ATOM      5  C   UNL     1       7.230   5.173  17.280  0.00  0.00    +0.000 A 
ATOM      6  C   UNL     1       6.346   4.500  16.451  0.00  0.00    +0.000 A 
ATOM      7  N   UNL     1       5.268   3.851  16.943  0.00  0.00    +0.000 NA
ENDROOT
BRANCH   1  15
ATOM      8  C   UNL     1       1.150   5.289  20.337  0.00  0.00    +0.000 C 
ATOM      9  C   UNL     1       2.534   4.742  20.103  0.00  0.00    +0.000 C 
ATOM     10  O   UNL     1       3.462   5.046  20.850  0.00  0.00    +0.000 OA
ATOM     11  N   UNL     1       2.678   3.847  19.072  0.00  0.00    +0.000 N 
ATOM     12  C   UNL     1       1.666   3.386  18.144  0.00  0.00    +0.000 C 
ATOM     13  C   UNL     1       2.020   1.924  17.950  0.00  0.00    +0.000 C 
ATOM     14  C   UNL     1       3.546   1.916  17.988  0.00  0.00    +0.000 C 
ATOM     15  C   UNL     1       3.927   3.100  18.895  0.00  0.00    +0.000 C 
ENDBRANCH   1  15
BRANCH   6  16
ATOM     16  C   UNL     1       6.534   4.466  14.985  0.00  0.00    +0.000 A 
ATOM     17  C   UNL     1       5.739   3.642  14.158  0.00  0.00    +0.000 A 
ATOM     18  C   UNL     1       5.960   3.562  12.779  0.00  0.00    +0.000 A 
ATOM     19  C   UNL     1       6.973   4.314  12.206  0.00  0.00    +0.000 A 
ATOM     20  F   UNL     1       7.194   4.224  10.888  0.00  0.00    +0.000 F 
ATOM     21  C   UNL     1       7.758   5.156  12.980  0.00  0.00    +0.000 A 
ATOM     22  C   UNL     1       7.536   5.234  14.361  0.00  0.00    +0.000 A 
ENDBRANCH   6  16
TORSDOF 2
ENDMDL
MODEL 7
REMARK VINA RESULT:      -7.3      1.893      4.074
REMARK  Name = 
REMARK  4 active torsions:
REMARK  status: ('A' for Active; 'I' for Inactive)
REMARK    1  A    between atoms: C_1  and  C_2
REMARK    2  A    between atoms: C_8  and  C_9
REMARK    3  A    between atoms: C_11  and  C_12
REMARK    4  A    between atoms: C_14  and  C_15
REMARK                            x       y       z     vdW  Elec       q    Type
REMARK                         _______ _______ _______ _____ _____    ______ ____
ROOT
ATOM      1  C   UNL     1       3.122   4.908  18.036  0.00  0.00    +0.000 A 
ATOM      2  N   UNL     1       4.174   5.107  17.213  0.00  0.00    +0.000 NA
ATOM      3  C   UNL     1       4.528   6.380  16.965  0.00  0.00    +0.000 A 
ATOM      4  C   UNL     1       5.714   6.613  16.078  0.00  0.00    +0.000 C 
ATOM      5  C   UNL     1       3.838   7.450  17.487  0.00  0.00    +0.000 A 
ATOM      6  C   UNL     1       2.736   7.172  18.280  0.00  0.00    +0.000 A 
ATOM      7  N   UNL     1       2.366   5.903  18.559  0.00  0.00    +0.000 NA
ENDROOT
BRANCH   1  15
ATOM      8  C   UNL     1       4.413   1.768  21.214  0.00  0.00    +0.000 C 
ATOM      9  C   UNL     1       4.258   2.524  19.920  0.00  0.00    +0.000 C 
ATOM     10  O   UNL     1       5.227   2.721  19.190  0.00  0.00    +0.000 OA
ATOM     11  N   UNL     1       2.985   2.910  19.580  0.00  0.00    +0.000 N 
ATOM     12  C   UNL     1       1.763   2.715  20.333  0.00  0.00    +0.000 C 
ATOM     13  C   UNL     1       0.738   2.424  19.253  0.00  0.00    +0.000 C 
ATOM     14  C   UNL     1       1.172   3.319  18.095  0.00  0.00    +0.000 C 
ATOM     15  C   UNL     1       2.697   3.459  18.252  0.00  0.00    +0.000 C 
ENDBRANCH   1  15
BRANCH   6  16
ATOM     16  C   UNL     1       1.912   8.251  18.867  0.00  0.00    +0.000 A 
ATOM     17  C   UNL     1       1.572   8.257  20.237  0.00  0.00    +0.000 A 
ATOM     18  C   UNL     1       0.740   9.242  20.779  0.00  0.00    +0.000 A 
ATOM     19  C   UNL     1       0.245  10.243  19.958  0.00  0.00    +0.000 A 
ATOM     20  F   UNL     1      -0.565  11.177  20.474  0.00  0.00    +0.000 F 
ATOM     21  C   UNL     1       0.578  10.287  18.612  0.00  0.00    +0.000 A 
ATOM     22  C   UNL     1       1.410   9.299  18.071  0.00  0.00    +0.000 A 
ENDBRANCH   6  16
TORSDOF 2
ENDMDL
MODEL 8
REMARK VINA RESULT:      -7.3      3.233      6.228
REMARK  Name = 
REMARK  4 active torsions:
REMARK  status: ('A' for Active; 'I' for Inactive)
REMARK    1  A    between atoms: C_1  and  C_2
REMARK    2  A    between atoms: C_8  and  C_9
REMARK    3  A    between atoms: C_11  and  C_12
REMARK    4  A    between atoms: C_14  and  C_15
REMARK                            x       y       z     vdW  Elec       q    Type
REMARK                         _______ _______ _______ _____ _____    ______ ____
ROOT
ATOM      1  C   UNL     1       2.158   7.151  19.956  0.00  0.00    +0.000 A 
ATOM      2  N   UNL     1       1.511   6.145  20.582  0.00  0.00    +0.000 NA
ATOM      3  C   UNL     1       1.766   4.894  20.163  0.00  0.00    +0.000 A 
ATOM      4  C   UNL     1       1.076   3.767  20.871  0.00  0.00    +0.000 C 
ATOM      5  C   UNL     1       2.619   4.630  19.115  0.00  0.00    +0.000 A 
ATOM      6  C   UNL     1       3.207   5.713  18.484  0.00  0.00    +0.000 A 
ATOM      7  N   UNL     1       2.982   6.981  18.894  0.00  0.00    +0.000 NA
ENDROOT
BRANCH   1  15
ATOM      8  C   UNL     1      -0.667  10.348  18.106  0.00  0.00    +0.000 C 
ATOM      9  C   UNL     1       0.564   9.592  18.535  0.00  0.00    +0.000 C 
ATOM     10  O   UNL     1       1.520   9.468  17.772  0.00  0.00    +0.000 OA
ATOM     11  N   UNL     1       0.581   9.123  19.825  0.00  0.00    +0.000 N 
ATOM     12  C   UNL     1      -0.461   9.228  20.827  0.00  0.00    +0.000 C 
ATOM     13  C   UNL     1       0.317   9.457  22.108  0.00  0.00    +0.000 C 
ATOM     14  C   UNL     1       1.569   8.602  21.925  0.00  0.00    +0.000 C 
ATOM     15  C   UNL     1       1.806   8.565  20.405  0.00  0.00    +0.000 C 
ENDBRANCH   1  15
BRANCH   6  16
ATOM     16  C   UNL     1       4.119   5.538  17.332  0.00  0.00    +0.000 A 
ATOM     17  C   UNL     1       4.614   6.644  16.607  0.00  0.00    +0.000 A 
ATOM     18  C   UNL     1       5.424   6.474  15.480  0.00  0.00    +0.000 A 
ATOM     19  C   UNL     1       5.760   5.194  15.068  0.00  0.00    +0.000 A 
ATOM     20  F   UNL     1       6.522   5.032  13.978  0.00  0.00    +0.000 F 
ATOM     21  C   UNL     1       5.315   4.083  15.769  0.00  0.00    +0.000 A 
ATOM     22  C   UNL     1       4.503   4.254  16.897  0.00  0.00    +0.000 A 
ENDBRANCH   6  16
TORSDOF 2
ENDMDL
MODEL 9
REMARK VINA RESULT:      -7.3      3.245      6.219
REMARK  Name = 
REMARK  4 active torsions:
REMARK  status: ('A' for Active; 'I' for Inactive)
REMARK    1  A    between atoms: C_1  and  C_2
REMARK    2  A    between atoms: C_8  and  C_9
REMARK    3  A    between atoms: C_11  and  C_12
REMARK    4  A    between atoms: C_14  and  C_15
REMARK                            x       y       z     vdW  Elec       q    Type
REMARK                         _______ _______ _______ _____ _____    ______ ____
ROOT
ATOM      1  C   UNL     1       2.158   7.152  19.966  0.00  0.00    +0.000 A 
ATOM      2  N   UNL     1       1.535   6.142  20.611  0.00  0.00    +0.000 NA
ATOM      3  C   UNL     1       1.788   4.892  20.186  0.00  0.00    +0.000 A 
ATOM      4  C   UNL     1       1.126   3.762  20.914  0.00  0.00    +0.000 C 
ATOM      5  C   UNL     1       2.614   4.632  19.116  0.00  0.00    +0.000 A 
ATOM      6  C   UNL     1       3.177   5.719  18.467  0.00  0.00    +0.000 A 
ATOM      7  N   UNL     1       2.954   6.986  18.882  0.00  0.00    +0.000 NA
ENDROOT
BRANCH   1  15
ATOM      8  C   UNL     1      -0.675  10.357  18.142  0.00  0.00    +0.000 C 
ATOM      9  C   UNL     1       0.558   9.600  18.562  0.00  0.00    +0.000 C 
ATOM     10  O   UNL     1       1.511   9.478  17.795  0.00  0.00    +0.000 OA
ATOM     11  N   UNL     1       0.580   9.125  19.851  0.00  0.00    +0.000 N 
ATOM     12  C   UNL     1      -0.456   9.226  20.857  0.00  0.00    +0.000 C 
ATOM     13  C   UNL     1       0.328   9.449  22.136  0.00  0.00    +0.000 C 
ATOM     14  C   UNL     1       1.578   8.595  21.944  0.00  0.00    +0.000 C 
ATOM     15  C   UNL     1       1.809   8.564  20.422  0.00  0.00    +0.000 C 
ENDBRANCH   1  15
BRANCH   6  16
ATOM     16  C   UNL     1       4.057   5.549  17.291  0.00  0.00    +0.000 A 
ATOM     17  C   UNL     1       4.429   4.268  16.827  0.00  0.00    +0.000 A 
ATOM     18  C   UNL     1       5.313   4.109  15.755  0.00  0.00    +0.000 A 
ATOM     19  C   UNL     1       5.830   5.230  15.124  0.00  0.00    +0.000 A 
ATOM     20  F   UNL     1       6.689   5.076  14.108  0.00  0.00    +0.000 F 
ATOM     21  C   UNL     1       5.467   6.505  15.533  0.00  0.00    +0.000 A 
ATOM     22  C   UNL     1       4.583   6.663  16.608  0.00  0.00    +0.000 A 
ENDBRANCH   6  16
TORSDOF 2
ENDMDL
