MODEL 1
REMARK VINA RESULT:      -7.4      0.000      0.000
REMARK  Name = 
REMARK  4 active torsions:
REMARK  status: ('A' for Active; 'I' for Inactive)
REMARK    1  A    between atoms: C_1  and  O_2
REMARK    2  A    between atoms: O_2  and  C_3
REMARK    3  A    between atoms: C_6  and  C_7
REMARK    4  A    between atoms: C_8  and  C_9
REMARK                            x       y       z     vdW  Elec       q    Type
REMARK                         _______ _______ _______ _____ _____    ______ ____
ROOT
ATOM      1  C   UNL     1       2.878   7.187  17.854  0.00  0.00    +0.000 C 
ATOM      2  C   UNL     1       4.012   7.466  17.196  0.00  0.00    +0.000 C 
ENDROOT
BRANCH   2   3
ATOM      3  C   UNL     1       5.163   6.591  16.975  0.00  0.00    +0.000 A 
ATOM      4  C   UNL     1       6.129   6.425  17.971  0.00  0.00    +0.000 A 
ATOM      5  C   UNL     1       7.139   5.474  17.810  0.00  0.00    +0.000 A 
ATOM      6 CL   UNL     1       8.299   5.243  19.061  0.00  0.00    +0.000 Cl
ATOM      7  C   UNL     1       7.201   4.689  16.662  0.00  0.00    +0.000 A 
ATOM      8  C   UNL     1       6.247   4.871  15.663  0.00  0.00    +0.000 A 
ATOM      9 CL   UNL     1       6.299   3.892  14.248  0.00  0.00    +0.000 Cl
ATOM     10  C   UNL     1       5.232   5.817  15.811  0.00  0.00    +0.000 A 
ENDBRANCH   2   3
BRANCH   1  14
ATOM     11  C   UNL     1       1.520   3.672  19.857  0.00  0.00    +0.000 A 
ATOM     12  C   UNL     1       2.163   4.686  20.570  0.00  0.00    +0.000 A 
ATOM     13  C   UNL     1       2.648   5.822  19.913  0.00  0.00    +0.000 A 
ATOM     14  C   UNL     1       2.505   5.943  18.529  0.00  0.00    +0.000 A 
ATOM     15  C   UNL     1       1.905   4.907  17.809  0.00  0.00    +0.000 A 
ATOM     16  C   UNL     1       1.415   3.773  18.469  0.00  0.00    +0.000 A 
BRANCH  11  18
ATOM     17  C   UNL     1       1.590   2.537  21.928  0.00  0.00    +0.000 C 
ATOM     18  O   UNL     1       1.065   2.621  20.606  0.00  0.00    +0.000 OA
ENDBRANCH  11  18
ENDBRANCH   1  14
TORSDOF 3
ENDMDL
MODEL 2
REMARK VINA RESULT:      -7.3      0.376      2.428
REMARK  Name = 
REMARK  4 active torsions:
REMARK  status: ('A' for Active; 'I' for Inactive)
REMARK    1  A    between atoms: C_1  and  O_2
REMARK    2  A    between atoms: O_2  and  C_3
REMARK    3  A    between atoms: C_6  and  C_7
REMARK    4  A    between atoms: C_8  and  C_9
REMARK                            x       y       z     vdW  Elec       q    Type
REMARK                         _______ _______ _______ _____ _____    ______ ____
ROOT
ATOM      1  C   UNL     1       2.920   7.473  17.798  0.00  0.00    +0.000 C 
ATOM      2  C   UNL     1       4.110   7.512  17.180  0.00  0.00    +0.000 C 
ENDROOT
BRANCH   2   3
ATOM      3  C   UNL     1       5.112   6.451  17.089  0.00  0.00    +0.000 A 
ATOM      4  C   UNL     1       5.205   5.660  15.939  0.00  0.00    +0.000 A 
ATOM      5  C   UNL     1       6.258   4.754  15.801  0.00  0.00    +0.000 A 
ATOM      6 CL   UNL     1       6.393   3.817  14.363  0.00  0.00    +0.000 Cl
ATOM      7  C   UNL     1       7.219   4.622  16.800  0.00  0.00    +0.000 A 
ATOM      8  C   UNL     1       7.111   5.397  17.952  0.00  0.00    +0.000 A 
ATOM      9 CL   UNL     1       8.304   5.259  19.185  0.00  0.00    +0.000 Cl
ATOM     10  C   UNL     1       6.064   6.307  18.104  0.00  0.00    +0.000 A 
ENDBRANCH   2   3
BRANCH   1  14
ATOM     11  C   UNL     1       1.463   4.145  20.036  0.00  0.00    +0.000 A 
ATOM     12  C   UNL     1       1.549   4.075  18.644  0.00  0.00    +0.000 A 
ATOM     13  C   UNL     1       1.986   5.176  17.901  0.00  0.00    +0.000 A 
ATOM     14  C   UNL     1       2.327   6.366  18.549  0.00  0.00    +0.000 A 
ATOM     15  C   UNL     1       2.194   6.452  19.937  0.00  0.00    +0.000 A 
ATOM     16  C   UNL     1       1.762   5.346  20.680  0.00  0.00    +0.000 A 
BRANCH  11  18
ATOM     17  C   UNL     1       1.903   2.517  21.691  0.00  0.00    +0.000 C 
ATOM     18  O   UNL     1       1.047   3.000  20.660  0.00  0.00    +0.000 OA
ENDBRANCH  11  18
ENDBRANCH   1  14
TORSDOF 3
ENDMDL
MODEL 3
REMARK VINA RESULT:      -7.3      3.578      6.232
REMARK  Name = 
REMARK  4 active torsions:
REMARK  status: ('A' for Active; 'I' for Inactive)
REMARK    1  A    between atoms: C_1  and  O_2
REMARK    2  A    between atoms: O_2  and  C_3
REMARK    3  A    between atoms: C_6  and  C_7
REMARK    4  A    between atoms: C_8  and  C_9
REMARK                            x       y       z     vdW  Elec       q    Type
REMARK                         _______ _______ _______ _____ _____    ______ ____
ROOT
ATOM      1  C   UNL     1       4.753   4.243  16.513  0.00  0.00    +0.000 C 
ATOM      2  C   UNL     1       3.597   3.922  17.112  0.00  0.00    +0.000 C 
ENDROOT
BRANCH   2   3
ATOM      3  C   UNL     1       3.101   4.378  18.411  0.00  0.00    +0.000 A 
ATOM      4  C   UNL     1       2.879   5.738  18.647  0.00  0.00    +0.000 A 
ATOM      5  C   UNL     1       2.265   6.147  19.832  0.00  0.00    +0.000 A 
ATOM      6 CL   UNL     1       1.952   7.819  20.097  0.00  0.00    +0.000 Cl
ATOM      7  C   UNL     1       1.873   5.215  20.789  0.00  0.00    +0.000 A 
ATOM      8  C   UNL     1       2.114   3.863  20.559  0.00  0.00    +0.000 A 
ATOM      9 CL   UNL     1       1.616   2.699  21.724  0.00  0.00    +0.000 Cl
ATOM     10  C   UNL     1       2.727   3.440  19.378  0.00  0.00    +0.000 A 
ENDBRANCH   2   3
BRANCH   1  14
ATOM     11  C   UNL     1       7.671   6.880  18.166  0.00  0.00    +0.000 A 
ATOM     12  C   UNL     1       6.848   7.306  17.122  0.00  0.00    +0.000 A 
ATOM     13  C   UNL     1       5.918   6.433  16.547  0.00  0.00    +0.000 A 
ATOM     14  C   UNL     1       5.817   5.118  17.006  0.00  0.00    +0.000 A 
ATOM     15  C   UNL     1       6.675   4.678  18.017  0.00  0.00    +0.000 A 
ATOM     16  C   UNL     1       7.601   5.555  18.596  0.00  0.00    +0.000 A 
BRANCH  11  18
ATOM     17  C   UNL     1       8.315   9.153  18.195  0.00  0.00    +0.000 C 
ATOM     18  O   UNL     1       8.525   7.826  18.667  0.00  0.00    +0.000 OA
ENDBRANCH  11  18
ENDBRANCH   1  14
TORSDOF 3
ENDMDL
MODEL 4
REMARK VINA RESULT:      -7.2      0.277      2.133
REMARK  Name = 
REMARK  4 active torsions:
REMARK  status: ('A' for Active; 'I' for Inactive)
REMARK    1  A    between atoms: C_1  and  O_2
REMARK    2  A    between atoms: O_2  and  C_3
REMARK    3  A    between atoms: C_6  and  C_7
REMARK    4  A    between atoms: C_8  and  C_9
REMARK                            x       y       z     vdW  Elec       q    Type
REMARK                         _______ _______ _______ _____ _____    ______ ____
ROOT
ATOM      1  C   UNL     1       2.780   7.154  17.833  0.00  0.00    +0.000 C 
ATOM      2  C   UNL     1       3.929   7.381  17.179  0.00  0.00    +0.000 C 
ENDROOT
BRANCH   2   3
ATOM      3  C   UNL     1       5.064   6.473  17.015  0.00  0.00    +0.000 A 
ATOM      4  C   UNL     1       5.315   5.869  15.779  0.00  0.00    +0.000 A 
ATOM      5  C   UNL     1       6.484   5.127  15.592  0.00  0.00    +0.000 A 
ATOM      6 CL   UNL     1       6.809   4.423  14.055  0.00  0.00    +0.000 Cl
ATOM      7  C   UNL     1       7.404   4.976  16.626  0.00  0.00    +0.000 A 
ATOM      8  C   UNL     1       7.140   5.564  17.861  0.00  0.00    +0.000 A 
ATOM      9 CL   UNL     1       8.280   5.402  19.140  0.00  0.00    +0.000 Cl
ATOM     10  C   UNL     1       5.977   6.308  18.062  0.00  0.00    +0.000 A 
ENDBRANCH   2   3
BRANCH   1  14
ATOM     11  C   UNL     1       1.317   3.748  19.946  0.00  0.00    +0.000 A 
ATOM     12  C   UNL     1       1.853   4.834  20.643  0.00  0.00    +0.000 A 
ATOM     13  C   UNL     1       2.373   5.935  19.956  0.00  0.00    +0.000 A 
ATOM     14  C   UNL     1       2.374   5.950  18.559  0.00  0.00    +0.000 A 
ATOM     15  C   UNL     1       1.882   4.844  17.862  0.00  0.00    +0.000 A 
ATOM     16  C   UNL     1       1.356   3.744  18.552  0.00  0.00    +0.000 A 
BRANCH  11  18
ATOM     17  C   UNL     1       1.516   2.493  21.938  0.00  0.00    +0.000 C 
ATOM     18  O   UNL     1       0.815   2.739  20.722  0.00  0.00    +0.000 OA
ENDBRANCH  11  18
ENDBRANCH   1  14
TORSDOF 3
ENDMDL
MODEL 5
REMARK VINA RESULT:      -7.2      0.256      1.163
REMARK  Name = 
REMARK  4 active torsions:
REMARK  status: ('A' for Active; 'I' for Inactive)
REMARK    1  A    between atoms: C_1  and  O_2
REMARK    2  A    between atoms: O_2  and  C_3
REMARK    3  A    between atoms: C_6  and  C_7
REMARK    4  A    between atoms: C_8  and  C_9
REMARK                            x       y       z     vdW  Elec       q    Type
REMARK                         _______ _______ _______ _____ _____    ______ ____
ROOT
ATOM      1  C   UNL     1       2.831   7.274  17.751  0.00  0.00    +0.000 C 
ATOM      2  C   UNL     1       3.973   7.517  17.090  0.00  0.00    +0.000 C 
ENDROOT
BRANCH   2   3
ATOM      3  C   UNL     1       5.123   6.628  16.926  0.00  0.00    +0.000 A 
ATOM      4  C   UNL     1       6.075   6.506  17.943  0.00  0.00    +0.000 A 
ATOM      5  C   UNL     1       7.084   5.545  17.840  0.00  0.00    +0.000 A 
ATOM      6 CL   UNL     1       8.224   5.368  19.117  0.00  0.00    +0.000 Cl
ATOM      7  C   UNL     1       7.159   4.708  16.731  0.00  0.00    +0.000 A 
ATOM      8  C   UNL     1       6.221   4.847  15.711  0.00  0.00    +0.000 A 
ATOM      9 CL   UNL     1       6.289   3.805  14.343  0.00  0.00    +0.000 Cl
ATOM     10  C   UNL     1       5.207   5.803  15.800  0.00  0.00    +0.000 A 
ENDBRANCH   2   3
BRANCH   1  14
ATOM     11  C   UNL     1       1.996   3.663  19.865  0.00  0.00    +0.000 A 
ATOM     12  C   UNL     1       1.762   3.745  18.490  0.00  0.00    +0.000 A 
ATOM     13  C   UNL     1       1.994   4.939  17.799  0.00  0.00    +0.000 A 
ATOM     14  C   UNL     1       2.449   6.068  18.485  0.00  0.00    +0.000 A 
ATOM     15  C   UNL     1       2.636   5.999  19.868  0.00  0.00    +0.000 A 
ATOM     16  C   UNL     1       2.409   4.801  20.557  0.00  0.00    +0.000 A 
BRANCH  11  18
ATOM     17  C   UNL     1       1.470   2.456  21.826  0.00  0.00    +0.000 C 
ATOM     18  O   UNL     1       1.759   2.440  20.431  0.00  0.00    +0.000 OA
ENDBRANCH  11  18
ENDBRANCH   1  14
TORSDOF 3
ENDMDL
MODEL 6
REMARK VINA RESULT:      -7.2      3.444      6.074
REMARK  Name = 
REMARK  4 active torsions:
REMARK  status: ('A' for Active; 'I' for Inactive)
REMARK    1  A    between atoms: C_1  and  O_2
REMARK    2  A    between atoms: O_2  and  C_3
REMARK    3  A    between atoms: C_6  and  C_7
REMARK    4  A    between atoms: C_8  and  C_9
REMARK                            x       y       z     vdW  Elec       q    Type
REMARK                         _______ _______ _______ _____ _____    ______ ____
ROOT
ATOM      1  C   UNL     1       4.555   3.992  16.372  0.00  0.00    +0.000 C 
ATOM      2  C   UNL     1       3.388   3.680  16.955  0.00  0.00    +0.000 C 
ENDROOT
BRANCH   2   3
ATOM      3  C   UNL     1       2.859   4.172  18.227  0.00  0.00    +0.000 A 
ATOM      4  C   UNL     1       2.676   3.299  19.303  0.00  0.00    +0.000 A 
ATOM      5  C   UNL     1       2.315   3.804  20.555  0.00  0.00    +0.000 A 
ATOM      6 CL   UNL     1       2.137   2.729  21.888  0.00  0.00    +0.000 Cl
ATOM      7  C   UNL     1       2.128   5.170  20.744  0.00  0.00    +0.000 A 
ATOM      8  C   UNL     1       2.292   6.034  19.664  0.00  0.00    +0.000 A 
ATOM      9 CL   UNL     1       2.085   7.727  19.889  0.00  0.00    +0.000 Cl
ATOM     10  C   UNL     1       2.653   5.544  18.408  0.00  0.00    +0.000 A 
ENDBRANCH   2   3
BRANCH   1  14
ATOM     11  C   UNL     1       7.442   6.650  18.045  0.00  0.00    +0.000 A 
ATOM     12  C   UNL     1       6.457   7.133  17.180  0.00  0.00    +0.000 A 
ATOM     13  C   UNL     1       5.534   6.261  16.596  0.00  0.00    +0.000 A 
ATOM     14  C   UNL     1       5.600   4.891  16.861  0.00  0.00    +0.000 A 
ATOM     15  C   UNL     1       6.616   4.402  17.687  0.00  0.00    +0.000 A 
ATOM     16  C   UNL     1       7.536   5.278  18.277  0.00  0.00    +0.000 A 
BRANCH  11  18
ATOM     17  C   UNL     1       8.186   8.892  17.991  0.00  0.00    +0.000 C 
ATOM     18  O   UNL     1       8.275   7.597  18.578  0.00  0.00    +0.000 OA
ENDBRANCH  11  18
ENDBRANCH   1  14
TORSDOF 3
ENDMDL
MODEL 7
REMARK VINA RESULT:      -7.2      3.556      6.199
REMARK  Name = 
REMARK  4 active torsions:
REMARK  status: ('A' for Active; 'I' for Inactive)
REMARK    1  A    between atoms: C_1  and  O_2
REMARK    2  A    between atoms: O_2  and  C_3
REMARK    3  A    between atoms: C_6  and  C_7
REMARK    4  A    between atoms: C_8  and  C_9
REMARK                            x       y       z     vdW  Elec       q    Type
REMARK                         _______ _______ _______ _____ _____    ______ ____
ROOT
ATOM      1  C   UNL     1       4.610   4.059  16.648  0.00  0.00    +0.000 C 
ATOM      2  C   UNL     1       3.428   3.655  17.136  0.00  0.00    +0.000 C 
ENDROOT
BRANCH   2   3
ATOM      3  C   UNL     1       2.744   4.124  18.341  0.00  0.00    +0.000 A 
ATOM      4  C   UNL     1       2.328   3.216  19.318  0.00  0.00    +0.000 A 
ATOM      5  C   UNL     1       1.814   3.684  20.530  0.00  0.00    +0.000 A 
ATOM      6 CL   UNL     1       1.347   2.561  21.748  0.00  0.00    +0.000 Cl
ATOM      7  C   UNL     1       1.705   5.050  20.776  0.00  0.00    +0.000 A 
ATOM      8  C   UNL     1       2.102   5.951  19.791  0.00  0.00    +0.000 A 
ATOM      9 CL   UNL     1       1.992   7.642  20.091  0.00  0.00    +0.000 Cl
ATOM     10  C   UNL     1       2.618   5.497  18.576  0.00  0.00    +0.000 A 
ENDBRANCH   2   3
BRANCH   1  14
ATOM     11  C   UNL     1       7.464   6.906  18.046  0.00  0.00    +0.000 A 
ATOM     12  C   UNL     1       7.407   5.630  18.610  0.00  0.00    +0.000 A 
ATOM     13  C   UNL     1       6.447   4.706  18.186  0.00  0.00    +0.000 A 
ATOM     14  C   UNL     1       5.523   5.061  17.201  0.00  0.00    +0.000 A 
ATOM     15  C   UNL     1       5.549   6.354  16.671  0.00  0.00    +0.000 A 
ATOM     16  C   UNL     1       6.515   7.275  17.093  0.00  0.00    +0.000 A 
BRANCH  11  18
ATOM     17  C   UNL     1       8.362   9.089  18.150  0.00  0.00    +0.000 C 
ATOM     18  O   UNL     1       8.460   7.717  18.521  0.00  0.00    +0.000 OA
ENDBRANCH  11  18
ENDBRANCH   1  14
TORSDOF 3
ENDMDL
MODEL 8
REMARK VINA RESULT:      -6.9      3.704      6.346
REMARK  Name = 
REMARK  4 active torsions:
REMARK  status: ('A' for Active; 'I' for Inactive)
REMARK    1  A    between atoms: C_1  and  O_2
REMARK    2  A    between atoms: O_2  and  C_3
REMARK    3  A    between atoms: C_6  and  C_7
REMARK    4  A    between atoms: C_8  and  C_9
REMARK                            x       y       z     vdW  Elec       q    Type
REMARK                         _______ _______ _______ _____ _____    ______ ____
ROOT
ATOM      1  C   UNL     1       5.091   4.288  16.888  0.00  0.00    +0.000 C 
ATOM      2  C   UNL     1       3.950   3.817  17.412  0.00  0.00    +0.000 C 
ENDROOT
BRANCH   2   3
ATOM      3  C   UNL     1       3.269   4.259  18.629  0.00  0.00    +0.000 A 
ATOM      4  C   UNL     1       3.001   5.616  18.837  0.00  0.00    +0.000 A 
ATOM      5  C   UNL     1       2.219   6.011  19.925  0.00  0.00    +0.000 A 
ATOM      6 CL   UNL     1       1.854   7.678  20.151  0.00  0.00    +0.000 Cl
ATOM      7  C   UNL     1       1.705   5.069  20.812  0.00  0.00    +0.000 A 
ATOM      8  C   UNL     1       1.991   3.721  20.611  0.00  0.00    +0.000 A 
ATOM      9 CL   UNL     1       1.344   2.544  21.688  0.00  0.00    +0.000 Cl
ATOM     10  C   UNL     1       2.771   3.311  19.529  0.00  0.00    +0.000 A 
ENDBRANCH   2   3
BRANCH   1  14
ATOM     11  C   UNL     1       7.802   7.316  18.185  0.00  0.00    +0.000 A 
ATOM     12  C   UNL     1       7.785   6.069  18.814  0.00  0.00    +0.000 A 
ATOM     13  C   UNL     1       6.871   5.087  18.422  0.00  0.00    +0.000 A 
ATOM     14  C   UNL     1       5.952   5.352  17.403  0.00  0.00    +0.000 A 
ATOM     15  C   UNL     1       5.937   6.616  16.808  0.00  0.00    +0.000 A 
ATOM     16  C   UNL     1       6.858   7.597  17.197  0.00  0.00    +0.000 A 
BRANCH  11  18
ATOM     17  C   UNL     1       8.549   9.556  18.284  0.00  0.00    +0.000 C 
ATOM     18  O   UNL     1       8.755   8.190  18.633  0.00  0.00    +0.000 OA
ENDBRANCH  11  18
ENDBRANCH   1  14
TORSDOF 3
ENDMDL
MODEL 9
REMARK VINA RESULT:      -6.7      2.109      2.979
REMARK  Name = 
REMARK  4 active torsions:
REMARK  status: ('A' for Active; 'I' for Inactive)
REMARK    1  A    between atoms: C_1  and  O_2
REMARK    2  A    between atoms: O_2  and  C_3
REMARK    3  A    between atoms: C_6  and  C_7
REMARK    4  A    between atoms: C_8  and  C_9
REMARK                            x       y       z     vdW  Elec       q    Type
REMARK                         _______ _______ _______ _____ _____    ______ ____
ROOT
ATOM      1  C   UNL     1       2.602   3.560  18.336  0.00  0.00    +0.000 C 
ATOM      2  C   UNL     1       3.719   3.156  17.714  0.00  0.00    +0.000 C 
ENDROOT
BRANCH   2   3
ATOM      3  C   UNL     1       4.904   3.949  17.390  0.00  0.00    +0.000 A 
ATOM      4  C   UNL     1       5.715   4.460  18.408  0.00  0.00    +0.000 A 
ATOM      5  C   UNL     1       6.923   5.085  18.088  0.00  0.00    +0.000 A 
ATOM      6 CL   UNL     1       7.938   5.671  19.349  0.00  0.00    +0.000 Cl
ATOM      7  C   UNL     1       7.330   5.211  16.763  0.00  0.00    +0.000 A 
ATOM      8  C   UNL     1       6.510   4.718  15.751  0.00  0.00    +0.000 A 
ATOM      9 CL   UNL     1       7.011   4.848  14.110  0.00  0.00    +0.000 Cl
ATOM     10  C   UNL     1       5.300   4.091  16.056  0.00  0.00    +0.000 A 
ENDBRANCH   2   3
BRANCH   1  14
ATOM     11  C   UNL     1       1.942   7.486  19.872  0.00  0.00    +0.000 A 
ATOM     12  C   UNL     1       1.743   6.368  20.685  0.00  0.00    +0.000 A 
ATOM     13  C   UNL     1       1.917   5.077  20.177  0.00  0.00    +0.000 A 
ATOM     14  C   UNL     1       2.277   4.895  18.839  0.00  0.00    +0.000 A 
ATOM     15  C   UNL     1       2.428   6.012  18.013  0.00  0.00    +0.000 A 
ATOM     16  C   UNL     1       2.259   7.304  18.526  0.00  0.00    +0.000 A 
BRANCH  11  18
ATOM     17  C   UNL     1       1.000   8.676  21.682  0.00  0.00    +0.000 C 
ATOM     18  O   UNL     1       1.767   8.698  20.482  0.00  0.00    +0.000 OA
ENDBRANCH  11  18
ENDBRANCH   1  14
TORSDOF 3
ENDMDL
