MODEL 1
REMARK VINA RESULT:      -7.7      0.000      0.000
REMARK  Name = 
REMARK  9 active torsions:
REMARK  status: ('A' for Active; 'I' for Inactive)
REMARK    1  A    between atoms: C_1  and  O_2
REMARK    2  A    between atoms: O_2  and  C_3
REMARK    3  A    between atoms: C_9  and  N_10
REMARK    4  A    between atoms: C_11  and  C_13
REMARK    5  A    between atoms: C_13  and  S_14
REMARK    6  A    between atoms: S_14  and  C_15
REMARK    7  A    between atoms: C_18  and  C_19
REMARK    8  A    between atoms: C_21  and  C_22
REMARK    9  A    between atoms: C_24  and  C_25
REMARK                            x       y       z     vdW  Elec       q    Type
REMARK                         _______ _______ _______ _____ _____    ______ ____
ROOT
ATOM      1  C   UNL     1       2.193   3.911  21.476  0.00  0.00    +0.000 C 
ENDROOT
BRANCH   1   3
ATOM      2  N   UNL     1       2.272   6.267  20.777  0.00  0.00    +0.000 N 
ATOM      3  C   UNL     1       1.530   5.091  20.782  0.00  0.00    +0.000 C 
ATOM      4  O   UNL     1       0.435   4.935  20.241  0.00  0.00    +0.000 OA
ATOM      5  H   UNL     1       3.224   6.242  21.130  0.00  0.00    +0.000 HD
BRANCH   2  12
ATOM      6  C   UNL     1       2.150   7.797  18.863  0.00  0.00    +0.000 A 
ATOM      7  C   UNL     1       1.699   8.998  18.296  0.00  0.00    +0.000 A 
ATOM      8  C   UNL     1       1.029   9.943  19.073  0.00  0.00    +0.000 A 
ATOM      9  C   UNL     1       0.810   9.691  20.420  0.00  0.00    +0.000 A 
ATOM     10 CL   UNL     1       0.020  10.875  21.385  0.00  0.00    +0.000 Cl
ATOM     11  C   UNL     1       1.227   8.488  20.990  0.00  0.00    +0.000 A 
ATOM     12  C   UNL     1       1.873   7.516  20.223  0.00  0.00    +0.000 A 
BRANCH   6  14
ATOM     13  C   UNL     1       3.968   7.317  17.411  0.00  0.00    +0.000 C 
ATOM     14  O   UNL     1       2.843   6.838  18.153  0.00  0.00    +0.000 OA
ENDBRANCH   6  14
ENDBRANCH   2  12
ENDBRANCH   1   3
BRANCH   1  15
ATOM     15  S   UNL     1       2.184   2.456  20.384  0.00  0.00    +0.000 S 
BRANCH  15  16
ATOM     16  C   UNL     1       3.399   2.961  19.185  0.00  0.00    +0.000 A 
ATOM     17  C   UNL     1       4.649   3.388  19.601  0.00  0.00    +0.000 A 
ATOM     18  C   UNL     1       5.559   3.865  18.655  0.00  0.00    +0.000 A 
ATOM     19  C   UNL     1       5.185   3.907  17.319  0.00  0.00    +0.000 A 
ATOM     20  N   UNL     1       3.962   3.472  16.943  0.00  0.00    +0.000 NA
ATOM     21  N   UNL     1       3.064   2.997  17.881  0.00  0.00    +0.000 NA
BRANCH  19  22
ATOM     22  C   UNL     1       6.017   4.457  16.245  0.00  0.00    +0.000 A 
ATOM     23  S   UNL     1       5.894   3.876  14.626  0.00  0.00    +0.000 S 
ATOM     24  C   UNL     1       7.135   4.949  14.132  0.00  0.00    +0.000 A 
ATOM     25  C   UNL     1       7.618   4.965  12.722  0.00  0.00    +0.000 C 
ATOM     26  N   UNL     1       7.615   5.721  15.078  0.00  0.00    +0.000 NA
ATOM     27  C   UNL     1       6.983   5.458  16.286  0.00  0.00    +0.000 A 
ATOM     28  C   UNL     1       7.426   6.235  17.475  0.00  0.00    +0.000 C 
ENDBRANCH  19  22
ENDBRANCH  15  16
ENDBRANCH   1  15
TORSDOF 6
ENDMDL
MODEL 2
REMARK VINA RESULT:      -7.5      0.814      1.021
REMARK  Name = 
REMARK  9 active torsions:
REMARK  status: ('A' for Active; 'I' for Inactive)
REMARK    1  A    between atoms: C_1  and  O_2
REMARK    2  A    between atoms: O_2  and  C_3
REMARK    3  A    between atoms: C_9  and  N_10
REMARK    4  A    between atoms: C_11  and  C_13
REMARK    5  A    between atoms: C_13  and  S_14
REMARK    6  A    between atoms: S_14  and  C_15
REMARK    7  A    between atoms: C_18  and  C_19
REMARK    8  A    between atoms: C_21  and  C_22
REMARK    9  A    between atoms: C_24  and  C_25
REMARK                            x       y       z     vdW  Elec       q    Type
REMARK                         _______ _______ _______ _____ _____    ______ ____
ROOT
ATOM      1  C   UNL     1       2.377   3.536  21.284  0.00  0.00    +0.000 C 
ENDROOT
BRANCH   1   3
ATOM      2  N   UNL     1       2.457   5.877  20.535  0.00  0.00    +0.000 N 
ATOM      3  C   UNL     1       1.647   4.776  20.788  0.00  0.00    +0.000 C 
ATOM      4  O   UNL     1       0.432   4.724  20.598  0.00  0.00    +0.000 OA
ATOM      5  H   UNL     1       3.465   5.761  20.592  0.00  0.00    +0.000 HD
BRANCH   2  12
ATOM      6  C   UNL     1       2.314   7.574  18.769  0.00  0.00    +0.000 A 
ATOM      7  C   UNL     1       1.833   8.809  18.309  0.00  0.00    +0.000 A 
ATOM      8  C   UNL     1       1.124   9.656  19.159  0.00  0.00    +0.000 A 
ATOM      9  C   UNL     1       0.894   9.273  20.473  0.00  0.00    +0.000 A 
ATOM     10 CL   UNL     1       0.053  10.338  21.530  0.00  0.00    +0.000 Cl
ATOM     11  C   UNL     1       1.341   8.035  20.936  0.00  0.00    +0.000 A 
ATOM     12  C   UNL     1       2.027   7.159  20.093  0.00  0.00    +0.000 A 
BRANCH   6  14
ATOM     13  C   UNL     1       4.239   7.254  17.415  0.00  0.00    +0.000 C 
ATOM     14  O   UNL     1       3.047   6.707  17.986  0.00  0.00    +0.000 OA
ENDBRANCH   6  14
ENDBRANCH   2  12
ENDBRANCH   1   3
BRANCH   1  15
ATOM     15  S   UNL     1       2.304   2.221  20.029  0.00  0.00    +0.000 S 
BRANCH  15  16
ATOM     16  C   UNL     1       3.275   2.969  18.738  0.00  0.00    +0.000 A 
ATOM     17  C   UNL     1       2.798   2.995  17.438  0.00  0.00    +0.000 A 
ATOM     18  C   UNL     1       3.610   3.505  16.422  0.00  0.00    +0.000 A 
ATOM     19  C   UNL     1       4.880   3.967  16.740  0.00  0.00    +0.000 A 
ATOM     20  N   UNL     1       5.311   3.939  18.020  0.00  0.00    +0.000 NA
ATOM     21  N   UNL     1       4.505   3.437  19.024  0.00  0.00    +0.000 NA
BRANCH  19  22
ATOM     22  C   UNL     1       5.853   4.451  15.756  0.00  0.00    +0.000 A 
ATOM     23  S   UNL     1       5.776   3.963  14.103  0.00  0.00    +0.000 S 
ATOM     24  C   UNL     1       7.178   4.884  13.753  0.00  0.00    +0.000 A 
ATOM     25  C   UNL     1       7.763   4.898  12.382  0.00  0.00    +0.000 C 
ATOM     26  N   UNL     1       7.682   5.543  14.769  0.00  0.00    +0.000 NA
ATOM     27  C   UNL     1       6.934   5.312  15.915  0.00  0.00    +0.000 A 
ATOM     28  C   UNL     1       7.383   5.971  17.172  0.00  0.00    +0.000 C 
ENDBRANCH  19  22
ENDBRANCH  15  16
ENDBRANCH   1  15
TORSDOF 6
ENDMDL
MODEL 3
REMARK VINA RESULT:      -7.4      3.935      7.740
REMARK  Name = 
REMARK  9 active torsions:
REMARK  status: ('A' for Active; 'I' for Inactive)
REMARK    1  A    between atoms: C_1  and  O_2
REMARK    2  A    between atoms: O_2  and  C_3
REMARK    3  A    between atoms: C_9  and  N_10
REMARK    4  A    between atoms: C_11  and  C_13
REMARK    5  A    between atoms: C_13  and  S_14
REMARK    6  A    between atoms: S_14  and  C_15
REMARK    7  A    between atoms: C_18  and  C_19
REMARK    8  A    between atoms: C_21  and  C_22
REMARK    9  A    between atoms: C_24  and  C_25
REMARK                            x       y       z     vdW  Elec       q    Type
REMARK                         _______ _______ _______ _____ _____    ______ ____
ROOT
ATOM      1  C   UNL     1       1.575   4.437  19.229  0.00  0.00    +0.000 C 
ENDROOT
BRANCH   1   3
ATOM      2  N   UNL     1       3.846   4.627  18.305  0.00  0.00    +0.000 N 
ATOM      3  C   UNL     1       2.547   4.180  18.088  0.00  0.00    +0.000 C 
ATOM      4  O   UNL     1       2.160   3.569  17.092  0.00  0.00    +0.000 OA
ATOM      5  H   UNL     1       4.087   4.991  19.223  0.00  0.00    +0.000 HD
BRANCH   2  12
ATOM      6  C   UNL     1       6.259   4.696  17.871  0.00  0.00    +0.000 A 
ATOM      7  C   UNL     1       7.338   4.540  16.988  0.00  0.00    +0.000 A 
ATOM      8  C   UNL     1       7.118   4.286  15.635  0.00  0.00    +0.000 A 
ATOM      9  C   UNL     1       5.818   4.188  15.158  0.00  0.00    +0.000 A 
ATOM     10 CL   UNL     1       5.549   3.915  13.482  0.00  0.00    +0.000 Cl
ATOM     11  C   UNL     1       4.736   4.311  16.030  0.00  0.00    +0.000 A 
ATOM     12  C   UNL     1       4.935   4.536  17.394  0.00  0.00    +0.000 A 
BRANCH   6  14
ATOM     13  C   UNL     1       7.598   5.701  19.556  0.00  0.00    +0.000 C 
ATOM     14  O   UNL     1       6.413   4.978  19.212  0.00  0.00    +0.000 OA
ENDBRANCH   6  14
ENDBRANCH   2  12
ENDBRANCH   1   3
BRANCH   1  15
ATOM     15  S   UNL     1       2.425   5.281  20.599  0.00  0.00    +0.000 S 
BRANCH  15  16
ATOM     16  C   UNL     1       1.902   6.957  20.303  0.00  0.00    +0.000 A 
ATOM     17  C   UNL     1       1.077   7.597  21.212  0.00  0.00    +0.000 A 
ATOM     18  C   UNL     1       0.603   8.878  20.922  0.00  0.00    +0.000 A 
ATOM     19  C   UNL     1       0.965   9.476  19.723  0.00  0.00    +0.000 A 
ATOM     20  N   UNL     1       1.781   8.831  18.862  0.00  0.00    +0.000 NA
ATOM     21  N   UNL     1       2.251   7.564  19.152  0.00  0.00    +0.000 NA
BRANCH  19  22
ATOM     22  C   UNL     1       0.472  10.780  19.269  0.00  0.00    +0.000 A 
ATOM     23  S   UNL     1       1.234  12.249  19.757  0.00  0.00    +0.000 S 
ATOM     24  C   UNL     1       0.079  13.157  18.876  0.00  0.00    +0.000 A 
ATOM     25  C   UNL     1       0.110  14.647  18.880  0.00  0.00    +0.000 C 
ATOM     26  N   UNL     1      -0.815  12.447  18.230  0.00  0.00    +0.000 NA
ATOM     27  C   UNL     1      -0.599  11.091  18.437  0.00  0.00    +0.000 A 
ATOM     28  C   UNL     1      -1.542  10.139  17.789  0.00  0.00    +0.000 C 
ENDBRANCH  19  22
ENDBRANCH  15  16
ENDBRANCH   1  15
TORSDOF 6
ENDMDL
MODEL 4
REMARK VINA RESULT:      -7.3      1.918      2.495
REMARK  Name = 
REMARK  9 active torsions:
REMARK  status: ('A' for Active; 'I' for Inactive)
REMARK    1  A    between atoms: C_1  and  O_2
REMARK    2  A    between atoms: O_2  and  C_3
REMARK    3  A    between atoms: C_9  and  N_10
REMARK    4  A    between atoms: C_11  and  C_13
REMARK    5  A    between atoms: C_13  and  S_14
REMARK    6  A    between atoms: S_14  and  C_15
REMARK    7  A    between atoms: C_18  and  C_19
REMARK    8  A    between atoms: C_21  and  C_22
REMARK    9  A    between atoms: C_24  and  C_25
REMARK                            x       y       z     vdW  Elec       q    Type
REMARK                         _______ _______ _______ _____ _____    ______ ____
ROOT
ATOM      1  C   UNL     1       2.143   3.480  21.852  0.00  0.00    +0.000 C 
ENDROOT
BRANCH   1   3
ATOM      2  N   UNL     1       2.705   5.522  20.604  0.00  0.00    +0.000 N 
ATOM      3  C   UNL     1       1.808   4.470  20.747  0.00  0.00    +0.000 C 
ATOM      4  O   UNL     1       0.825   4.267  20.033  0.00  0.00    +0.000 OA
ATOM      5  H   UNL     1       3.558   5.511  21.155  0.00  0.00    +0.000 HD
BRANCH   2  12
ATOM      6  C   UNL     1       1.792   7.710  19.972  0.00  0.00    +0.000 A 
ATOM      7  C   UNL     1       1.749   8.797  19.086  0.00  0.00    +0.000 A 
ATOM      8  C   UNL     1       2.461   8.765  17.887  0.00  0.00    +0.000 A 
ATOM      9  C   UNL     1       3.216   7.646  17.568  0.00  0.00    +0.000 A 
ATOM     10 CL   UNL     1       4.059   7.593  16.070  0.00  0.00    +0.000 Cl
ATOM     11  C   UNL     1       3.291   6.569  18.452  0.00  0.00    +0.000 A 
ATOM     12  C   UNL     1       2.611   6.593  19.672  0.00  0.00    +0.000 A 
BRANCH   6  14
ATOM     13  C   UNL     1       1.192   8.840  21.973  0.00  0.00    +0.000 C 
ATOM     14  O   UNL     1       1.088   7.670  21.157  0.00  0.00    +0.000 OA
ENDBRANCH   6  14
ENDBRANCH   2  12
ENDBRANCH   1   3
BRANCH   1  15
ATOM     15  S   UNL     1       3.063   2.066  21.170  0.00  0.00    +0.000 S 
BRANCH  15  16
ATOM     16  C   UNL     1       3.836   2.846  19.769  0.00  0.00    +0.000 A 
ATOM     17  C   UNL     1       3.315   2.662  18.499  0.00  0.00    +0.000 A 
ATOM     18  C   UNL     1       3.984   3.206  17.400  0.00  0.00    +0.000 A 
ATOM     19  C   UNL     1       5.161   3.913  17.608  0.00  0.00    +0.000 A 
ATOM     20  N   UNL     1       5.637   4.085  18.861  0.00  0.00    +0.000 NA
ATOM     21  N   UNL     1       4.971   3.548  19.947  0.00  0.00    +0.000 NA
BRANCH  19  22
ATOM     22  C   UNL     1       5.995   4.463  16.535  0.00  0.00    +0.000 A 
ATOM     23  S   UNL     1       5.934   3.823  14.934  0.00  0.00    +0.000 S 
ATOM     24  C   UNL     1       7.140   4.931  14.431  0.00  0.00    +0.000 A 
ATOM     25  C   UNL     1       7.657   4.920  13.033  0.00  0.00    +0.000 C 
ATOM     26  N   UNL     1       7.566   5.754  15.361  0.00  0.00    +0.000 NA
ATOM     27  C   UNL     1       6.917   5.504  16.562  0.00  0.00    +0.000 A 
ATOM     28  C   UNL     1       7.298   6.339  17.734  0.00  0.00    +0.000 C 
ENDBRANCH  19  22
ENDBRANCH  15  16
ENDBRANCH   1  15
TORSDOF 6
ENDMDL
MODEL 5
REMARK VINA RESULT:      -7.2      4.108      7.949
REMARK  Name = 
REMARK  9 active torsions:
REMARK  status: ('A' for Active; 'I' for Inactive)
REMARK    1  A    between atoms: C_1  and  O_2
REMARK    2  A    between atoms: O_2  and  C_3
REMARK    3  A    between atoms: C_9  and  N_10
REMARK    4  A    between atoms: C_11  and  C_13
REMARK    5  A    between atoms: C_13  and  S_14
REMARK    6  A    between atoms: S_14  and  C_15
REMARK    7  A    between atoms: C_18  and  C_19
REMARK    8  A    between atoms: C_21  and  C_22
REMARK    9  A    between atoms: C_24  and  C_25
REMARK                            x       y       z     vdW  Elec       q    Type
REMARK                         _______ _______ _______ _____ _____    ______ ____
ROOT
ATOM      1  C   UNL     1       2.160   4.624  18.512  0.00  0.00    +0.000 C 
ENDROOT
BRANCH   1   3
ATOM      2  N   UNL     1       4.013   5.127  16.975  0.00  0.00    +0.000 N 
ATOM      3  C   UNL     1       3.276   4.129  17.605  0.00  0.00    +0.000 C 
ATOM      4  O   UNL     1       3.491   2.920  17.518  0.00  0.00    +0.000 OA
ATOM      5  H   UNL     1       3.838   6.094  17.232  0.00  0.00    +0.000 HD
BRANCH   2  12
ATOM      6  C   UNL     1       6.388   5.369  16.412  0.00  0.00    +0.000 A 
ATOM      7  C   UNL     1       7.461   5.122  15.542  0.00  0.00    +0.000 A 
ATOM      8  C   UNL     1       7.248   4.503  14.310  0.00  0.00    +0.000 A 
ATOM      9  C   UNL     1       5.962   4.132  13.943  0.00  0.00    +0.000 A 
ATOM     10 CL   UNL     1       5.698   3.407  12.406  0.00  0.00    +0.000 Cl
ATOM     11  C   UNL     1       4.891   4.345  14.810  0.00  0.00    +0.000 A 
ATOM     12  C   UNL     1       5.086   4.936  16.061  0.00  0.00    +0.000 A 
BRANCH   6  14
ATOM     13  C   UNL     1       7.159   7.287  17.583  0.00  0.00    +0.000 C 
ATOM     14  O   UNL     1       6.531   6.003  17.629  0.00  0.00    +0.000 OA
ENDBRANCH   6  14
ENDBRANCH   2  12
ENDBRANCH   1   3
BRANCH   1  15
ATOM     15  S   UNL     1       2.860   5.416  19.993  0.00  0.00    +0.000 S 
BRANCH  15  16
ATOM     16  C   UNL     1       2.218   7.064  19.797  0.00  0.00    +0.000 A 
ATOM     17  C   UNL     1       1.500   7.655  20.823  0.00  0.00    +0.000 A 
ATOM     18  C   UNL     1       0.928   8.913  20.620  0.00  0.00    +0.000 A 
ATOM     19  C   UNL     1       1.086   9.537  19.390  0.00  0.00    +0.000 A 
ATOM     20  N   UNL     1       1.802   8.939  18.413  0.00  0.00    +0.000 NA
ATOM     21  N   UNL     1       2.371   7.696  18.617  0.00  0.00    +0.000 NA
BRANCH  19  22
ATOM     22  C   UNL     1       0.469  10.817  19.028  0.00  0.00    +0.000 A 
ATOM     23  S   UNL     1       1.202  12.319  19.454  0.00  0.00    +0.000 S 
ATOM     24  C   UNL     1      -0.100  13.173  18.739  0.00  0.00    +0.000 A 
ATOM     25  C   UNL     1      -0.151  14.662  18.774  0.00  0.00    +0.000 C 
ATOM     26  N   UNL     1      -1.025  12.422  18.189  0.00  0.00    +0.000 NA
ATOM     27  C   UNL     1      -0.710  11.078  18.338  0.00  0.00    +0.000 A 
ATOM     28  C   UNL     1      -1.671  10.084  17.786  0.00  0.00    +0.000 C 
ENDBRANCH  19  22
ENDBRANCH  15  16
ENDBRANCH   1  15
TORSDOF 6
ENDMDL
MODEL 6
REMARK VINA RESULT:      -7.1      4.623      6.309
REMARK  Name = 
REMARK  9 active torsions:
REMARK  status: ('A' for Active; 'I' for Inactive)
REMARK    1  A    between atoms: C_1  and  O_2
REMARK    2  A    between atoms: O_2  and  C_3
REMARK    3  A    between atoms: C_9  and  N_10
REMARK    4  A    between atoms: C_11  and  C_13
REMARK    5  A    between atoms: C_13  and  S_14
REMARK    6  A    between atoms: S_14  and  C_15
REMARK    7  A    between atoms: C_18  and  C_19
REMARK    8  A    between atoms: C_21  and  C_22
REMARK    9  A    between atoms: C_24  and  C_25
REMARK                            x       y       z     vdW  Elec       q    Type
REMARK                         _______ _______ _______ _____ _____    ______ ____
ROOT
ATOM      1  C   UNL     1       0.680  11.858  19.522  0.00  0.00    +0.000 C 
ENDROOT
BRANCH   1   3
ATOM      2  N   UNL     1      -1.734  11.518  19.203  0.00  0.00    +0.000 N 
ATOM      3  C   UNL     1      -0.632  12.310  18.899  0.00  0.00    +0.000 C 
ATOM      4  O   UNL     1      -0.657  13.341  18.227  0.00  0.00    +0.000 OA
ATOM      5  H   UNL     1      -1.623  10.772  19.884  0.00  0.00    +0.000 HD
BRANCH   2  12
ATOM      6  C   UNL     1      -3.403  11.282  17.421  0.00  0.00    +0.000 A 
ATOM      7  C   UNL     1      -4.728  11.401  16.976  0.00  0.00    +0.000 A 
ATOM      8  C   UNL     1      -5.702  11.978  17.790  0.00  0.00    +0.000 A 
ATOM      9  C   UNL     1      -5.355  12.442  19.051  0.00  0.00    +0.000 A 
ATOM     10 CL   UNL     1      -6.549  13.191  20.036  0.00  0.00    +0.000 Cl
ATOM     11  C   UNL     1      -4.047  12.305  19.517  0.00  0.00    +0.000 A 
ATOM     12  C   UNL     1      -3.063  11.702  18.730  0.00  0.00    +0.000 A 
BRANCH   6  14
ATOM     13  C   UNL     1      -2.749  10.421  15.306  0.00  0.00    +0.000 C 
ATOM     14  O   UNL     1      -2.391  10.748  16.651  0.00  0.00    +0.000 OA
ENDBRANCH   6  14
ENDBRANCH   2  12
ENDBRANCH   1   3
BRANCH   1  15
ATOM     15  S   UNL     1       0.373  10.568  20.767  0.00  0.00    +0.000 S 
BRANCH  15  16
ATOM     16  C   UNL     1       1.130   9.173  19.962  0.00  0.00    +0.000 A 
ATOM     17  C   UNL     1       1.442   8.037  20.691  0.00  0.00    +0.000 A 
ATOM     18  C   UNL     1       2.116   6.987  20.064  0.00  0.00    +0.000 A 
ATOM     19  C   UNL     1       2.466   7.111  18.726  0.00  0.00    +0.000 A 
ATOM     20  N   UNL     1       2.137   8.227  18.040  0.00  0.00    +0.000 NA
ATOM     21  N   UNL     1       1.467   9.264  18.661  0.00  0.00    +0.000 NA
BRANCH  19  22
ATOM     22  C   UNL     1       3.242   6.116  17.980  0.00  0.00    +0.000 A 
ATOM     23  S   UNL     1       4.770   6.510  17.282  0.00  0.00    +0.000 S 
ATOM     24  C   UNL     1       4.901   4.925  16.643  0.00  0.00    +0.000 A 
ATOM     25  C   UNL     1       6.072   4.528  15.811  0.00  0.00    +0.000 C 
ATOM     26  N   UNL     1       3.904   4.123  16.931  0.00  0.00    +0.000 NA
ATOM     27  C   UNL     1       2.955   4.784  17.699  0.00  0.00    +0.000 A 
ATOM     28  C   UNL     1       1.741   4.021  18.098  0.00  0.00    +0.000 C 
ENDBRANCH  19  22
ENDBRANCH  15  16
ENDBRANCH   1  15
TORSDOF 6
ENDMDL
MODEL 7
REMARK VINA RESULT:      -7.1      3.378      7.018
REMARK  Name = 
REMARK  9 active torsions:
REMARK  status: ('A' for Active; 'I' for Inactive)
REMARK    1  A    between atoms: C_1  and  O_2
REMARK    2  A    between atoms: O_2  and  C_3
REMARK    3  A    between atoms: C_9  and  N_10
REMARK    4  A    between atoms: C_11  and  C_13
REMARK    5  A    between atoms: C_13  and  S_14
REMARK    6  A    between atoms: S_14  and  C_15
REMARK    7  A    between atoms: C_18  and  C_19
REMARK    8  A    between atoms: C_21  and  C_22
REMARK    9  A    between atoms: C_24  and  C_25
REMARK                            x       y       z     vdW  Elec       q    Type
REMARK                         _______ _______ _______ _____ _____    ______ ____
ROOT
ATOM      1  C   UNL     1       2.791   2.127  18.652  0.00  0.00    +0.000 C 
ENDROOT
BRANCH   1   3
ATOM      2  N   UNL     1       4.729   2.967  17.394  0.00  0.00    +0.000 N 
ATOM      3  C   UNL     1       3.342   2.938  17.489  0.00  0.00    +0.000 C 
ATOM      4  O   UNL     1       2.560   3.465  16.697  0.00  0.00    +0.000 OA
ATOM      5  H   UNL     1       5.271   2.378  18.020  0.00  0.00    +0.000 HD
BRANCH   2  12
ATOM      6  C   UNL     1       6.326   4.741  16.832  0.00  0.00    +0.000 A 
ATOM      7  C   UNL     1       7.134   5.393  15.887  0.00  0.00    +0.000 A 
ATOM      8  C   UNL     1       7.084   5.033  14.541  0.00  0.00    +0.000 A 
ATOM      9  C   UNL     1       6.226   4.022  14.133  0.00  0.00    +0.000 A 
ATOM     10 CL   UNL     1       6.137   3.608  12.466  0.00  0.00    +0.000 Cl
ATOM     11  C   UNL     1       5.438   3.346  15.065  0.00  0.00    +0.000 A 
ATOM     12  C   UNL     1       5.495   3.670  16.423  0.00  0.00    +0.000 A 
BRANCH   6  14
ATOM     13  C   UNL     1       7.563   5.493  18.715  0.00  0.00    +0.000 C 
ATOM     14  O   UNL     1       6.309   5.072  18.170  0.00  0.00    +0.000 OA
ENDBRANCH   6  14
ENDBRANCH   2  12
ENDBRANCH   1   3
BRANCH   1  15
ATOM     15  S   UNL     1       3.543   2.678  20.214  0.00  0.00    +0.000 S 
BRANCH  15  16
ATOM     16  C   UNL     1       2.959   4.358  20.264  0.00  0.00    +0.000 A 
ATOM     17  C   UNL     1       1.732   4.649  20.837  0.00  0.00    +0.000 A 
ATOM     18  C   UNL     1       1.248   5.958  20.789  0.00  0.00    +0.000 A 
ATOM     19  C   UNL     1       2.006   6.936  20.159  0.00  0.00    +0.000 A 
ATOM     20  N   UNL     1       3.204   6.623  19.620  0.00  0.00    +0.000 NA
ATOM     21  N   UNL     1       3.683   5.327  19.672  0.00  0.00    +0.000 NA
BRANCH  19  22
ATOM     22  C   UNL     1       1.573   8.324  19.973  0.00  0.00    +0.000 A 
ATOM     23  S   UNL     1       1.679   9.099  18.435  0.00  0.00    +0.000 S 
ATOM     24  C   UNL     1       1.061  10.548  19.108  0.00  0.00    +0.000 A 
ATOM     25  C   UNL     1       0.903  11.774  18.275  0.00  0.00    +0.000 C 
ATOM     26  N   UNL     1       0.763  10.489  20.385  0.00  0.00    +0.000 NA
ATOM     27  C   UNL     1       1.041   9.226  20.889  0.00  0.00    +0.000 A 
ATOM     28  C   UNL     1       0.779   8.992  22.336  0.00  0.00    +0.000 C 
ENDBRANCH  19  22
ENDBRANCH  15  16
ENDBRANCH   1  15
TORSDOF 6
ENDMDL
MODEL 8
REMARK VINA RESULT:      -7.0      4.324      6.285
REMARK  Name = 
REMARK  9 active torsions:
REMARK  status: ('A' for Active; 'I' for Inactive)
REMARK    1  A    between atoms: C_1  and  O_2
REMARK    2  A    between atoms: O_2  and  C_3
REMARK    3  A    between atoms: C_9  and  N_10
REMARK    4  A    between atoms: C_11  and  C_13
REMARK    5  A    between atoms: C_13  and  S_14
REMARK    6  A    between atoms: S_14  and  C_15
REMARK    7  A    between atoms: C_18  and  C_19
REMARK    8  A    between atoms: C_21  and  C_22
REMARK    9  A    between atoms: C_24  and  C_25
REMARK                            x       y       z     vdW  Elec       q    Type
REMARK                         _______ _______ _______ _____ _____    ______ ____
ROOT
ATOM      1  C   UNL     1       0.720  11.431  20.484  0.00  0.00    +0.000 C 
ENDROOT
BRANCH   1   3
ATOM      2  N   UNL     1      -1.440  11.095  19.360  0.00  0.00    +0.000 N 
ATOM      3  C   UNL     1      -0.222  11.765  19.338  0.00  0.00    +0.000 C 
ATOM      4  O   UNL     1       0.112  12.614  18.511  0.00  0.00    +0.000 OA
ATOM      5  H   UNL     1      -1.665  10.523  20.169  0.00  0.00    +0.000 HD
BRANCH   2  12
ATOM      6  C   UNL     1      -3.723  11.774  18.773  0.00  0.00    +0.000 A 
ATOM      7  C   UNL     1      -4.729  11.944  17.809  0.00  0.00    +0.000 A 
ATOM      8  C   UNL     1      -4.539  11.508  16.499  0.00  0.00    +0.000 A 
ATOM      9  C   UNL     1      -3.343  10.897  16.146  0.00  0.00    +0.000 A 
ATOM     10 CL   UNL     1      -3.127  10.324  14.540  0.00  0.00    +0.000 Cl
ATOM     11  C   UNL     1      -2.323  10.747  17.087  0.00  0.00    +0.000 A 
ATOM     12  C   UNL     1      -2.482  11.204  18.397  0.00  0.00    +0.000 A 
BRANCH   6  14
ATOM     13  C   UNL     1      -3.468  13.499  20.385  0.00  0.00    +0.000 C 
ATOM     14  O   UNL     1      -3.864  12.157  20.090  0.00  0.00    +0.000 OA
ENDBRANCH   6  14
ENDBRANCH   2  12
ENDBRANCH   1   3
BRANCH   1  15
ATOM     15  S   UNL     1       0.262   9.835  21.229  0.00  0.00    +0.000 S 
BRANCH  15  16
ATOM     16  C   UNL     1       1.241   8.734  20.231  0.00  0.00    +0.000 A 
ATOM     17  C   UNL     1       1.492   9.039  18.904  0.00  0.00    +0.000 A 
ATOM     18  C   UNL     1       2.186   8.122  18.110  0.00  0.00    +0.000 A 
ATOM     19  C   UNL     1       2.601   6.922  18.672  0.00  0.00    +0.000 A 
ATOM     20  N   UNL     1       2.352   6.660  19.973  0.00  0.00    +0.000 NA
ATOM     21  N   UNL     1       1.667   7.570  20.757  0.00  0.00    +0.000 NA
BRANCH  19  22
ATOM     22  C   UNL     1       3.265   5.848  17.926  0.00  0.00    +0.000 A 
ATOM     23  S   UNL     1       4.820   6.079  17.214  0.00  0.00    +0.000 S 
ATOM     24  C   UNL     1       4.783   4.485  16.586  0.00  0.00    +0.000 A 
ATOM     25  C   UNL     1       5.900   3.965  15.748  0.00  0.00    +0.000 C 
ATOM     26  N   UNL     1       3.710   3.791  16.887  0.00  0.00    +0.000 NA
ATOM     27  C   UNL     1       2.841   4.551  17.657  0.00  0.00    +0.000 A 
ATOM     28  C   UNL     1       1.558   3.919  18.070  0.00  0.00    +0.000 C 
ENDBRANCH  19  22
ENDBRANCH  15  16
ENDBRANCH   1  15
TORSDOF 6
ENDMDL
MODEL 9
REMARK VINA RESULT:      -7.0      3.366      7.229
REMARK  Name = 
REMARK  9 active torsions:
REMARK  status: ('A' for Active; 'I' for Inactive)
REMARK    1  A    between atoms: C_1  and  O_2
REMARK    2  A    between atoms: O_2  and  C_3
REMARK    3  A    between atoms: C_9  and  N_10
REMARK    4  A    between atoms: C_11  and  C_13
REMARK    5  A    between atoms: C_13  and  S_14
REMARK    6  A    between atoms: S_14  and  C_15
REMARK    7  A    between atoms: C_18  and  C_19
REMARK    8  A    between atoms: C_21  and  C_22
REMARK    9  A    between atoms: C_24  and  C_25
REMARK                            x       y       z     vdW  Elec       q    Type
REMARK                         _______ _______ _______ _____ _____    ______ ____
ROOT
ATOM      1  C   UNL     1       2.908   2.175  18.414  0.00  0.00    +0.000 C 
ENDROOT
BRANCH   1   3
ATOM      2  N   UNL     1       4.837   2.879  17.061  0.00  0.00    +0.000 N 
ATOM      3  C   UNL     1       3.475   3.035  17.295  0.00  0.00    +0.000 C 
ATOM      4  O   UNL     1       2.718   3.759  16.648  0.00  0.00    +0.000 OA
ATOM      5  H   UNL     1       5.335   2.148  17.562  0.00  0.00    +0.000 HD
BRANCH   2  12
ATOM      6  C   UNL     1       6.536   4.566  16.528  0.00  0.00    +0.000 A 
ATOM      7  C   UNL     1       7.353   5.210  15.586  0.00  0.00    +0.000 A 
ATOM      8  C   UNL     1       7.228   4.929  14.226  0.00  0.00    +0.000 A 
ATOM      9  C   UNL     1       6.285   4.004  13.802  0.00  0.00    +0.000 A 
ATOM     10 CL   UNL     1       6.106   3.689  12.121  0.00  0.00    +0.000 Cl
ATOM     11  C   UNL     1       5.486   3.334  14.729  0.00  0.00    +0.000 A 
ATOM     12  C   UNL     1       5.615   3.579  16.098  0.00  0.00    +0.000 A 
BRANCH   6  14
ATOM     13  C   UNL     1       6.952   6.161  18.238  0.00  0.00    +0.000 C 
ATOM     14  O   UNL     1       6.591   4.824  17.882  0.00  0.00    +0.000 OA
ENDBRANCH   6  14
ENDBRANCH   2  12
ENDBRANCH   1   3
BRANCH   1  15
ATOM     15  S   UNL     1       3.671   2.630  20.002  0.00  0.00    +0.000 S 
BRANCH  15  16
ATOM     16  C   UNL     1       3.041   4.284  20.186  0.00  0.00    +0.000 A 
ATOM     17  C   UNL     1       1.812   4.495  20.788  0.00  0.00    +0.000 A 
ATOM     18  C   UNL     1       1.292   5.791  20.844  0.00  0.00    +0.000 A 
ATOM     19  C   UNL     1       2.018   6.835  20.288  0.00  0.00    +0.000 A 
ATOM     20  N   UNL     1       3.220   6.598  19.718  0.00  0.00    +0.000 NA
ATOM     21  N   UNL     1       3.734   5.316  19.666  0.00  0.00    +0.000 NA
BRANCH  19  22
ATOM     22  C   UNL     1       1.546   8.221  20.213  0.00  0.00    +0.000 A 
ATOM     23  S   UNL     1       0.921   9.033  21.601  0.00  0.00    +0.000 S 
ATOM     24  C   UNL     1       0.611  10.431  20.660  0.00  0.00    +0.000 A 
ATOM     25  C   UNL     1      -0.025  11.636  21.264  0.00  0.00    +0.000 C 
ATOM     26  N   UNL     1       0.960  10.343  19.398  0.00  0.00    +0.000 NA
ATOM     27  C   UNL     1       1.501   9.094  19.130  0.00  0.00    +0.000 A 
ATOM     28  C   UNL     1       1.932   8.817  17.732  0.00  0.00    +0.000 C 
ENDBRANCH  19  22
ENDBRANCH  15  16
ENDBRANCH   1  15
TORSDOF 6
ENDMDL
