MODEL 1
REMARK VINA RESULT:      -8.1      0.000      0.000
REMARK  Name = 
REMARK  8 active torsions:
REMARK  status: ('A' for Active; 'I' for Inactive)
REMARK    1  A    between atoms: C_1  and  C_2
REMARK    2  A    between atoms: C_3  and  C_4
REMARK    3  A    between atoms: C_3  and  C_5
REMARK    4  A    between atoms: N_7  and  C_8
REMARK    5  A    between atoms: C_12  and  C_13
REMARK    6  A    between atoms: C_19  and  C_20
REMARK    7  A    between atoms: C_24  and  C_26
REMARK    8  A    between atoms: C_26  and  C_27
REMARK                            x       y       z     vdW  Elec       q    Type
REMARK                         _______ _______ _______ _____ _____    ______ ____
ROOT
ATOM      1  C   UNL     1       1.113   7.987  20.503  0.00  0.00    +0.000 C 
ATOM      2  N   UNL     1       0.170   8.096  21.382  0.00  0.00    +0.000 NA
ATOM      3  O   UNL     1      -0.321   9.424  21.319  0.00  0.00    +0.000 OA
ATOM      4  C   UNL     1       0.162  10.023  20.109  0.00  0.00    +0.000 C 
ATOM      5  C   UNL     1       1.384   9.226  19.722  0.00  0.00    +0.000 C 
ATOM      6  C   UNL     1       0.446  11.493  20.338  0.00  0.00    +0.000 C 
ATOM      7  C   UNL     1      -0.890  12.199  20.056  0.00  0.00    +0.000 C 
ATOM      8  N   UNL     1      -1.504  11.351  19.017  0.00  0.00    +0.000 N 
ATOM      9  C   UNL     1      -2.747  11.606  18.458  0.00  0.00    +0.000 C 
ATOM     10  O   UNL     1      -3.396  12.620  18.694  0.00  0.00    +0.000 OA
ATOM     11  C   UNL     1      -0.936  10.009  19.048  0.00  0.00    +0.000 C 
ENDROOT
BRANCH   1  16
ATOM     12  C   UNL     1       3.734   5.609  19.168  0.00  0.00    +0.000 A 
ATOM     13  C   UNL     1       3.367   4.440  19.844  0.00  0.00    +0.000 A 
ATOM     14  C   UNL     1       2.285   4.416  20.718  0.00  0.00    +0.000 A 
ATOM     15  C   UNL     1       1.552   5.572  20.939  0.00  0.00    +0.000 A 
ATOM     16  C   UNL     1       1.915   6.761  20.298  0.00  0.00    +0.000 A 
ATOM     17  C   UNL     1       3.017   6.784  19.425  0.00  0.00    +0.000 A 
BRANCH  12  20
ATOM     18  C   UNL     1       6.135   5.556  18.536  0.00  0.00    +0.000 C 
ATOM     19  O   UNL     1       6.580   5.415  19.670  0.00  0.00    +0.000 OA
ATOM     20  N   UNL     1       4.793   5.646  18.220  0.00  0.00    +0.000 N 
ATOM     21  H   UNL     1       4.526   5.615  17.247  0.00  0.00    +0.000 HD
BRANCH  18  24
ATOM     22  C   UNL     1       7.494   8.120  17.769  0.00  0.00    +0.000 C 
ATOM     23  C   UNL     1       7.648   6.816  17.044  0.00  0.00    +0.000 C 
ATOM     24  C   UNL     1       7.088   5.629  17.374  0.00  0.00    +0.000 C 
ATOM     25  C   UNL     1       7.296   4.415  16.520  0.00  0.00    +0.000 C 
ENDBRANCH  18  24
ENDBRANCH  12  20
ENDBRANCH   1  16
BRANCH   7  26
ATOM     26  C   UNL     1      -0.535  13.676  19.756  0.00  0.00    +0.000 C 
ATOM     27  N   UNL     1      -1.500  14.615  19.960  0.00  0.00    +0.000 N 
ATOM     28  O   UNL     1       0.598  14.040  19.453  0.00  0.00    +0.000 OA
ATOM     29  H   UNL     1      -1.201  15.579  19.925  0.00  0.00    +0.000 HD
ATOM     30  H   UNL     1      -2.290  14.389  20.561  0.00  0.00    +0.000 HD
ENDBRANCH   7  26
BRANCH   9  31
ATOM     31  C   UNL     1      -3.274  10.600  17.448  0.00  0.00    +0.000 C 
ATOM     32  C   UNL     1      -3.776   9.277  17.982  0.00  0.00    +0.000 C 
ATOM     33  C   UNL     1      -4.063  11.139  16.258  0.00  0.00    +0.000 C 
ATOM     34  C   UNL     1      -2.672  10.643  16.045  0.00  0.00    +0.000 C 
ENDBRANCH   9  31
TORSDOF 5
ENDMDL
MODEL 2
REMARK VINA RESULT:      -7.9      3.043      8.887
REMARK  Name = 
REMARK  8 active torsions:
REMARK  status: ('A' for Active; 'I' for Inactive)
REMARK    1  A    between atoms: C_1  and  C_2
REMARK    2  A    between atoms: C_3  and  C_4
REMARK    3  A    between atoms: C_3  and  C_5
REMARK    4  A    between atoms: N_7  and  C_8
REMARK    5  A    between atoms: C_12  and  C_13
REMARK    6  A    between atoms: C_19  and  C_20
REMARK    7  A    between atoms: C_24  and  C_26
REMARK    8  A    between atoms: C_26  and  C_27
REMARK                            x       y       z     vdW  Elec       q    Type
REMARK                         _______ _______ _______ _____ _____    ______ ____
ROOT
ATOM      1  C   UNL     1       1.589   8.654  19.113  0.00  0.00    +0.000 C 
ATOM      2  N   UNL     1       1.871   8.164  20.277  0.00  0.00    +0.000 NA
ATOM      3  O   UNL     1       2.214   6.801  20.093  0.00  0.00    +0.000 OA
ATOM      4  C   UNL     1       2.445   6.582  18.695  0.00  0.00    +0.000 C 
ATOM      5  C   UNL     1       1.709   7.691  17.984  0.00  0.00    +0.000 C 
ATOM      6  C   UNL     1       1.974   5.196  18.304  0.00  0.00    +0.000 C 
ATOM      7  C   UNL     1       3.185   4.284  18.562  0.00  0.00    +0.000 C 
ATOM      8  N   UNL     1       4.334   5.167  18.290  0.00  0.00    +0.000 N 
ATOM      9  C   UNL     1       5.654   4.762  18.408  0.00  0.00    +0.000 C 
ATOM     10  O   UNL     1       5.985   3.604  18.638  0.00  0.00    +0.000 OA
ATOM     11  C   UNL     1       3.945   6.566  18.412  0.00  0.00    +0.000 C 
ENDROOT
BRANCH   1  16
ATOM     12  C   UNL     1       1.628  12.344  18.283  0.00  0.00    +0.000 A 
ATOM     13  C   UNL     1       0.295  12.669  18.560  0.00  0.00    +0.000 A 
ATOM     14  C   UNL     1      -0.606  11.711  19.012  0.00  0.00    +0.000 A 
ATOM     15  C   UNL     1      -0.189  10.400  19.188  0.00  0.00    +0.000 A 
ATOM     16  C   UNL     1       1.130  10.043  18.891  0.00  0.00    +0.000 A 
ATOM     17  C   UNL     1       2.035  11.012  18.422  0.00  0.00    +0.000 A 
BRANCH  12  20
ATOM     18  C   UNL     1       3.286  14.133  18.749  0.00  0.00    +0.000 C 
ATOM     19  O   UNL     1       3.180  14.112  19.971  0.00  0.00    +0.000 OA
ATOM     20  N   UNL     1       2.587  13.315  17.883  0.00  0.00    +0.000 N 
ATOM     21  H   UNL     1       2.852  13.310  16.909  0.00  0.00    +0.000 HD
BRANCH  18  24
ATOM     22  C   UNL     1       2.425  16.875  17.884  0.00  0.00    +0.000 C 
ATOM     23  C   UNL     1       3.802  16.310  17.702  0.00  0.00    +0.000 C 
ATOM     24  C   UNL     1       4.246  15.098  18.109  0.00  0.00    +0.000 C 
ATOM     25  C   UNL     1       5.645  14.649  17.809  0.00  0.00    +0.000 C 
ENDBRANCH  18  24
ENDBRANCH  12  20
ENDBRANCH   1  16
BRANCH   7  26
ATOM     26  C   UNL     1       2.949   3.014  17.708  0.00  0.00    +0.000 C 
ATOM     27  N   UNL     1       3.496   1.846  18.143  0.00  0.00    +0.000 N 
ATOM     28  O   UNL     1       2.209   2.999  16.728  0.00  0.00    +0.000 OA
ATOM     29  H   UNL     1       3.191   1.006  17.671  0.00  0.00    +0.000 HD
ATOM     30  H   UNL     1       3.771   1.763  19.120  0.00  0.00    +0.000 HD
ENDBRANCH   7  26
BRANCH   9  31
ATOM     31  C   UNL     1       6.728   5.809  18.160  0.00  0.00    +0.000 C 
ATOM     32  C   UNL     1       7.734   6.047  19.263  0.00  0.00    +0.000 C 
ATOM     33  C   UNL     1       7.302   5.914  16.750  0.00  0.00    +0.000 C 
ATOM     34  C   UNL     1       6.366   6.970  17.235  0.00  0.00    +0.000 C 
ENDBRANCH   9  31
TORSDOF 5
ENDMDL
MODEL 3
REMARK VINA RESULT:      -7.9      1.229      1.390
REMARK  Name = 
REMARK  8 active torsions:
REMARK  status: ('A' for Active; 'I' for Inactive)
REMARK    1  A    between atoms: C_1  and  C_2
REMARK    2  A    between atoms: C_3  and  C_4
REMARK    3  A    between atoms: C_3  and  C_5
REMARK    4  A    between atoms: N_7  and  C_8
REMARK    5  A    between atoms: C_12  and  C_13
REMARK    6  A    between atoms: C_19  and  C_20
REMARK    7  A    between atoms: C_24  and  C_26
REMARK    8  A    between atoms: C_26  and  C_27
REMARK                            x       y       z     vdW  Elec       q    Type
REMARK                         _______ _______ _______ _____ _____    ______ ____
ROOT
ATOM      1  C   UNL     1       1.351   7.975  20.202  0.00  0.00    +0.000 C 
ATOM      2  N   UNL     1       0.489   8.179  21.146  0.00  0.00    +0.000 NA
ATOM      3  O   UNL     1       0.030   9.514  21.022  0.00  0.00    +0.000 OA
ATOM      4  C   UNL     1       0.423  10.005  19.733  0.00  0.00    +0.000 C 
ATOM      5  C   UNL     1       1.586   9.142  19.309  0.00  0.00    +0.000 C 
ATOM      6  C   UNL     1       0.764  11.478  19.823  0.00  0.00    +0.000 C 
ATOM      7  C   UNL     1      -0.573  12.204  19.600  0.00  0.00    +0.000 C 
ATOM      8  N   UNL     1      -1.295  11.302  18.684  0.00  0.00    +0.000 N 
ATOM      9  C   UNL     1      -2.574  11.554  18.214  0.00  0.00    +0.000 C 
ATOM     10  O   UNL     1      -3.174  12.604  18.424  0.00  0.00    +0.000 OA
ATOM     11  C   UNL     1      -0.762   9.948  18.772  0.00  0.00    +0.000 C 
ENDROOT
BRANCH   1  16
ATOM     12  C   UNL     1       3.752   5.403  18.814  0.00  0.00    +0.000 A 
ATOM     13  C   UNL     1       3.443   4.314  19.637  0.00  0.00    +0.000 A 
ATOM     14  C   UNL     1       2.470   4.405  20.626  0.00  0.00    +0.000 A 
ATOM     15  C   UNL     1       1.790   5.599  20.817  0.00  0.00    +0.000 A 
ATOM     16  C   UNL     1       2.100   6.711  20.027  0.00  0.00    +0.000 A 
ATOM     17  C   UNL     1       3.093   6.619  19.036  0.00  0.00    +0.000 A 
BRANCH  12  20
ATOM     18  C   UNL     1       4.868   4.216  16.940  0.00  0.00    +0.000 C 
ATOM     19  O   UNL     1       4.220   3.179  17.021  0.00  0.00    +0.000 OA
ATOM     20  N   UNL     1       4.695   5.320  17.752  0.00  0.00    +0.000 N 
ATOM     21  H   UNL     1       5.176   6.174  17.511  0.00  0.00    +0.000 HD
BRANCH  18  24
ATOM     22  C   UNL     1       7.764   4.563  17.649  0.00  0.00    +0.000 C 
ATOM     23  C   UNL     1       7.219   4.533  16.251  0.00  0.00    +0.000 C 
ATOM     24  C   UNL     1       5.931   4.341  15.882  0.00  0.00    +0.000 C 
ATOM     25  C   UNL     1       5.528   4.387  14.440  0.00  0.00    +0.000 C 
ENDBRANCH  18  24
ENDBRANCH  12  20
ENDBRANCH   1  16
BRANCH   7  26
ATOM     26  C   UNL     1      -0.205  13.642  19.158  0.00  0.00    +0.000 C 
ATOM     27  N   UNL     1      -1.104  14.633  19.414  0.00  0.00    +0.000 N 
ATOM     28  O   UNL     1       0.892  13.937  18.694  0.00  0.00    +0.000 OA
ATOM     29  H   UNL     1      -0.777  15.579  19.276  0.00  0.00    +0.000 HD
ATOM     30  H   UNL     1      -1.819  14.481  20.122  0.00  0.00    +0.000 HD
ENDBRANCH   7  26
BRANCH   9  31
ATOM     31  C   UNL     1      -3.212  10.493  17.331  0.00  0.00    +0.000 C 
ATOM     32  C   UNL     1      -3.801   9.282  18.018  0.00  0.00    +0.000 C 
ATOM     33  C   UNL     1      -3.993  10.966  16.108  0.00  0.00    +0.000 C 
ATOM     34  C   UNL     1      -2.653  10.336  15.918  0.00  0.00    +0.000 C 
ENDBRANCH   9  31
TORSDOF 5
ENDMDL
MODEL 4
REMARK VINA RESULT:      -7.8      1.372      1.616
REMARK  Name = 
REMARK  8 active torsions:
REMARK  status: ('A' for Active; 'I' for Inactive)
REMARK    1  A    between atoms: C_1  and  C_2
REMARK    2  A    between atoms: C_3  and  C_4
REMARK    3  A    between atoms: C_3  and  C_5
REMARK    4  A    between atoms: N_7  and  C_8
REMARK    5  A    between atoms: C_12  and  C_13
REMARK    6  A    between atoms: C_19  and  C_20
REMARK    7  A    between atoms: C_24  and  C_26
REMARK    8  A    between atoms: C_26  and  C_27
REMARK                            x       y       z     vdW  Elec       q    Type
REMARK                         _______ _______ _______ _____ _____    ______ ____
ROOT
ATOM      1  C   UNL     1       1.478   7.707  20.214  0.00  0.00    +0.000 C 
ATOM      2  N   UNL     1       0.678   8.065  21.166  0.00  0.00    +0.000 NA
ATOM      3  O   UNL     1       0.316   9.415  20.932  0.00  0.00    +0.000 OA
ATOM      4  C   UNL     1       0.687   9.752  19.589  0.00  0.00    +0.000 C 
ATOM      5  C   UNL     1       1.761   8.764  19.205  0.00  0.00    +0.000 C 
ATOM      6  C   UNL     1       1.142  11.196  19.525  0.00  0.00    +0.000 C 
ATOM      7  C   UNL     1      -0.145  12.002  19.284  0.00  0.00    +0.000 C 
ATOM      8  N   UNL     1      -0.974  11.080  18.486  0.00  0.00    +0.000 N 
ATOM      9  C   UNL     1      -2.249  11.389  18.042  0.00  0.00    +0.000 C 
ATOM     10  O   UNL     1      -2.758  12.497  18.173  0.00  0.00    +0.000 OA
ATOM     11  C   UNL     1      -0.541   9.702  18.682  0.00  0.00    +0.000 C 
ENDROOT
BRANCH   1  16
ATOM     12  C   UNL     1       3.934   4.969  19.328  0.00  0.00    +0.000 A 
ATOM     13  C   UNL     1       3.286   3.868  19.898  0.00  0.00    +0.000 A 
ATOM     14  C   UNL     1       2.069   4.005  20.559  0.00  0.00    +0.000 A 
ATOM     15  C   UNL     1       1.480   5.255  20.668  0.00  0.00    +0.000 A 
ATOM     16  C   UNL     1       2.121   6.376  20.132  0.00  0.00    +0.000 A 
ATOM     17  C   UNL     1       3.357   6.237  19.476  0.00  0.00    +0.000 A 
BRANCH  12  20
ATOM     18  C   UNL     1       5.217   4.629  17.229  0.00  0.00    +0.000 C 
ATOM     19  O   UNL     1       4.248   4.526  16.484  0.00  0.00    +0.000 OA
ATOM     20  N   UNL     1       5.144   4.850  18.591  0.00  0.00    +0.000 N 
ATOM     21  H   UNL     1       5.996   5.064  19.088  0.00  0.00    +0.000 HD
BRANCH  18  24
ATOM     22  C   UNL     1       5.681   4.262  14.287  0.00  0.00    +0.000 C 
ATOM     23  C   UNL     1       6.761   4.323  15.326  0.00  0.00    +0.000 C 
ATOM     24  C   UNL     1       6.603   4.525  16.654  0.00  0.00    +0.000 C 
ATOM     25  C   UNL     1       7.781   4.512  17.581  0.00  0.00    +0.000 C 
ENDBRANCH  18  24
ENDBRANCH  12  20
ENDBRANCH   1  16
BRANCH   7  26
ATOM     26  C   UNL     1       0.310  13.360  18.694  0.00  0.00    +0.000 C 
ATOM     27  N   UNL     1      -0.566  14.401  18.749  0.00  0.00    +0.000 N 
ATOM     28  O   UNL     1       1.450  13.560  18.286  0.00  0.00    +0.000 OA
ATOM     29  H   UNL     1      -0.193  15.312  18.519  0.00  0.00    +0.000 HD
ATOM     30  H   UNL     1      -1.338  14.362  19.411  0.00  0.00    +0.000 HD
ENDBRANCH   7  26
BRANCH   9  31
ATOM     31  C   UNL     1      -3.005  10.305  17.289  0.00  0.00    +0.000 C 
ATOM     32  C   UNL     1      -3.726   9.262  18.113  0.00  0.00    +0.000 C 
ATOM     33  C   UNL     1      -3.730  10.708  16.008  0.00  0.00    +0.000 C 
ATOM     34  C   UNL     1      -2.470   9.913  15.913  0.00  0.00    +0.000 C 
ENDBRANCH   9  31
TORSDOF 5
ENDMDL
MODEL 5
REMARK VINA RESULT:      -7.7      2.087      9.424
REMARK  Name = 
REMARK  8 active torsions:
REMARK  status: ('A' for Active; 'I' for Inactive)
REMARK    1  A    between atoms: C_1  and  C_2
REMARK    2  A    between atoms: C_3  and  C_4
REMARK    3  A    between atoms: C_3  and  C_5
REMARK    4  A    between atoms: N_7  and  C_8
REMARK    5  A    between atoms: C_12  and  C_13
REMARK    6  A    between atoms: C_19  and  C_20
REMARK    7  A    between atoms: C_24  and  C_26
REMARK    8  A    between atoms: C_26  and  C_27
REMARK                            x       y       z     vdW  Elec       q    Type
REMARK                         _______ _______ _______ _____ _____    ______ ____
ROOT
ATOM      1  C   UNL     1       1.558   8.604  19.225  0.00  0.00    +0.000 C 
ATOM      2  N   UNL     1       1.900   8.108  20.371  0.00  0.00    +0.000 NA
ATOM      3  O   UNL     1       2.294   6.764  20.153  0.00  0.00    +0.000 OA
ATOM      4  C   UNL     1       2.486   6.577  18.745  0.00  0.00    +0.000 C 
ATOM      5  C   UNL     1       1.680   7.664  18.077  0.00  0.00    +0.000 C 
ATOM      6  C   UNL     1       2.061   5.178  18.347  0.00  0.00    +0.000 C 
ATOM      7  C   UNL     1       3.317   4.314  18.550  0.00  0.00    +0.000 C 
ATOM      8  N   UNL     1       4.418   5.249  18.254  0.00  0.00    +0.000 N 
ATOM      9  C   UNL     1       5.758   4.900  18.322  0.00  0.00    +0.000 C 
ATOM     10  O   UNL     1       6.144   3.753  18.522  0.00  0.00    +0.000 OA
ATOM     11  C   UNL     1       3.976   6.629  18.412  0.00  0.00    +0.000 C 
ENDROOT
BRANCH   1  16
ATOM     12  C   UNL     1      -0.641  11.473  18.112  0.00  0.00    +0.000 A 
ATOM     13  C   UNL     1       0.094  12.551  18.617  0.00  0.00    +0.000 A 
ATOM     14  C   UNL     1       1.286  12.358  19.307  0.00  0.00    +0.000 A 
ATOM     15  C   UNL     1       1.764  11.072  19.512  0.00  0.00    +0.000 A 
ATOM     16  C   UNL     1       1.034   9.975  19.042  0.00  0.00    +0.000 A 
ATOM     17  C   UNL     1      -0.177  10.174  18.356  0.00  0.00    +0.000 A 
BRANCH  12  20
ATOM     18  C   UNL     1      -2.860  10.728  17.282  0.00  0.00    +0.000 C 
ATOM     19  O   UNL     1      -2.890   9.663  17.889  0.00  0.00    +0.000 OA
ATOM     20  N   UNL     1      -1.828  11.644  17.347  0.00  0.00    +0.000 N 
ATOM     21  H   UNL     1      -1.964  12.551  16.926  0.00  0.00    +0.000 HD
BRANCH  18  24
ATOM     22  C   UNL     1      -2.932  10.002  14.371  0.00  0.00    +0.000 C 
ATOM     23  C   UNL     1      -3.989  10.790  15.086  0.00  0.00    +0.000 C 
ATOM     24  C   UNL     1      -4.019  11.108  16.402  0.00  0.00    +0.000 C 
ATOM     25  C   UNL     1      -5.123  11.950  16.966  0.00  0.00    +0.000 C 
ENDBRANCH  18  24
ENDBRANCH  12  20
ENDBRANCH   1  16
BRANCH   7  26
ATOM     26  C   UNL     1       3.106   3.049  17.682  0.00  0.00    +0.000 C 
ATOM     27  N   UNL     1       3.827   1.937  17.996  0.00  0.00    +0.000 N 
ATOM     28  O   UNL     1       2.249   2.977  16.807  0.00  0.00    +0.000 OA
ATOM     29  H   UNL     1       3.553   1.081  17.535  0.00  0.00    +0.000 HD
ATOM     30  H   UNL     1       4.236   1.860  18.925  0.00  0.00    +0.000 HD
ENDBRANCH   7  26
BRANCH   9  31
ATOM     31  C   UNL     1       6.777   5.995  18.056  0.00  0.00    +0.000 C 
ATOM     32  C   UNL     1       7.815   6.253  19.125  0.00  0.00    +0.000 C 
ATOM     33  C   UNL     1       7.292   6.151  16.628  0.00  0.00    +0.000 C 
ATOM     34  C   UNL     1       6.333   7.158  17.170  0.00  0.00    +0.000 C 
ENDBRANCH   9  31
TORSDOF 5
ENDMDL
MODEL 6
REMARK VINA RESULT:      -7.6      0.946      1.395
REMARK  Name = 
REMARK  8 active torsions:
REMARK  status: ('A' for Active; 'I' for Inactive)
REMARK    1  A    between atoms: C_1  and  C_2
REMARK    2  A    between atoms: C_3  and  C_4
REMARK    3  A    between atoms: C_3  and  C_5
REMARK    4  A    between atoms: N_7  and  C_8
REMARK    5  A    between atoms: C_12  and  C_13
REMARK    6  A    between atoms: C_19  and  C_20
REMARK    7  A    between atoms: C_24  and  C_26
REMARK    8  A    between atoms: C_26  and  C_27
REMARK                            x       y       z     vdW  Elec       q    Type
REMARK                         _______ _______ _______ _____ _____    ______ ____
ROOT
ATOM      1  C   UNL     1       1.116   7.818  20.528  0.00  0.00    +0.000 C 
ATOM      2  N   UNL     1       0.166   7.926  21.400  0.00  0.00    +0.000 NA
ATOM      3  O   UNL     1      -0.305   9.262  21.355  0.00  0.00    +0.000 OA
ATOM      4  C   UNL     1       0.199   9.874  20.160  0.00  0.00    +0.000 C 
ATOM      5  C   UNL     1       1.413   9.065  19.772  0.00  0.00    +0.000 C 
ATOM      6  C   UNL     1       0.502  11.336  20.416  0.00  0.00    +0.000 C 
ATOM      7  C   UNL     1      -0.821  12.066  20.133  0.00  0.00    +0.000 C 
ATOM      8  N   UNL     1      -1.437  11.245  19.074  0.00  0.00    +0.000 N 
ATOM      9  C   UNL     1      -2.670  11.527  18.508  0.00  0.00    +0.000 C 
ATOM     10  O   UNL     1      -3.306  12.546  18.755  0.00  0.00    +0.000 OA
ATOM     11  C   UNL     1      -0.889   9.894  19.089  0.00  0.00    +0.000 C 
ENDROOT
BRANCH   1  16
ATOM     12  C   UNL     1       3.873   5.485  19.407  0.00  0.00    +0.000 A 
ATOM     13  C   UNL     1       3.338   4.260  19.821  0.00  0.00    +0.000 A 
ATOM     14  C   UNL     1       2.100   4.185  20.452  0.00  0.00    +0.000 A 
ATOM     15  C   UNL     1       1.376   5.344  20.689  0.00  0.00    +0.000 A 
ATOM     16  C   UNL     1       1.902   6.583  20.311  0.00  0.00    +0.000 A 
ATOM     17  C   UNL     1       3.158   6.656  19.685  0.00  0.00    +0.000 A 
BRANCH  12  20
ATOM     18  C   UNL     1       5.252   6.164  17.456  0.00  0.00    +0.000 C 
ATOM     19  O   UNL     1       4.345   6.679  16.812  0.00  0.00    +0.000 OA
ATOM     20  N   UNL     1       5.104   5.585  18.702  0.00  0.00    +0.000 N 
ATOM     21  H   UNL     1       5.936   5.320  19.209  0.00  0.00    +0.000 HD
BRANCH  18  24
ATOM     22  C   UNL     1       6.160   4.030  15.551  0.00  0.00    +0.000 C 
ATOM     23  C   UNL     1       7.020   5.148  16.062  0.00  0.00    +0.000 C 
ATOM     24  C   UNL     1       6.645   6.152  16.888  0.00  0.00    +0.000 C 
ATOM     25  C   UNL     1       7.635   7.176  17.355  0.00  0.00    +0.000 C 
ENDBRANCH  18  24
ENDBRANCH  12  20
ENDBRANCH   1  16
BRANCH   7  26
ATOM     26  C   UNL     1      -0.441  13.542  19.862  0.00  0.00    +0.000 C 
ATOM     27  N   UNL     1      -0.619  14.022  18.601  0.00  0.00    +0.000 N 
ATOM     28  O   UNL     1      -0.095  14.315  20.751  0.00  0.00    +0.000 OA
ATOM     29  H   UNL     1      -0.530  15.022  18.485  0.00  0.00    +0.000 HD
ATOM     30  H   UNL     1      -1.249  13.530  17.970  0.00  0.00    +0.000 HD
ENDBRANCH   7  26
BRANCH   9  31
ATOM     31  C   UNL     1      -3.202  10.546  17.476  0.00  0.00    +0.000 C 
ATOM     32  C   UNL     1      -3.817   9.263  17.989  0.00  0.00    +0.000 C 
ATOM     33  C   UNL     1      -3.887  11.122  16.240  0.00  0.00    +0.000 C 
ATOM     34  C   UNL     1      -2.520  10.537  16.109  0.00  0.00    +0.000 C 
ENDBRANCH   9  31
TORSDOF 5
ENDMDL
MODEL 7
REMARK VINA RESULT:      -7.5      2.430      3.934
REMARK  Name = 
REMARK  8 active torsions:
REMARK  status: ('A' for Active; 'I' for Inactive)
REMARK    1  A    between atoms: C_1  and  C_2
REMARK    2  A    between atoms: C_3  and  C_4
REMARK    3  A    between atoms: C_3  and  C_5
REMARK    4  A    between atoms: N_7  and  C_8
REMARK    5  A    between atoms: C_12  and  C_13
REMARK    6  A    between atoms: C_19  and  C_20
REMARK    7  A    between atoms: C_24  and  C_26
REMARK    8  A    between atoms: C_26  and  C_27
REMARK                            x       y       z     vdW  Elec       q    Type
REMARK                         _______ _______ _______ _____ _____    ______ ____
ROOT
ATOM      1  C   UNL     1       1.375   8.819  19.021  0.00  0.00    +0.000 C 
ATOM      2  N   UNL     1       1.050   9.294  17.862  0.00  0.00    +0.000 NA
ATOM      3  O   UNL     1       0.256  10.447  18.082  0.00  0.00    +0.000 OA
ATOM      4  C   UNL     1       0.397  10.833  19.456  0.00  0.00    +0.000 C 
ATOM      5  C   UNL     1       0.848   9.589  20.181  0.00  0.00    +0.000 C 
ATOM      6  C   UNL     1      -0.913  11.392  19.972  0.00  0.00    +0.000 C 
ATOM      7  C   UNL     1      -0.860  12.891  19.632  0.00  0.00    +0.000 C 
ATOM      8  N   UNL     1       0.578  13.205  19.727  0.00  0.00    +0.000 N 
ATOM      9  C   UNL     1       1.102  14.465  19.485  0.00  0.00    +0.000 C 
ATOM     10  O   UNL     1       0.408  15.456  19.285  0.00  0.00    +0.000 OA
ATOM     11  C   UNL     1       1.378  11.997  19.571  0.00  0.00    +0.000 C 
ENDROOT
BRANCH   1  16
ATOM     12  C   UNL     1       3.868   6.036  18.432  0.00  0.00    +0.000 A 
ATOM     13  C   UNL     1       3.576   5.214  19.525  0.00  0.00    +0.000 A 
ATOM     14  C   UNL     1       2.585   5.550  20.442  0.00  0.00    +0.000 A 
ATOM     15  C   UNL     1       1.869   6.727  20.283  0.00  0.00    +0.000 A 
ATOM     16  C   UNL     1       2.161   7.580  19.215  0.00  0.00    +0.000 A 
ATOM     17  C   UNL     1       3.172   7.244  18.297  0.00  0.00    +0.000 A 
BRANCH  12  20
ATOM     18  C   UNL     1       4.774   4.548  16.661  0.00  0.00    +0.000 C 
ATOM     19  O   UNL     1       3.883   3.708  16.709  0.00  0.00    +0.000 OA
ATOM     20  N   UNL     1       4.829   5.686  17.443  0.00  0.00    +0.000 N 
ATOM     21  H   UNL     1       5.525   6.385  17.226  0.00  0.00    +0.000 HD
BRANCH  18  24
ATOM     22  C   UNL     1       7.641   4.548  17.548  0.00  0.00    +0.000 C 
ATOM     23  C   UNL     1       7.182   4.414  16.127  0.00  0.00    +0.000 C 
ATOM     24  C   UNL     1       5.904   4.370  15.684  0.00  0.00    +0.000 C 
ATOM     25  C   UNL     1       5.599   4.283  14.219  0.00  0.00    +0.000 C 
ENDBRANCH  18  24
ENDBRANCH  12  20
ENDBRANCH   1  16
BRANCH   7  26
ATOM     26  C   UNL     1      -1.878  13.576  20.577  0.00  0.00    +0.000 C 
ATOM     27  N   UNL     1      -2.413  14.763  20.179  0.00  0.00    +0.000 N 
ATOM     28  O   UNL     1      -2.297  13.046  21.602  0.00  0.00    +0.000 OA
ATOM     29  H   UNL     1      -3.194  15.106  20.721  0.00  0.00    +0.000 HD
ATOM     30  H   UNL     1      -2.378  15.016  19.194  0.00  0.00    +0.000 HD
ENDBRANCH   7  26
BRANCH   9  31
ATOM     31  C   UNL     1       2.614  14.614  19.555  0.00  0.00    +0.000 C 
ATOM     32  C   UNL     1       3.403  14.275  18.310  0.00  0.00    +0.000 C 
ATOM     33  C   UNL     1       3.173  15.787  20.356  0.00  0.00    +0.000 C 
ATOM     34  C   UNL     1       3.270  14.408  20.919  0.00  0.00    +0.000 C 
ENDBRANCH   9  31
TORSDOF 5
ENDMDL
MODEL 8
REMARK VINA RESULT:      -7.4      2.042      9.439
REMARK  Name = 
REMARK  8 active torsions:
REMARK  status: ('A' for Active; 'I' for Inactive)
REMARK    1  A    between atoms: C_1  and  C_2
REMARK    2  A    between atoms: C_3  and  C_4
REMARK    3  A    between atoms: C_3  and  C_5
REMARK    4  A    between atoms: N_7  and  C_8
REMARK    5  A    between atoms: C_12  and  C_13
REMARK    6  A    between atoms: C_19  and  C_20
REMARK    7  A    between atoms: C_24  and  C_26
REMARK    8  A    between atoms: C_26  and  C_27
REMARK                            x       y       z     vdW  Elec       q    Type
REMARK                         _______ _______ _______ _____ _____    ______ ____
ROOT
ATOM      1  C   UNL     1       1.527   8.282  19.611  0.00  0.00    +0.000 C 
ATOM      2  N   UNL     1       1.958   7.777  20.722  0.00  0.00    +0.000 NA
ATOM      3  O   UNL     1       2.384   6.453  20.452  0.00  0.00    +0.000 OA
ATOM      4  C   UNL     1       2.493   6.299  19.030  0.00  0.00    +0.000 C 
ATOM      5  C   UNL     1       1.609   7.369  18.438  0.00  0.00    +0.000 C 
ATOM      6  C   UNL     1       2.093   4.893  18.631  0.00  0.00    +0.000 C 
ATOM      7  C   UNL     1       3.388   4.072  18.736  0.00  0.00    +0.000 C 
ATOM      8  N   UNL     1       4.435   5.052  18.391  0.00  0.00    +0.000 N 
ATOM      9  C   UNL     1       5.787   4.750  18.368  0.00  0.00    +0.000 C 
ATOM     10  O   UNL     1       6.226   3.614  18.519  0.00  0.00    +0.000 OA
ATOM     11  C   UNL     1       3.955   6.411  18.606  0.00  0.00    +0.000 C 
ENDROOT
BRANCH   1  16
ATOM     12  C   UNL     1      -0.616  11.159  18.414  0.00  0.00    +0.000 A 
ATOM     13  C   UNL     1      -0.089  12.195  19.194  0.00  0.00    +0.000 A 
ATOM     14  C   UNL     1       0.948  11.970  20.094  0.00  0.00    +0.000 A 
ATOM     15  C   UNL     1       1.473  10.695  20.236  0.00  0.00    +0.000 A 
ATOM     16  C   UNL     1       0.945   9.637  19.490  0.00  0.00    +0.000 A 
ATOM     17  C   UNL     1      -0.111   9.865  18.590  0.00  0.00    +0.000 A 
BRANCH  12  20
ATOM     18  C   UNL     1      -2.728  10.554  17.256  0.00  0.00    +0.000 C 
ATOM     19  O   UNL     1      -2.975   9.553  17.920  0.00  0.00    +0.000 OA
ATOM     20  N   UNL     1      -1.630  11.372  17.440  0.00  0.00    +0.000 N 
ATOM     21  H   UNL     1      -1.595  12.248  16.939  0.00  0.00    +0.000 HD
BRANCH  18  24
ATOM     22  C   UNL     1      -5.253  12.070  17.832  0.00  0.00    +0.000 C 
ATOM     23  C   UNL     1      -4.817  11.612  16.471  0.00  0.00    +0.000 C 
ATOM     24  C   UNL     1      -3.673  10.961  16.158  0.00  0.00    +0.000 C 
ATOM     25  C   UNL     1      -3.396  10.521  14.753  0.00  0.00    +0.000 C 
ENDBRANCH  18  24
ENDBRANCH  12  20
ENDBRANCH   1  16
BRANCH   7  26
ATOM     26  C   UNL     1       3.167   2.816  17.857  0.00  0.00    +0.000 C 
ATOM     27  N   UNL     1       3.893   1.702  18.148  0.00  0.00    +0.000 N 
ATOM     28  O   UNL     1       2.298   2.754  16.993  0.00  0.00    +0.000 OA
ATOM     29  H   UNL     1       3.614   0.851  17.680  0.00  0.00    +0.000 HD
ATOM     30  H   UNL     1       4.315   1.615  19.070  0.00  0.00    +0.000 HD
ENDBRANCH   7  26
BRANCH   9  31
ATOM     31  C   UNL     1       6.749   5.886  18.061  0.00  0.00    +0.000 C 
ATOM     32  C   UNL     1       7.768   6.238  19.121  0.00  0.00    +0.000 C 
ATOM     33  C   UNL     1       7.260   6.014  16.629  0.00  0.00    +0.000 C 
ATOM     34  C   UNL     1       6.248   6.989  17.130  0.00  0.00    +0.000 C 
ENDBRANCH   9  31
TORSDOF 5
ENDMDL
MODEL 9
REMARK VINA RESULT:      -7.4      1.978      3.362
REMARK  Name = 
REMARK  8 active torsions:
REMARK  status: ('A' for Active; 'I' for Inactive)
REMARK    1  A    between atoms: C_1  and  C_2
REMARK    2  A    between atoms: C_3  and  C_4
REMARK    3  A    between atoms: C_3  and  C_5
REMARK    4  A    between atoms: N_7  and  C_8
REMARK    5  A    between atoms: C_12  and  C_13
REMARK    6  A    between atoms: C_19  and  C_20
REMARK    7  A    between atoms: C_24  and  C_26
REMARK    8  A    between atoms: C_26  and  C_27
REMARK                            x       y       z     vdW  Elec       q    Type
REMARK                         _______ _______ _______ _____ _____    ______ ____
ROOT
ATOM      1  C   UNL     1       1.626   8.961  19.002  0.00  0.00    +0.000 C 
ATOM      2  N   UNL     1       0.973   8.733  20.095  0.00  0.00    +0.000 NA
ATOM      3  O   UNL     1       0.252   9.911  20.413  0.00  0.00    +0.000 OA
ATOM      4  C   UNL     1       0.248  10.760  19.258  0.00  0.00    +0.000 C 
ATOM      5  C   UNL     1       1.430  10.321  18.429  0.00  0.00    +0.000 C 
ATOM      6  C   UNL     1       0.313  12.213  19.683  0.00  0.00    +0.000 C 
ATOM      7  C   UNL     1      -1.153  12.627  19.889  0.00  0.00    +0.000 C 
ATOM      8  N   UNL     1      -1.875  11.808  18.898  0.00  0.00    +0.000 N 
ATOM      9  C   UNL     1      -3.251  11.845  18.733  0.00  0.00    +0.000 C 
ATOM     10  O   UNL     1      -3.977  12.644  19.314  0.00  0.00    +0.000 OA
ATOM     11  C   UNL     1      -1.088  10.639  18.528  0.00  0.00    +0.000 C 
ENDROOT
BRANCH   1  16
ATOM     12  C   UNL     1       3.442   5.731  18.240  0.00  0.00    +0.000 A 
ATOM     13  C   UNL     1       4.327   6.178  17.253  0.00  0.00    +0.000 A 
ATOM     14  C   UNL     1       4.342   7.506  16.838  0.00  0.00    +0.000 A 
ATOM     15  C   UNL     1       3.459   8.414  17.402  0.00  0.00    +0.000 A 
ATOM     16  C   UNL     1       2.544   7.987  18.370  0.00  0.00    +0.000 A 
ATOM     17  C   UNL     1       2.524   6.642  18.778  0.00  0.00    +0.000 A 
BRANCH  12  20
ATOM     18  C   UNL     1       2.586   3.401  18.313  0.00  0.00    +0.000 C 
ATOM     19  O   UNL     1       1.720   3.539  17.457  0.00  0.00    +0.000 OA
ATOM     20  N   UNL     1       3.449   4.396  18.730  0.00  0.00    +0.000 N 
ATOM     21  H   UNL     1       4.218   4.142  19.333  0.00  0.00    +0.000 HD
BRANCH  18  24
ATOM     22  C   UNL     1       1.213   2.721  20.894  0.00  0.00    +0.000 C 
ATOM     23  C   UNL     1       2.153   1.814  20.156  0.00  0.00    +0.000 C 
ATOM     24  C   UNL     1       2.763   2.060  18.973  0.00  0.00    +0.000 C 
ATOM     25  C   UNL     1       3.721   1.072  18.379  0.00  0.00    +0.000 C 
ENDBRANCH  18  24
ENDBRANCH  12  20
ENDBRANCH   1  16
BRANCH   7  26
ATOM     26  C   UNL     1      -1.174  14.173  19.797  0.00  0.00    +0.000 C 
ATOM     27  N   UNL     1      -2.188  14.832  20.421  0.00  0.00    +0.000 N 
ATOM     28  O   UNL     1      -0.266  14.821  19.285  0.00  0.00    +0.000 OA
ATOM     29  H   UNL     1      -2.091  15.835  20.495  0.00  0.00    +0.000 HD
ATOM     30  H   UNL     1      -2.711  14.355  21.153  0.00  0.00    +0.000 HD
ENDBRANCH   7  26
BRANCH   9  31
ATOM     31  C   UNL     1      -3.855  10.889  17.716  0.00  0.00    +0.000 C 
ATOM     32  C   UNL     1      -3.823   9.414  18.047  0.00  0.00    +0.000 C 
ATOM     33  C   UNL     1      -5.110  11.343  16.977  0.00  0.00    +0.000 C 
ATOM     34  C   UNL     1      -3.807  11.314  16.249  0.00  0.00    +0.000 C 
ENDBRANCH   9  31
TORSDOF 5
ENDMDL
