MODEL 1
REMARK VINA RESULT:      -6.6      0.000      0.000
REMARK  Name = 
REMARK  4 active torsions:
REMARK  status: ('A' for Active; 'I' for Inactive)
REMARK    1  A    between atoms: C_2  and  C_3
REMARK    2  A    between atoms: C_3  and  C_4
REMARK    3  A    between atoms: N_6  and  C_7
REMARK    4  A    between atoms: C_7  and  C_8
REMARK                            x       y       z     vdW  Elec       q    Type
REMARK                         _______ _______ _______ _____ _____    ______ ____
ROOT
ATOM      1  C   UNL     1       5.514   4.632  18.767  0.00  0.00    +0.000 C 
ATOM      2  O   UNL     1       5.402   5.241  19.829  0.00  0.00    +0.000 OA
ATOM      3  N   UNL     1       5.206   3.291  18.668  0.00  0.00    +0.000 N 
ATOM      4  H   UNL     1       5.225   2.811  17.779  0.00  0.00    +0.000 HD
ENDROOT
BRANCH   1   5
ATOM      5  C   UNL     1       6.013   5.323  17.494  0.00  0.00    +0.000 C 
ATOM      6  C   UNL     1       4.868   6.042  16.756  0.00  0.00    +0.000 C 
ATOM      7  C   UNL     1       5.339   6.586  15.409  0.00  0.00    +0.000 C 
ATOM      8  O   UNL     1       5.888   5.537  14.619  0.00  0.00    +0.000 OA
ATOM      9  C   UNL     1       7.038   4.938  15.210  0.00  0.00    +0.000 C 
ATOM     10  C   UNL     1       6.670   4.301  16.545  0.00  0.00    +0.000 C 
BRANCH   5  12
ATOM     11  N   UNL     1       7.929   7.212  18.202  0.00  0.00    +0.000 NA
ATOM     12  C   UNL     1       7.060   6.355  17.881  0.00  0.00    +0.000 C 
ENDBRANCH   5  12
ENDBRANCH   1   5
BRANCH   3  13
ATOM     13  C   UNL     1       4.716   2.538  19.808  0.00  0.00    +0.000 C 
BRANCH  13  14
ATOM     14  C   UNL     1       3.218   2.620  19.931  0.00  0.00    +0.000 A 
ATOM     15  C   UNL     1       2.612   2.871  21.165  0.00  0.00    +0.000 A 
ATOM     16  C   UNL     1       1.231   2.975  21.222  0.00  0.00    +0.000 A 
ATOM     17  N   UNL     1       0.423   2.848  20.149  0.00  0.00    +0.000 NA
ATOM     18  C   UNL     1       1.024   2.613  18.964  0.00  0.00    +0.000 A 
ATOM     19  C   UNL     1       2.397   2.496  18.805  0.00  0.00    +0.000 A 
ENDBRANCH  13  14
ENDBRANCH   3  13
TORSDOF 4
ENDMDL
MODEL 2
REMARK VINA RESULT:      -6.6      2.113      3.156
REMARK  Name = 
REMARK  4 active torsions:
REMARK  status: ('A' for Active; 'I' for Inactive)
REMARK    1  A    between atoms: C_2  and  C_3
REMARK    2  A    between atoms: C_3  and  C_4
REMARK    3  A    between atoms: N_6  and  C_7
REMARK    4  A    between atoms: C_7  and  C_8
REMARK                            x       y       z     vdW  Elec       q    Type
REMARK                         _______ _______ _______ _____ _____    ______ ____
ROOT
ATOM      1  C   UNL     1       4.644   5.455  17.438  0.00  0.00    +0.000 C 
ATOM      2  O   UNL     1       4.243   4.591  16.662  0.00  0.00    +0.000 OA
ATOM      3  N   UNL     1       3.777   6.150  18.256  0.00  0.00    +0.000 N 
ATOM      4  H   UNL     1       4.115   6.804  18.947  0.00  0.00    +0.000 HD
ENDROOT
BRANCH   1   5
ATOM      5  C   UNL     1       6.129   5.820  17.537  0.00  0.00    +0.000 C 
ATOM      6  C   UNL     1       6.711   5.449  18.914  0.00  0.00    +0.000 C 
ATOM      7  C   UNL     1       8.141   5.964  19.061  0.00  0.00    +0.000 C 
ATOM      8  O   UNL     1       8.185   7.370  18.840  0.00  0.00    +0.000 OA
ATOM      9  C   UNL     1       7.781   7.740  17.524  0.00  0.00    +0.000 C 
ATOM     10  C   UNL     1       6.334   7.327  17.284  0.00  0.00    +0.000 C 
BRANCH   5  12
ATOM     11  N   UNL     1       7.520   4.411  15.583  0.00  0.00    +0.000 NA
ATOM     12  C   UNL     1       6.889   5.050  16.469  0.00  0.00    +0.000 C 
ENDBRANCH   5  12
ENDBRANCH   1   5
BRANCH   3  13
ATOM     13  C   UNL     1       2.350   5.881  18.252  0.00  0.00    +0.000 C 
BRANCH  13  14
ATOM     14  C   UNL     1       1.984   4.787  19.221  0.00  0.00    +0.000 A 
ATOM     15  C   UNL     1       1.289   3.653  18.792  0.00  0.00    +0.000 A 
ATOM     16  C   UNL     1       1.007   2.655  19.713  0.00  0.00    +0.000 A 
ATOM     17  N   UNL     1       1.366   2.709  21.012  0.00  0.00    +0.000 NA
ATOM     18  C   UNL     1       2.043   3.807  21.408  0.00  0.00    +0.000 A 
ATOM     19  C   UNL     1       2.375   4.856  20.562  0.00  0.00    +0.000 A 
ENDBRANCH  13  14
ENDBRANCH   3  13
TORSDOF 4
ENDMDL
MODEL 3
REMARK VINA RESULT:      -6.5      2.130      2.979
REMARK  Name = 
REMARK  4 active torsions:
REMARK  status: ('A' for Active; 'I' for Inactive)
REMARK    1  A    between atoms: C_2  and  C_3
REMARK    2  A    between atoms: C_3  and  C_4
REMARK    3  A    between atoms: N_6  and  C_7
REMARK    4  A    between atoms: C_7  and  C_8
REMARK                            x       y       z     vdW  Elec       q    Type
REMARK                         _______ _______ _______ _____ _____    ______ ____
ROOT
ATOM      1  C   UNL     1       4.645   5.353  17.360  0.00  0.00    +0.000 C 
ATOM      2  O   UNL     1       4.271   4.414  16.659  0.00  0.00    +0.000 OA
ATOM      3  N   UNL     1       3.756   6.088  18.116  0.00  0.00    +0.000 N 
ATOM      4  H   UNL     1       4.074   6.808  18.749  0.00  0.00    +0.000 HD
ENDROOT
BRANCH   1   5
ATOM      5  C   UNL     1       6.119   5.767  17.427  0.00  0.00    +0.000 C 
ATOM      6  C   UNL     1       6.781   5.286  18.732  0.00  0.00    +0.000 C 
ATOM      7  C   UNL     1       8.197   5.843  18.865  0.00  0.00    +0.000 C 
ATOM      8  O   UNL     1       8.178   7.264  18.786  0.00  0.00    +0.000 OA
ATOM      9  C   UNL     1       7.697   7.746  17.534  0.00  0.00    +0.000 C 
ATOM     10  C   UNL     1       6.256   7.299  17.319  0.00  0.00    +0.000 C 
BRANCH   5  12
ATOM     11  N   UNL     1       7.462   4.619  15.279  0.00  0.00    +0.000 NA
ATOM     12  C   UNL     1       6.853   5.140  16.254  0.00  0.00    +0.000 C 
ENDBRANCH   5  12
ENDBRANCH   1   5
BRANCH   3  13
ATOM     13  C   UNL     1       2.338   5.779  18.135  0.00  0.00    +0.000 C 
BRANCH  13  14
ATOM     14  C   UNL     1       2.009   4.727  19.161  0.00  0.00    +0.000 A 
ATOM     15  C   UNL     1       2.414   4.871  20.491  0.00  0.00    +0.000 A 
ATOM     16  C   UNL     1       2.055   3.894  21.407  0.00  0.00    +0.000 A 
ATOM     17  N   UNL     1       1.332   2.800  21.094  0.00  0.00    +0.000 NA
ATOM     18  C   UNL     1       0.943   2.679  19.808  0.00  0.00    +0.000 A 
ATOM     19  C   UNL     1       1.248   3.603  18.820  0.00  0.00    +0.000 A 
ENDBRANCH  13  14
ENDBRANCH   3  13
TORSDOF 4
ENDMDL
MODEL 4
REMARK VINA RESULT:      -6.5      0.046      1.108
REMARK  Name = 
REMARK  4 active torsions:
REMARK  status: ('A' for Active; 'I' for Inactive)
REMARK    1  A    between atoms: C_2  and  C_3
REMARK    2  A    between atoms: C_3  and  C_4
REMARK    3  A    between atoms: N_6  and  C_7
REMARK    4  A    between atoms: C_7  and  C_8
REMARK                            x       y       z     vdW  Elec       q    Type
REMARK                         _______ _______ _______ _____ _____    ______ ____
ROOT
ATOM      1  C   UNL     1       5.487   4.657  18.751  0.00  0.00    +0.000 C 
ATOM      2  O   UNL     1       5.301   5.289  19.789  0.00  0.00    +0.000 OA
ATOM      3  N   UNL     1       5.238   3.303  18.676  0.00  0.00    +0.000 N 
ATOM      4  H   UNL     1       5.317   2.800  17.803  0.00  0.00    +0.000 HD
ENDROOT
BRANCH   1   5
ATOM      5  C   UNL     1       6.014   5.335  17.482  0.00  0.00    +0.000 C 
ATOM      6  C   UNL     1       4.887   6.055  16.717  0.00  0.00    +0.000 C 
ATOM      7  C   UNL     1       5.388   6.585  15.375  0.00  0.00    +0.000 C 
ATOM      8  O   UNL     1       5.946   5.527  14.604  0.00  0.00    +0.000 OA
ATOM      9  C   UNL     1       7.080   4.925  15.221  0.00  0.00    +0.000 C 
ATOM     10  C   UNL     1       6.683   4.302  16.554  0.00  0.00    +0.000 C 
BRANCH   5  12
ATOM     11  N   UNL     1       7.927   7.218  18.212  0.00  0.00    +0.000 NA
ATOM     12  C   UNL     1       7.060   6.364  17.881  0.00  0.00    +0.000 C 
ENDBRANCH   5  12
ENDBRANCH   1   5
BRANCH   3  13
ATOM     13  C   UNL     1       4.728   2.560  19.814  0.00  0.00    +0.000 C 
BRANCH  13  14
ATOM     14  C   UNL     1       3.232   2.681  19.937  0.00  0.00    +0.000 A 
ATOM     15  C   UNL     1       2.407   2.523  18.820  0.00  0.00    +0.000 A 
ATOM     16  C   UNL     1       1.033   2.607  18.989  0.00  0.00    +0.000 A 
ATOM     17  N   UNL     1       0.434   2.832  20.176  0.00  0.00    +0.000 NA
ATOM     18  C   UNL     1       1.245   2.975  21.246  0.00  0.00    +0.000 A 
ATOM     19  C   UNL     1       2.629   2.905  21.179  0.00  0.00    +0.000 A 
ENDBRANCH  13  14
ENDBRANCH   3  13
TORSDOF 4
ENDMDL
MODEL 5
REMARK VINA RESULT:      -6.5      1.940      6.140
REMARK  Name = 
REMARK  4 active torsions:
REMARK  status: ('A' for Active; 'I' for Inactive)
REMARK    1  A    between atoms: C_2  and  C_3
REMARK    2  A    between atoms: C_3  and  C_4
REMARK    3  A    between atoms: N_6  and  C_7
REMARK    4  A    between atoms: C_7  and  C_8
REMARK                            x       y       z     vdW  Elec       q    Type
REMARK                         _______ _______ _______ _____ _____    ______ ____
ROOT
ATOM      1  C   UNL     1       3.995   4.419  17.862  0.00  0.00    +0.000 C 
ATOM      2  O   UNL     1       3.625   5.504  17.417  0.00  0.00    +0.000 OA
ATOM      3  N   UNL     1       5.216   3.877  17.521  0.00  0.00    +0.000 N 
ATOM      4  H   UNL     1       5.551   3.024  17.946  0.00  0.00    +0.000 HD
ENDROOT
BRANCH   1   5
ATOM      5  C   UNL     1       3.115   3.600  18.812  0.00  0.00    +0.000 C 
ATOM      6  C   UNL     1       2.117   2.718  18.037  0.00  0.00    +0.000 C 
ATOM      7  C   UNL     1       1.138   2.034  18.989  0.00  0.00    +0.000 C 
ATOM      8  O   UNL     1       0.465   3.003  19.786  0.00  0.00    +0.000 OA
ATOM      9  C   UNL     1       1.349   3.747  20.621  0.00  0.00    +0.000 C 
ATOM     10  C   UNL     1       2.342   4.528  19.769  0.00  0.00    +0.000 C 
BRANCH   5  12
ATOM     11  N   UNL     1       4.753   1.947  20.335  0.00  0.00    +0.000 NA
ATOM     12  C   UNL     1       4.010   2.697  19.644  0.00  0.00    +0.000 C 
ENDBRANCH   5  12
ENDBRANCH   1   5
BRANCH   3  13
ATOM     13  C   UNL     1       6.134   4.571  16.635  0.00  0.00    +0.000 C 
BRANCH  13  14
ATOM     14  C   UNL     1       6.887   5.660  17.351  0.00  0.00    +0.000 A 
ATOM     15  C   UNL     1       7.555   5.400  18.551  0.00  0.00    +0.000 A 
ATOM     16  C   UNL     1       8.267   6.426  19.155  0.00  0.00    +0.000 A 
ATOM     17  N   UNL     1       8.357   7.674  18.652  0.00  0.00    +0.000 NA
ATOM     18  C   UNL     1       7.712   7.908  17.490  0.00  0.00    +0.000 A 
ATOM     19  C   UNL     1       6.978   6.947  16.809  0.00  0.00    +0.000 A 
ENDBRANCH  13  14
ENDBRANCH   3  13
TORSDOF 4
ENDMDL
MODEL 6
REMARK VINA RESULT:      -6.4      1.834      2.758
REMARK  Name = 
REMARK  4 active torsions:
REMARK  status: ('A' for Active; 'I' for Inactive)
REMARK    1  A    between atoms: C_2  and  C_3
REMARK    2  A    between atoms: C_3  and  C_4
REMARK    3  A    between atoms: N_6  and  C_7
REMARK    4  A    between atoms: C_7  and  C_8
REMARK                            x       y       z     vdW  Elec       q    Type
REMARK                         _______ _______ _______ _____ _____    ______ ____
ROOT
ATOM      1  C   UNL     1       4.640   5.331  17.437  0.00  0.00    +0.000 C 
ATOM      2  O   UNL     1       3.718   6.144  17.466  0.00  0.00    +0.000 OA
ATOM      3  N   UNL     1       4.405   3.973  17.390  0.00  0.00    +0.000 N 
ATOM      4  H   UNL     1       5.160   3.311  17.287  0.00  0.00    +0.000 HD
ENDROOT
BRANCH   1   5
ATOM      5  C   UNL     1       6.105   5.779  17.461  0.00  0.00    +0.000 C 
ATOM      6  C   UNL     1       6.802   5.359  18.769  0.00  0.00    +0.000 C 
ATOM      7  C   UNL     1       8.208   5.951  18.855  0.00  0.00    +0.000 C 
ATOM      8  O   UNL     1       8.156   7.367  18.726  0.00  0.00    +0.000 OA
ATOM      9  C   UNL     1       7.642   7.793  17.467  0.00  0.00    +0.000 C 
ATOM     10  C   UNL     1       6.207   7.308  17.295  0.00  0.00    +0.000 C 
BRANCH   5  12
ATOM     11  N   UNL     1       7.435   4.582  15.330  0.00  0.00    +0.000 NA
ATOM     12  C   UNL     1       6.832   5.125  16.297  0.00  0.00    +0.000 C 
ENDBRANCH   5  12
ENDBRANCH   1   5
BRANCH   3  13
ATOM     13  C   UNL     1       3.056   3.437  17.354  0.00  0.00    +0.000 C 
BRANCH  13  14
ATOM     14  C   UNL     1       2.490   3.254  18.738  0.00  0.00    +0.000 A 
ATOM     15  C   UNL     1       3.285   2.761  19.777  0.00  0.00    +0.000 A 
ATOM     16  C   UNL     1       2.731   2.644  21.043  0.00  0.00    +0.000 A 
ATOM     17  N   UNL     1       1.459   2.981  21.340  0.00  0.00    +0.000 NA
ATOM     18  C   UNL     1       0.707   3.461  20.327  0.00  0.00    +0.000 A 
ATOM     19  C   UNL     1       1.172   3.618  19.029  0.00  0.00    +0.000 A 
ENDBRANCH  13  14
ENDBRANCH   3  13
TORSDOF 4
ENDMDL
MODEL 7
REMARK VINA RESULT:      -6.3      1.598      2.059
REMARK  Name = 
REMARK  4 active torsions:
REMARK  status: ('A' for Active; 'I' for Inactive)
REMARK    1  A    between atoms: C_2  and  C_3
REMARK    2  A    between atoms: C_3  and  C_4
REMARK    3  A    between atoms: N_6  and  C_7
REMARK    4  A    between atoms: C_7  and  C_8
REMARK                            x       y       z     vdW  Elec       q    Type
REMARK                         _______ _______ _______ _____ _____    ______ ____
ROOT
ATOM      1  C   UNL     1       4.892   5.772  18.598  0.00  0.00    +0.000 C 
ATOM      2  O   UNL     1       5.340   5.476  19.704  0.00  0.00    +0.000 OA
ATOM      3  N   UNL     1       3.583   6.173  18.434  0.00  0.00    +0.000 N 
ATOM      4  H   UNL     1       3.237   6.490  17.539  0.00  0.00    +0.000 HD
ENDROOT
BRANCH   1   5
ATOM      5  C   UNL     1       5.759   5.705  17.337  0.00  0.00    +0.000 C 
ATOM      6  C   UNL     1       4.897   5.685  16.060  0.00  0.00    +0.000 C 
ATOM      7  C   UNL     1       5.758   5.451  14.821  0.00  0.00    +0.000 C 
ATOM      8  O   UNL     1       6.507   4.249  14.960  0.00  0.00    +0.000 OA
ATOM      9  C   UNL     1       7.419   4.285  16.055  0.00  0.00    +0.000 C 
ATOM     10  C   UNL     1       6.659   4.454  17.365  0.00  0.00    +0.000 C 
BRANCH   5  12
ATOM     11  N   UNL     1       7.394   7.953  17.261  0.00  0.00    +0.000 NA
ATOM     12  C   UNL     1       6.652   6.933  17.295  0.00  0.00    +0.000 C 
ENDBRANCH   5  12
ENDBRANCH   1   5
BRANCH   3  13
ATOM     13  C   UNL     1       2.674   6.281  19.561  0.00  0.00    +0.000 C 
BRANCH  13  14
ATOM     14  C   UNL     1       2.118   4.940  19.963  0.00  0.00    +0.000 A 
ATOM     15  C   UNL     1       1.461   4.130  19.033  0.00  0.00    +0.000 A 
ATOM     16  C   UNL     1       0.999   2.887  19.440  0.00  0.00    +0.000 A 
ATOM     17  N   UNL     1       1.146   2.404  20.691  0.00  0.00    +0.000 NA
ATOM     18  C   UNL     1       1.789   3.196  21.574  0.00  0.00    +0.000 A 
ATOM     19  C   UNL     1       2.290   4.452  21.262  0.00  0.00    +0.000 A 
ENDBRANCH  13  14
ENDBRANCH   3  13
TORSDOF 4
ENDMDL
MODEL 8
REMARK VINA RESULT:      -6.3      2.644      6.312
REMARK  Name = 
REMARK  4 active torsions:
REMARK  status: ('A' for Active; 'I' for Inactive)
REMARK    1  A    between atoms: C_2  and  C_3
REMARK    2  A    between atoms: C_3  and  C_4
REMARK    3  A    between atoms: N_6  and  C_7
REMARK    4  A    between atoms: C_7  and  C_8
REMARK                            x       y       z     vdW  Elec       q    Type
REMARK                         _______ _______ _______ _____ _____    ______ ____
ROOT
ATOM      1  C   UNL     1       5.327   4.364  17.935  0.00  0.00    +0.000 C 
ATOM      2  O   UNL     1       6.421   4.326  18.494  0.00  0.00    +0.000 OA
ATOM      3  N   UNL     1       5.168   4.954  16.699  0.00  0.00    +0.000 N 
ATOM      4  H   UNL     1       4.286   4.917  16.207  0.00  0.00    +0.000 HD
ENDROOT
BRANCH   1   5
ATOM      5  C   UNL     1       4.073   3.768  18.584  0.00  0.00    +0.000 C 
ATOM      6  C   UNL     1       3.189   3.050  17.548  0.00  0.00    +0.000 C 
ATOM      7  C   UNL     1       1.867   2.605  18.170  0.00  0.00    +0.000 C 
ATOM      8  O   UNL     1       1.192   3.718  18.745  0.00  0.00    +0.000 OA
ATOM      9  C   UNL     1       1.925   4.327  19.805  0.00  0.00    +0.000 C 
ATOM     10  C   UNL     1       3.250   4.869  19.283  0.00  0.00    +0.000 C 
BRANCH   5  12
ATOM     11  N   UNL     1       4.861   1.918  20.506  0.00  0.00    +0.000 NA
ATOM     12  C   UNL     1       4.504   2.757  19.634  0.00  0.00    +0.000 C 
ENDBRANCH   5  12
ENDBRANCH   1   5
BRANCH   3  13
ATOM     13  C   UNL     1       6.289   5.542  15.988  0.00  0.00    +0.000 C 
BRANCH  13  14
ATOM     14  C   UNL     1       6.473   4.927  14.626  0.00  0.00    +0.000 A 
ATOM     15  C   UNL     1       5.552   4.001  14.128  0.00  0.00    +0.000 A 
ATOM     16  C   UNL     1       5.743   3.489  12.853  0.00  0.00    +0.000 A 
ATOM     17  N   UNL     1       6.773   3.833  12.053  0.00  0.00    +0.000 NA
ATOM     18  C   UNL     1       7.649   4.733  12.546  0.00  0.00    +0.000 A 
ATOM     19  C   UNL     1       7.542   5.304  13.806  0.00  0.00    +0.000 A 
ENDBRANCH  13  14
ENDBRANCH   3  13
TORSDOF 4
ENDMDL
MODEL 9
REMARK VINA RESULT:      -6.3      1.900      6.162
REMARK  Name = 
REMARK  4 active torsions:
REMARK  status: ('A' for Active; 'I' for Inactive)
REMARK    1  A    between atoms: C_2  and  C_3
REMARK    2  A    between atoms: C_3  and  C_4
REMARK    3  A    between atoms: N_6  and  C_7
REMARK    4  A    between atoms: C_7  and  C_8
REMARK                            x       y       z     vdW  Elec       q    Type
REMARK                         _______ _______ _______ _____ _____    ______ ____
ROOT
ATOM      1  C   UNL     1       4.026   4.469  17.990  0.00  0.00    +0.000 C 
ATOM      2  O   UNL     1       3.773   5.653  17.778  0.00  0.00    +0.000 OA
ATOM      3  N   UNL     1       5.093   3.839  17.384  0.00  0.00    +0.000 N 
ATOM      4  H   UNL     1       5.345   2.889  17.617  0.00  0.00    +0.000 HD
ENDROOT
BRANCH   1   5
ATOM      5  C   UNL     1       3.166   3.620  18.932  0.00  0.00    +0.000 C 
ATOM      6  C   UNL     1       2.127   2.790  18.154  0.00  0.00    +0.000 C 
ATOM      7  C   UNL     1       1.170   2.079  19.107  0.00  0.00    +0.000 C 
ATOM      8  O   UNL     1       0.541   3.020  19.970  0.00  0.00    +0.000 OA
ATOM      9  C   UNL     1       1.464   3.712  20.806  0.00  0.00    +0.000 C 
ATOM     10  C   UNL     1       2.441   4.516  19.957  0.00  0.00    +0.000 C 
BRANCH   5  12
ATOM     11  N   UNL     1       4.827   1.875  20.323  0.00  0.00    +0.000 NA
ATOM     12  C   UNL     1       4.073   2.667  19.692  0.00  0.00    +0.000 C 
ENDBRANCH   5  12
ENDBRANCH   1   5
BRANCH   3  13
ATOM     13  C   UNL     1       5.980   4.548  16.479  0.00  0.00    +0.000 C 
BRANCH  13  14
ATOM     14  C   UNL     1       6.781   5.603  17.195  0.00  0.00    +0.000 A 
ATOM     15  C   UNL     1       6.801   6.922  16.734  0.00  0.00    +0.000 A 
ATOM     16  C   UNL     1       7.524   7.867  17.447  0.00  0.00    +0.000 A 
ATOM     17  N   UNL     1       8.216   7.592  18.571  0.00  0.00    +0.000 NA
ATOM     18  C   UNL     1       8.180   6.315  19.007  0.00  0.00    +0.000 A 
ATOM     19  C   UNL     1       7.484   5.300  18.365  0.00  0.00    +0.000 A 
ENDBRANCH  13  14
ENDBRANCH   3  13
TORSDOF 4
ENDMDL
