MODEL 1
REMARK VINA RESULT:      -7.1      0.000      0.000
REMARK  Name = 
REMARK  8 active torsions:
REMARK  status: ('A' for Active; 'I' for Inactive)
REMARK    1  A    between atoms: C_1  and  C_2
REMARK    2  A    between atoms: C_2  and  C_3
REMARK    3  A    between atoms: C_3  and  C_4
REMARK    4  A    between atoms: C_4  and  C_5
REMARK    5  A    between atoms: C_8  and  C_10
REMARK    6  A    between atoms: C_10  and  C_11
REMARK    7  A    between atoms: C_11  and  S_12
REMARK    8  A    between atoms: S_12  and  C_13
REMARK                            x       y       z     vdW  Elec       q    Type
REMARK                         _______ _______ _______ _____ _____    ______ ____
ROOT
ATOM      1  C   UNL     1       5.756   5.115  17.365  0.00  0.00    +0.000 C 
ATOM      2  C   UNL     1       5.119   3.705  17.311  0.00  0.00    +0.000 C 
ATOM      3  N   UNL     1       3.712   3.839  17.729  0.00  0.00    +0.000 N 
ATOM      4  C   UNL     1       2.990   2.703  18.043  0.00  0.00    +0.000 C 
ATOM      5  O   UNL     1       3.480   1.574  17.932  0.00  0.00    +0.000 OA
ATOM      6  C   UNL     1       3.373   5.209  17.719  0.00  0.00    +0.000 A 
ATOM      7  C   UNL     1       2.159   5.846  17.929  0.00  0.00    +0.000 A 
ATOM      8  C   UNL     1       2.108   7.246  17.937  0.00  0.00    +0.000 A 
ATOM      9  C   UNL     1       3.256   8.006  17.697  0.00  0.00    +0.000 A 
ATOM     10  C   UNL     1       4.472   7.373  17.457  0.00  0.00    +0.000 A 
ATOM     11  C   UNL     1       4.519   5.980  17.478  0.00  0.00    +0.000 A 
ENDROOT
BRANCH   1  13
ATOM     12  C   UNL     1       7.769   6.323  18.535  0.00  0.00    +0.000 C 
ATOM     13  C   UNL     1       6.643   5.294  18.634  0.00  0.00    +0.000 C 
ENDBRANCH   1  13
BRANCH   1  14
ATOM     14  C   UNL     1       6.619   5.441  16.117  0.00  0.00    +0.000 C 
ATOM     15  C   UNL     1       6.028   5.068  14.759  0.00  0.00    +0.000 C 
ENDBRANCH   1  14
BRANCH   4  16
ATOM     16  C   UNL     1       1.577   2.853  18.534  0.00  0.00    +0.000 C 
BRANCH  16  17
ATOM     17  C   UNL     1       1.270   1.999  19.752  0.00  0.00    +0.000 C 
BRANCH  17  18
ATOM     18  S   UNL     1       1.990   2.772  21.195  0.00  0.00    +0.000 S 
ATOM     19  C   UNL     1       1.688   4.498  20.953  0.00  0.00    +0.000 C 
ATOM     20  O   UNL     1       1.233   2.354  22.357  0.00  0.00    +0.000 OA
ATOM     21  O   UNL     1       3.430   2.563  21.138  0.00  0.00    +0.000 OA
ENDBRANCH  17  18
ENDBRANCH  16  17
ENDBRANCH   4  16
TORSDOF 5
ENDMDL
MODEL 2
REMARK VINA RESULT:      -7.1      1.015      1.204
REMARK  Name = 
REMARK  8 active torsions:
REMARK  status: ('A' for Active; 'I' for Inactive)
REMARK    1  A    between atoms: C_1  and  C_2
REMARK    2  A    between atoms: C_2  and  C_3
REMARK    3  A    between atoms: C_3  and  C_4
REMARK    4  A    between atoms: C_4  and  C_5
REMARK    5  A    between atoms: C_8  and  C_10
REMARK    6  A    between atoms: C_10  and  C_11
REMARK    7  A    between atoms: C_11  and  S_12
REMARK    8  A    between atoms: S_12  and  C_13
REMARK                            x       y       z     vdW  Elec       q    Type
REMARK                         _______ _______ _______ _____ _____    ______ ____
ROOT
ATOM      1  C   UNL     1       5.457   4.883  16.762  0.00  0.00    +0.000 C 
ATOM      2  C   UNL     1       4.615   3.585  16.771  0.00  0.00    +0.000 C 
ATOM      3  N   UNL     1       3.340   3.889  17.443  0.00  0.00    +0.000 N 
ATOM      4  C   UNL     1       2.520   2.849  17.840  0.00  0.00    +0.000 C 
ATOM      5  O   UNL     1       2.807   1.672  17.597  0.00  0.00    +0.000 OA
ATOM      6  C   UNL     1       3.215   5.291  17.549  0.00  0.00    +0.000 A 
ATOM      7  C   UNL     1       2.167   6.079  18.002  0.00  0.00    +0.000 A 
ATOM      8  C   UNL     1       2.331   7.469  18.073  0.00  0.00    +0.000 A 
ATOM      9  C   UNL     1       3.521   8.071  17.657  0.00  0.00    +0.000 A 
ATOM     10  C   UNL     1       4.566   7.290  17.175  0.00  0.00    +0.000 A 
ATOM     11  C   UNL     1       4.405   5.906  17.133  0.00  0.00    +0.000 A 
ENDROOT
BRANCH   1  13
ATOM     12  C   UNL     1       6.125   5.162  19.284  0.00  0.00    +0.000 C 
ATOM     13  C   UNL     1       6.569   4.851  17.854  0.00  0.00    +0.000 C 
ENDBRANCH   1  13
BRANCH   1  14
ATOM     14  C   UNL     1       6.128   5.164  15.391  0.00  0.00    +0.000 C 
ATOM     15  C   UNL     1       5.885   4.139  14.287  0.00  0.00    +0.000 C 
ENDBRANCH   1  14
BRANCH   4  16
ATOM     16  C   UNL     1       1.254   3.166  18.585  0.00  0.00    +0.000 C 
BRANCH  16  17
ATOM     17  C   UNL     1       1.048   2.296  19.814  0.00  0.00    +0.000 C 
BRANCH  17  18
ATOM     18  S   UNL     1       1.886   3.051  21.202  0.00  0.00    +0.000 S 
ATOM     19  C   UNL     1       3.570   2.545  21.014  0.00  0.00    +0.000 C 
ATOM     20  O   UNL     1       1.839   4.489  21.031  0.00  0.00    +0.000 OA
ATOM     21  O   UNL     1       1.372   2.436  22.418  0.00  0.00    +0.000 OA
ENDBRANCH  17  18
ENDBRANCH  16  17
ENDBRANCH   4  16
TORSDOF 5
ENDMDL
MODEL 3
REMARK VINA RESULT:      -7.0      1.125      1.282
REMARK  Name = 
REMARK  8 active torsions:
REMARK  status: ('A' for Active; 'I' for Inactive)
REMARK    1  A    between atoms: C_1  and  C_2
REMARK    2  A    between atoms: C_2  and  C_3
REMARK    3  A    between atoms: C_3  and  C_4
REMARK    4  A    between atoms: C_4  and  C_5
REMARK    5  A    between atoms: C_8  and  C_10
REMARK    6  A    between atoms: C_10  and  C_11
REMARK    7  A    between atoms: C_11  and  S_12
REMARK    8  A    between atoms: S_12  and  C_13
REMARK                            x       y       z     vdW  Elec       q    Type
REMARK                         _______ _______ _______ _____ _____    ______ ____
ROOT
ATOM      1  C   UNL     1       5.868   4.738  16.136  0.00  0.00    +0.000 C 
ATOM      2  C   UNL     1       5.321   3.307  16.350  0.00  0.00    +0.000 C 
ATOM      3  N   UNL     1       4.208   3.397  17.311  0.00  0.00    +0.000 N 
ATOM      4  C   UNL     1       3.724   2.242  17.895  0.00  0.00    +0.000 C 
ATOM      5  O   UNL     1       4.167   1.129  17.591  0.00  0.00    +0.000 OA
ATOM      6  C   UNL     1       3.843   4.755  17.444  0.00  0.00    +0.000 A 
ATOM      7  C   UNL     1       2.800   5.352  18.137  0.00  0.00    +0.000 A 
ATOM      8  C   UNL     1       2.704   6.749  18.165  0.00  0.00    +0.000 A 
ATOM      9  C   UNL     1       3.620   7.544  17.473  0.00  0.00    +0.000 A 
ATOM     10  C   UNL     1       4.652   6.951  16.752  0.00  0.00    +0.000 A 
ATOM     11  C   UNL     1       4.757   5.561  16.751  0.00  0.00    +0.000 A 
ENDROOT
BRANCH   1  13
ATOM     12  C   UNL     1       7.070   5.047  18.448  0.00  0.00    +0.000 C 
ATOM     13  C   UNL     1       7.193   4.968  16.925  0.00  0.00    +0.000 C 
ENDBRANCH   1  13
BRANCH   1  14
ATOM     14  C   UNL     1       6.126   5.075  14.643  0.00  0.00    +0.000 C 
ATOM     15  C   UNL     1       6.098   3.906  13.663  0.00  0.00    +0.000 C 
ENDBRANCH   1  14
BRANCH   4  16
ATOM     16  C   UNL     1       2.635   2.350  18.926  0.00  0.00    +0.000 C 
BRANCH  16  17
ATOM     17  C   UNL     1       3.162   2.546  20.337  0.00  0.00    +0.000 C 
BRANCH  17  18
ATOM     18  S   UNL     1       1.901   3.353  21.316  0.00  0.00    +0.000 S 
ATOM     19  C   UNL     1       0.505   3.439  20.234  0.00  0.00    +0.000 C 
ATOM     20  O   UNL     1       1.551   2.475  22.414  0.00  0.00    +0.000 OA
ATOM     21  O   UNL     1       2.346   4.716  21.573  0.00  0.00    +0.000 OA
ENDBRANCH  17  18
ENDBRANCH  16  17
ENDBRANCH   4  16
TORSDOF 5
ENDMDL
MODEL 4
REMARK VINA RESULT:      -6.7      2.945      5.567
REMARK  Name = 
REMARK  8 active torsions:
REMARK  status: ('A' for Active; 'I' for Inactive)
REMARK    1  A    between atoms: C_1  and  C_2
REMARK    2  A    between atoms: C_2  and  C_3
REMARK    3  A    between atoms: C_3  and  C_4
REMARK    4  A    between atoms: C_4  and  C_5
REMARK    5  A    between atoms: C_8  and  C_10
REMARK    6  A    between atoms: C_10  and  C_11
REMARK    7  A    between atoms: C_11  and  S_12
REMARK    8  A    between atoms: S_12  and  C_13
REMARK                            x       y       z     vdW  Elec       q    Type
REMARK                         _______ _______ _______ _____ _____    ______ ____
ROOT
ATOM      1  C   UNL     1       2.064   4.133  20.109  0.00  0.00    +0.000 C 
ATOM      2  C   UNL     1       3.140   3.468  19.216  0.00  0.00    +0.000 C 
ATOM      3  N   UNL     1       3.545   4.456  18.201  0.00  0.00    +0.000 N 
ATOM      4  C   UNL     1       4.280   4.039  17.107  0.00  0.00    +0.000 C 
ATOM      5  O   UNL     1       4.650   2.866  16.986  0.00  0.00    +0.000 OA
ATOM      6  C   UNL     1       3.057   5.722  18.591  0.00  0.00    +0.000 A 
ATOM      7  C   UNL     1       3.251   6.981  18.041  0.00  0.00    +0.000 A 
ATOM      8  C   UNL     1       2.582   8.083  18.589  0.00  0.00    +0.000 A 
ATOM      9  C   UNL     1       1.753   7.935  19.704  0.00  0.00    +0.000 A 
ATOM     10  C   UNL     1       1.575   6.680  20.279  0.00  0.00    +0.000 A 
ATOM     11  C   UNL     1       2.224   5.585  19.711  0.00  0.00    +0.000 A 
ENDROOT
BRANCH   1  13
ATOM     12  C   UNL     1       0.549   2.418  18.825  0.00  0.00    +0.000 C 
ATOM     13  C   UNL     1       0.632   3.640  19.741  0.00  0.00    +0.000 C 
ENDBRANCH   1  13
BRANCH   1  14
ATOM     14  C   UNL     1       2.291   3.884  21.623  0.00  0.00    +0.000 C 
ATOM     15  C   UNL     1       2.264   2.431  22.090  0.00  0.00    +0.000 C 
ENDBRANCH   1  14
BRANCH   4  16
ATOM     16  C   UNL     1       4.631   5.041  16.042  0.00  0.00    +0.000 C 
BRANCH  16  17
ATOM     17  C   UNL     1       5.693   4.544  15.077  0.00  0.00    +0.000 C 
BRANCH  17  18
ATOM     18  S   UNL     1       7.291   5.133  15.625  0.00  0.00    +0.000 S 
ATOM     19  C   UNL     1       6.907   6.504  16.674  0.00  0.00    +0.000 C 
ATOM     20  O   UNL     1       7.892   4.104  16.449  0.00  0.00    +0.000 OA
ATOM     21  O   UNL     1       7.995   5.651  14.460  0.00  0.00    +0.000 OA
ENDBRANCH  17  18
ENDBRANCH  16  17
ENDBRANCH   4  16
TORSDOF 5
ENDMDL
MODEL 5
REMARK VINA RESULT:      -6.6      3.121      5.667
REMARK  Name = 
REMARK  8 active torsions:
REMARK  status: ('A' for Active; 'I' for Inactive)
REMARK    1  A    between atoms: C_1  and  C_2
REMARK    2  A    between atoms: C_2  and  C_3
REMARK    3  A    between atoms: C_3  and  C_4
REMARK    4  A    between atoms: C_4  and  C_5
REMARK    5  A    between atoms: C_8  and  C_10
REMARK    6  A    between atoms: C_10  and  C_11
REMARK    7  A    between atoms: C_11  and  S_12
REMARK    8  A    between atoms: S_12  and  C_13
REMARK                            x       y       z     vdW  Elec       q    Type
REMARK                         _______ _______ _______ _____ _____    ______ ____
ROOT
ATOM      1  C   UNL     1       2.130   3.951  20.264  0.00  0.00    +0.000 C 
ATOM      2  C   UNL     1       3.340   3.646  19.348  0.00  0.00    +0.000 C 
ATOM      3  N   UNL     1       3.611   4.858  18.553  0.00  0.00    +0.000 N 
ATOM      4  C   UNL     1       4.452   4.775  17.459  0.00  0.00    +0.000 C 
ATOM      5  O   UNL     1       5.023   3.720  17.162  0.00  0.00    +0.000 OA
ATOM      6  C   UNL     1       2.895   5.933  19.124  0.00  0.00    +0.000 A 
ATOM      7  C   UNL     1       2.893   7.286  18.818  0.00  0.00    +0.000 A 
ATOM      8  C   UNL     1       2.021   8.144  19.501  0.00  0.00    +0.000 A 
ATOM      9  C   UNL     1       1.185   7.661  20.510  0.00  0.00    +0.000 A 
ATOM     10  C   UNL     1       1.202   6.309  20.841  0.00  0.00    +0.000 A 
ATOM     11  C   UNL     1       2.053   5.458  20.139  0.00  0.00    +0.000 A 
ENDROOT
BRANCH   1  13
ATOM     12  C   UNL     1       0.978   2.361  18.523  0.00  0.00    +0.000 C 
ATOM     13  C   UNL     1       0.821   3.309  19.713  0.00  0.00    +0.000 C 
ENDBRANCH   1  13
BRANCH   1  14
ATOM     14  C   UNL     1       2.334   3.467  21.724  0.00  0.00    +0.000 C 
ATOM     15  C   UNL     1       1.395   2.371  22.219  0.00  0.00    +0.000 C 
ENDBRANCH   1  14
BRANCH   4  16
ATOM     16  C   UNL     1       4.667   5.999  16.615  0.00  0.00    +0.000 C 
BRANCH  16  17
ATOM     17  C   UNL     1       5.493   7.069  17.308  0.00  0.00    +0.000 C 
BRANCH  17  18
ATOM     18  S   UNL     1       7.227   6.689  17.097  0.00  0.00    +0.000 S 
ATOM     19  C   UNL     1       7.647   5.773  18.551  0.00  0.00    +0.000 C 
ATOM     20  O   UNL     1       7.358   5.795  15.963  0.00  0.00    +0.000 OA
ATOM     21  O   UNL     1       7.964   7.944  17.137  0.00  0.00    +0.000 OA
ENDBRANCH  17  18
ENDBRANCH  16  17
ENDBRANCH   4  16
TORSDOF 5
ENDMDL
MODEL 6
REMARK VINA RESULT:      -6.5      1.776      3.535
REMARK  Name = 
REMARK  8 active torsions:
REMARK  status: ('A' for Active; 'I' for Inactive)
REMARK    1  A    between atoms: C_1  and  C_2
REMARK    2  A    between atoms: C_2  and  C_3
REMARK    3  A    between atoms: C_3  and  C_4
REMARK    4  A    between atoms: C_4  and  C_5
REMARK    5  A    between atoms: C_8  and  C_10
REMARK    6  A    between atoms: C_10  and  C_11
REMARK    7  A    between atoms: C_11  and  S_12
REMARK    8  A    between atoms: S_12  and  C_13
REMARK                            x       y       z     vdW  Elec       q    Type
REMARK                         _______ _______ _______ _____ _____    ______ ____
ROOT
ATOM      1  C   UNL     1       6.409   6.404  17.802  0.00  0.00    +0.000 C 
ATOM      2  C   UNL     1       5.882   5.453  18.904  0.00  0.00    +0.000 C 
ATOM      3  N   UNL     1       5.297   4.279  18.233  0.00  0.00    +0.000 N 
ATOM      4  C   UNL     1       4.505   3.410  18.960  0.00  0.00    +0.000 C 
ATOM      5  O   UNL     1       4.319   3.566  20.172  0.00  0.00    +0.000 OA
ATOM      6  C   UNL     1       5.700   4.292  16.880  0.00  0.00    +0.000 A 
ATOM      7  C   UNL     1       5.506   3.366  15.865  0.00  0.00    +0.000 A 
ATOM      8  C   UNL     1       5.953   3.660  14.570  0.00  0.00    +0.000 A 
ATOM      9  C   UNL     1       6.625   4.855  14.299  0.00  0.00    +0.000 A 
ATOM     10  C   UNL     1       6.848   5.776  15.318  0.00  0.00    +0.000 A 
ATOM     11  C   UNL     1       6.376   5.487  16.597  0.00  0.00    +0.000 A 
ENDROOT
BRANCH   1  13
ATOM     12  C   UNL     1       3.961   7.266  17.417  0.00  0.00    +0.000 C 
ATOM     13  C   UNL     1       5.443   7.606  17.575  0.00  0.00    +0.000 C 
ENDBRANCH   1  13
BRANCH   1  14
ATOM     14  C   UNL     1       7.823   6.965  18.106  0.00  0.00    +0.000 C 
ATOM     15  C   UNL     1       8.061   8.436  17.779  0.00  0.00    +0.000 C 
ENDBRANCH   1  14
BRANCH   4  16
ATOM     16  C   UNL     1       3.856   2.254  18.253  0.00  0.00    +0.000 C 
BRANCH  16  17
ATOM     17  C   UNL     1       2.610   1.742  18.956  0.00  0.00    +0.000 C 
BRANCH  17  18
ATOM     18  S   UNL     1       1.230   2.794  18.526  0.00  0.00    +0.000 S 
ATOM     19  C   UNL     1       1.020   3.830  19.945  0.00  0.00    +0.000 C 
ATOM     20  O   UNL     1       1.635   3.641  17.422  0.00  0.00    +0.000 OA
ATOM     21  O   UNL     1       0.048   1.951  18.415  0.00  0.00    +0.000 OA
ENDBRANCH  17  18
ENDBRANCH  16  17
ENDBRANCH   4  16
TORSDOF 5
ENDMDL
MODEL 7
REMARK VINA RESULT:      -6.4      0.911      1.069
REMARK  Name = 
REMARK  8 active torsions:
REMARK  status: ('A' for Active; 'I' for Inactive)
REMARK    1  A    between atoms: C_1  and  C_2
REMARK    2  A    between atoms: C_2  and  C_3
REMARK    3  A    between atoms: C_3  and  C_4
REMARK    4  A    between atoms: C_4  and  C_5
REMARK    5  A    between atoms: C_8  and  C_10
REMARK    6  A    between atoms: C_10  and  C_11
REMARK    7  A    between atoms: C_11  and  S_12
REMARK    8  A    between atoms: S_12  and  C_13
REMARK                            x       y       z     vdW  Elec       q    Type
REMARK                         _______ _______ _______ _____ _____    ______ ____
ROOT
ATOM      1  C   UNL     1       5.526   4.950  16.953  0.00  0.00    +0.000 C 
ATOM      2  C   UNL     1       4.741   3.618  16.882  0.00  0.00    +0.000 C 
ATOM      3  N   UNL     1       3.401   3.864  17.444  0.00  0.00    +0.000 N 
ATOM      4  C   UNL     1       2.594   2.788  17.762  0.00  0.00    +0.000 C 
ATOM      5  O   UNL     1       2.948   1.626  17.538  0.00  0.00    +0.000 OA
ATOM      6  C   UNL     1       3.210   5.260  17.547  0.00  0.00    +0.000 A 
ATOM      7  C   UNL     1       2.096   6.000  17.913  0.00  0.00    +0.000 A 
ATOM      8  C   UNL     1       2.195   7.394  18.006  0.00  0.00    +0.000 A 
ATOM      9  C   UNL     1       3.390   8.048  17.698  0.00  0.00    +0.000 A 
ATOM     10  C   UNL     1       4.505   7.314  17.303  0.00  0.00    +0.000 A 
ATOM     11  C   UNL     1       4.405   5.926  17.239  0.00  0.00    +0.000 A 
ENDROOT
BRANCH   1  13
ATOM     12  C   UNL     1       7.582   6.073  18.136  0.00  0.00    +0.000 C 
ATOM     13  C   UNL     1       6.541   4.952  18.137  0.00  0.00    +0.000 C 
ENDBRANCH   1  13
BRANCH   1  14
ATOM     14  C   UNL     1       6.300   5.271  15.647  0.00  0.00    +0.000 C 
ATOM     15  C   UNL     1       6.166   4.265  14.507  0.00  0.00    +0.000 C 
ENDBRANCH   1  14
BRANCH   4  16
ATOM     16  C   UNL     1       1.256   3.046  18.398  0.00  0.00    +0.000 C 
BRANCH  16  17
ATOM     17  C   UNL     1       1.033   2.248  19.672  0.00  0.00    +0.000 C 
BRANCH  17  18
ATOM     18  S   UNL     1       1.920   3.037  21.010  0.00  0.00    +0.000 S 
ATOM     19  C   UNL     1       1.171   2.378  22.470  0.00  0.00    +0.000 C 
ATOM     20  O   UNL     1       3.293   2.577  20.975  0.00  0.00    +0.000 OA
ATOM     21  O   UNL     1       1.617   4.461  20.962  0.00  0.00    +0.000 OA
ENDBRANCH  17  18
ENDBRANCH  16  17
ENDBRANCH   4  16
TORSDOF 5
ENDMDL
MODEL 8
REMARK VINA RESULT:      -6.4      3.461      4.816
REMARK  Name = 
REMARK  8 active torsions:
REMARK  status: ('A' for Active; 'I' for Inactive)
REMARK    1  A    between atoms: C_1  and  C_2
REMARK    2  A    between atoms: C_2  and  C_3
REMARK    3  A    between atoms: C_3  and  C_4
REMARK    4  A    between atoms: C_4  and  C_5
REMARK    5  A    between atoms: C_8  and  C_10
REMARK    6  A    between atoms: C_10  and  C_11
REMARK    7  A    between atoms: C_11  and  S_12
REMARK    8  A    between atoms: S_12  and  C_13
REMARK                            x       y       z     vdW  Elec       q    Type
REMARK                         _______ _______ _______ _____ _____    ______ ____
ROOT
ATOM      1  C   UNL     1       5.035   4.848  17.723  0.00  0.00    +0.000 C 
ATOM      2  C   UNL     1       4.569   6.322  17.793  0.00  0.00    +0.000 C 
ATOM      3  N   UNL     1       3.421   6.380  18.715  0.00  0.00    +0.000 N 
ATOM      4  C   UNL     1       2.635   7.517  18.745  0.00  0.00    +0.000 C 
ATOM      5  O   UNL     1       2.903   8.506  18.055  0.00  0.00    +0.000 OA
ATOM      6  C   UNL     1       3.361   5.163  19.429  0.00  0.00    +0.000 A 
ATOM      7  C   UNL     1       2.542   4.762  20.474  0.00  0.00    +0.000 A 
ATOM      8  C   UNL     1       2.641   3.453  20.963  0.00  0.00    +0.000 A 
ATOM      9  C   UNL     1       3.580   2.562  20.438  0.00  0.00    +0.000 A 
ATOM     10  C   UNL     1       4.425   2.967  19.409  0.00  0.00    +0.000 A 
ATOM     11  C   UNL     1       4.302   4.262  18.910  0.00  0.00    +0.000 A 
ENDROOT
BRANCH   1  13
ATOM     12  C   UNL     1       5.496   4.245  15.211  0.00  0.00    +0.000 C 
ATOM     13  C   UNL     1       4.552   4.157  16.411  0.00  0.00    +0.000 C 
ENDBRANCH   1  13
BRANCH   1  14
ATOM     14  C   UNL     1       6.576   4.691  17.817  0.00  0.00    +0.000 C 
ATOM     15  C   UNL     1       7.308   5.662  18.740  0.00  0.00    +0.000 C 
ENDBRANCH   1  14
BRANCH   4  16
ATOM     16  C   UNL     1       1.426   7.541  19.638  0.00  0.00    +0.000 C 
BRANCH  16  17
ATOM     17  C   UNL     1       1.681   8.216  20.975  0.00  0.00    +0.000 C 
BRANCH  17  18
ATOM     18  S   UNL     1       0.214   9.119  21.454  0.00  0.00    +0.000 S 
ATOM     19  C   UNL     1      -0.291   9.937  19.970  0.00  0.00    +0.000 C 
ATOM     20  O   UNL     1      -0.816   8.158  21.797  0.00  0.00    +0.000 OA
ATOM     21  O   UNL     1       0.616  10.142  22.409  0.00  0.00    +0.000 OA
ENDBRANCH  17  18
ENDBRANCH  16  17
ENDBRANCH   4  16
TORSDOF 5
ENDMDL
MODEL 9
REMARK VINA RESULT:      -6.4      3.953      5.174
REMARK  Name = 
REMARK  8 active torsions:
REMARK  status: ('A' for Active; 'I' for Inactive)
REMARK    1  A    between atoms: C_1  and  C_2
REMARK    2  A    between atoms: C_2  and  C_3
REMARK    3  A    between atoms: C_3  and  C_4
REMARK    4  A    between atoms: C_4  and  C_5
REMARK    5  A    between atoms: C_8  and  C_10
REMARK    6  A    between atoms: C_10  and  C_11
REMARK    7  A    between atoms: C_11  and  S_12
REMARK    8  A    between atoms: S_12  and  C_13
REMARK                            x       y       z     vdW  Elec       q    Type
REMARK                         _______ _______ _______ _____ _____    ______ ____
ROOT
ATOM      1  C   UNL     1       4.641   4.819  18.144  0.00  0.00    +0.000 C 
ATOM      2  C   UNL     1       4.236   6.313  18.179  0.00  0.00    +0.000 C 
ATOM      3  N   UNL     1       3.088   6.439  19.094  0.00  0.00    +0.000 N 
ATOM      4  C   UNL     1       2.350   7.608  19.096  0.00  0.00    +0.000 C 
ATOM      5  O   UNL     1       2.661   8.569  18.385  0.00  0.00    +0.000 OA
ATOM      6  C   UNL     1       2.975   5.242  19.835  0.00  0.00    +0.000 A 
ATOM      7  C   UNL     1       2.136   4.898  20.885  0.00  0.00    +0.000 A 
ATOM      8  C   UNL     1       2.179   3.597  21.403  0.00  0.00    +0.000 A 
ATOM      9  C   UNL     1       3.082   2.657  20.902  0.00  0.00    +0.000 A 
ATOM     10  C   UNL     1       3.947   3.003  19.868  0.00  0.00    +0.000 A 
ATOM     11  C   UNL     1       3.879   4.291  19.340  0.00  0.00    +0.000 A 
ENDROOT
BRANCH   1  13
ATOM     12  C   UNL     1       5.108   4.089  15.667  0.00  0.00    +0.000 C 
ATOM     13  C   UNL     1       4.134   4.120  16.846  0.00  0.00    +0.000 C 
ENDBRANCH   1  13
BRANCH   1  14
ATOM     14  C   UNL     1       6.174   4.602  18.248  0.00  0.00    +0.000 C 
ATOM     15  C   UNL     1       7.019   5.830  18.576  0.00  0.00    +0.000 C 
ENDBRANCH   1  14
BRANCH   4  16
ATOM     16  C   UNL     1       1.140   7.701  19.983  0.00  0.00    +0.000 C 
BRANCH  16  17
ATOM     17  C   UNL     1       1.407   8.434  21.287  0.00  0.00    +0.000 C 
BRANCH  17  18
ATOM     18  S   UNL     1       0.381   9.898  21.347  0.00  0.00    +0.000 S 
ATOM     19  C   UNL     1      -0.558   9.704  22.833  0.00  0.00    +0.000 C 
ATOM     20  O   UNL     1       1.245  11.048  21.521  0.00  0.00    +0.000 OA
ATOM     21  O   UNL     1      -0.547   9.834  20.226  0.00  0.00    +0.000 OA
ENDBRANCH  17  18
ENDBRANCH  16  17
ENDBRANCH   4  16
TORSDOF 5
ENDMDL
