MODEL 1
REMARK VINA RESULT:      -6.0      0.000      0.000
REMARK  Name = 
REMARK  9 active torsions:
REMARK  status: ('A' for Active; 'I' for Inactive)
REMARK    1  A    between atoms: C_1  and  C_2
REMARK    2  A    between atoms: C_2  and  O_3
REMARK    3  A    between atoms: O_3  and  C_4
REMARK    4  A    between atoms: C_7  and  C_8
REMARK    5  A    between atoms: C_8  and  C_10
REMARK    6  A    between atoms: C_10  and  C_11
REMARK    7  A    between atoms: C_11  and  N_12
REMARK    8  A    between atoms: N_12  and  C_13
REMARK    9  A    between atoms: N_12  and  C_14
REMARK                            x       y       z     vdW  Elec       q    Type
REMARK                         _______ _______ _______ _____ _____    ______ ____
ROOT
ATOM      1  C   UNL     1       5.928   5.740  16.593  0.00  0.00    +0.000 A 
ATOM      2  C   UNL     1       4.816   6.254  17.263  0.00  0.00    +0.000 A 
ATOM      3  C   UNL     1       3.737   5.429  17.579  0.00  0.00    +0.000 A 
ATOM      4  C   UNL     1       3.760   4.077  17.222  0.00  0.00    +0.000 A 
ATOM      5  C   UNL     1       4.850   3.573  16.503  0.00  0.00    +0.000 A 
ATOM      6  C   UNL     1       5.930   4.405  16.185  0.00  0.00    +0.000 A 
ENDROOT
BRANCH   4   7
ATOM      7  C   UNL     1       2.618   3.214  17.647  0.00  0.00    +0.000 C 
ATOM      8  O   UNL     1       2.669   2.004  17.437  0.00  0.00    +0.000 OA
BRANCH   7   9
ATOM      9  C   UNL     1       1.413   3.852  18.309  0.00  0.00    +0.000 C 
BRANCH   9  10
ATOM     10  C   UNL     1       0.917   3.002  19.483  0.00  0.00    +0.000 C 
BRANCH  10  11
ATOM     11  N   UNL     1       1.210   3.573  20.811  0.00  0.00    +0.000 NA
ATOM     12  C   UNL     1       2.252   2.832  21.524  0.00  0.00    +0.000 C 
ATOM     13  C   UNL     1       1.618   4.974  20.665  0.00  0.00    +0.000 C 
ENDBRANCH  10  11
ENDBRANCH   9  10
ENDBRANCH   7   9
ENDBRANCH   4   7
BRANCH   1  14
ATOM     14  O   UNL     1       6.938   6.633  16.377  0.00  0.00    +0.000 OA
BRANCH  14  16
ATOM     15  C   UNL     1       8.066   7.074  18.425  0.00  0.00    +0.000 C 
ATOM     16  C   UNL     1       7.123   7.636  17.377  0.00  0.00    +0.000 C 
ENDBRANCH  14  16
ENDBRANCH   1  14
TORSDOF 6
ENDMDL
MODEL 2
REMARK VINA RESULT:      -6.0      1.148      1.258
REMARK  Name = 
REMARK  9 active torsions:
REMARK  status: ('A' for Active; 'I' for Inactive)
REMARK    1  A    between atoms: C_1  and  C_2
REMARK    2  A    between atoms: C_2  and  O_3
REMARK    3  A    between atoms: O_3  and  C_4
REMARK    4  A    between atoms: C_7  and  C_8
REMARK    5  A    between atoms: C_8  and  C_10
REMARK    6  A    between atoms: C_10  and  C_11
REMARK    7  A    between atoms: C_11  and  N_12
REMARK    8  A    between atoms: N_12  and  C_13
REMARK    9  A    between atoms: N_12  and  C_14
REMARK                            x       y       z     vdW  Elec       q    Type
REMARK                         _______ _______ _______ _____ _____    ______ ____
ROOT
ATOM      1  C   UNL     1       6.610   4.828  17.962  0.00  0.00    +0.000 A 
ATOM      2  C   UNL     1       5.799   4.782  19.097  0.00  0.00    +0.000 A 
ATOM      3  C   UNL     1       4.512   4.251  19.026  0.00  0.00    +0.000 A 
ATOM      4  C   UNL     1       4.022   3.762  17.810  0.00  0.00    +0.000 A 
ATOM      5  C   UNL     1       4.814   3.857  16.660  0.00  0.00    +0.000 A 
ATOM      6  C   UNL     1       6.105   4.394  16.736  0.00  0.00    +0.000 A 
ENDROOT
BRANCH   4   7
ATOM      7  C   UNL     1       2.668   3.133  17.796  0.00  0.00    +0.000 C 
ATOM      8  O   UNL     1       2.532   2.013  17.308  0.00  0.00    +0.000 OA
BRANCH   7   9
ATOM      9  C   UNL     1       1.489   3.898  18.364  0.00  0.00    +0.000 C 
BRANCH   9  10
ATOM     10  C   UNL     1       0.863   3.146  19.543  0.00  0.00    +0.000 C 
BRANCH  10  11
ATOM     11  N   UNL     1       1.114   3.765  20.858  0.00  0.00    +0.000 NA
ATOM     12  C   UNL     1       2.155   3.069  21.617  0.00  0.00    +0.000 C 
ATOM     13  C   UNL     1       1.497   5.169  20.676  0.00  0.00    +0.000 C 
ENDBRANCH  10  11
ENDBRANCH   9  10
ENDBRANCH   7   9
ENDBRANCH   4   7
BRANCH   1  14
ATOM     14  O   UNL     1       7.864   5.330  18.165  0.00  0.00    +0.000 OA
BRANCH  14  16
ATOM     15  C   UNL     1       7.646   7.624  17.572  0.00  0.00    +0.000 C 
ATOM     16  C   UNL     1       7.938   6.652  18.701  0.00  0.00    +0.000 C 
ENDBRANCH  14  16
ENDBRANCH   1  14
TORSDOF 6
ENDMDL
MODEL 3
REMARK VINA RESULT:      -5.9      0.984      1.339
REMARK  Name = 
REMARK  9 active torsions:
REMARK  status: ('A' for Active; 'I' for Inactive)
REMARK    1  A    between atoms: C_1  and  C_2
REMARK    2  A    between atoms: C_2  and  O_3
REMARK    3  A    between atoms: O_3  and  C_4
REMARK    4  A    between atoms: C_7  and  C_8
REMARK    5  A    between atoms: C_8  and  C_10
REMARK    6  A    between atoms: C_10  and  C_11
REMARK    7  A    between atoms: C_11  and  N_12
REMARK    8  A    between atoms: N_12  and  C_13
REMARK    9  A    between atoms: N_12  and  C_14
REMARK                            x       y       z     vdW  Elec       q    Type
REMARK                         _______ _______ _______ _____ _____    ______ ____
ROOT
ATOM      1  C   UNL     1       5.896   5.809  16.667  0.00  0.00    +0.000 A 
ATOM      2  C   UNL     1       4.810   6.485  17.223  0.00  0.00    +0.000 A 
ATOM      3  C   UNL     1       3.643   5.798  17.557  0.00  0.00    +0.000 A 
ATOM      4  C   UNL     1       3.553   4.420  17.332  0.00  0.00    +0.000 A 
ATOM      5  C   UNL     1       4.622   3.750  16.724  0.00  0.00    +0.000 A 
ATOM      6  C   UNL     1       5.790   4.445  16.388  0.00  0.00    +0.000 A 
ENDROOT
BRANCH   4   7
ATOM      7  C   UNL     1       2.316   3.711  17.774  0.00  0.00    +0.000 C 
ATOM      8  O   UNL     1       1.235   4.028  17.282  0.00  0.00    +0.000 OA
BRANCH   7   9
ATOM      9  C   UNL     1       2.418   2.633  18.834  0.00  0.00    +0.000 C 
BRANCH   9  10
ATOM     10  C   UNL     1       3.258   3.109  20.023  0.00  0.00    +0.000 C 
BRANCH  10  11
ATOM     11  N   UNL     1       2.468   3.622  21.158  0.00  0.00    +0.000 NA
ATOM     12  C   UNL     1       1.955   4.972  20.921  0.00  0.00    +0.000 C 
ATOM     13  C   UNL     1       1.348   2.714  21.427  0.00  0.00    +0.000 C 
ENDBRANCH  10  11
ENDBRANCH   9  10
ENDBRANCH   7   9
ENDBRANCH   4   7
BRANCH   1  14
ATOM     14  O   UNL     1       6.996   6.580  16.422  0.00  0.00    +0.000 OA
BRANCH  14  16
ATOM     15  C   UNL     1       7.948   6.522  18.601  0.00  0.00    +0.000 C 
ATOM     16  C   UNL     1       7.432   7.420  17.492  0.00  0.00    +0.000 C 
ENDBRANCH  14  16
ENDBRANCH   1  14
TORSDOF 6
ENDMDL
MODEL 4
REMARK VINA RESULT:      -5.9      1.093      1.163
REMARK  Name = 
REMARK  9 active torsions:
REMARK  status: ('A' for Active; 'I' for Inactive)
REMARK    1  A    between atoms: C_1  and  C_2
REMARK    2  A    between atoms: C_2  and  O_3
REMARK    3  A    between atoms: O_3  and  C_4
REMARK    4  A    between atoms: C_7  and  C_8
REMARK    5  A    between atoms: C_8  and  C_10
REMARK    6  A    between atoms: C_10  and  C_11
REMARK    7  A    between atoms: C_11  and  N_12
REMARK    8  A    between atoms: N_12  and  C_13
REMARK    9  A    between atoms: N_12  and  C_14
REMARK                            x       y       z     vdW  Elec       q    Type
REMARK                         _______ _______ _______ _____ _____    ______ ____
ROOT
ATOM      1  C   UNL     1       5.965   5.747  16.691  0.00  0.00    +0.000 A 
ATOM      2  C   UNL     1       4.869   6.427  17.224  0.00  0.00    +0.000 A 
ATOM      3  C   UNL     1       3.674   5.755  17.478  0.00  0.00    +0.000 A 
ATOM      4  C   UNL     1       3.565   4.389  17.197  0.00  0.00    +0.000 A 
ATOM      5  C   UNL     1       4.646   3.717  16.613  0.00  0.00    +0.000 A 
ATOM      6  C   UNL     1       5.842   4.397  16.356  0.00  0.00    +0.000 A 
ENDROOT
BRANCH   4   7
ATOM      7  C   UNL     1       2.294   3.693  17.557  0.00  0.00    +0.000 C 
ATOM      8  O   UNL     1       1.222   4.258  17.350  0.00  0.00    +0.000 OA
BRANCH   7   9
ATOM      9  C   UNL     1       2.355   2.316  18.187  0.00  0.00    +0.000 C 
BRANCH   9  10
ATOM     10  C   UNL     1       1.645   2.301  19.544  0.00  0.00    +0.000 C 
BRANCH  10  11
ATOM     11  N   UNL     1       2.527   2.587  20.692  0.00  0.00    +0.000 NA
ATOM     12  C   UNL     1       3.946   2.467  20.355  0.00  0.00    +0.000 C 
ATOM     13  C   UNL     1       2.257   3.939  21.195  0.00  0.00    +0.000 C 
ENDBRANCH  10  11
ENDBRANCH   9  10
ENDBRANCH   7   9
ENDBRANCH   4   7
BRANCH   1  14
ATOM     14  O   UNL     1       7.091   6.501  16.525  0.00  0.00    +0.000 OA
BRANCH  14  16
ATOM     15  C   UNL     1       8.020   6.591  18.713  0.00  0.00    +0.000 C 
ATOM     16  C   UNL     1       7.412   7.403  17.585  0.00  0.00    +0.000 C 
ENDBRANCH  14  16
ENDBRANCH   1  14
TORSDOF 6
ENDMDL
MODEL 5
REMARK VINA RESULT:      -5.8      1.155      1.516
REMARK  Name = 
REMARK  9 active torsions:
REMARK  status: ('A' for Active; 'I' for Inactive)
REMARK    1  A    between atoms: C_1  and  C_2
REMARK    2  A    between atoms: C_2  and  O_3
REMARK    3  A    between atoms: O_3  and  C_4
REMARK    4  A    between atoms: C_7  and  C_8
REMARK    5  A    between atoms: C_8  and  C_10
REMARK    6  A    between atoms: C_10  and  C_11
REMARK    7  A    between atoms: C_11  and  N_12
REMARK    8  A    between atoms: N_12  and  C_13
REMARK    9  A    between atoms: N_12  and  C_14
REMARK                            x       y       z     vdW  Elec       q    Type
REMARK                         _______ _______ _______ _____ _____    ______ ____
ROOT
ATOM      1  C   UNL     1       6.436   5.400  17.143  0.00  0.00    +0.000 A 
ATOM      2  C   UNL     1       6.239   4.971  18.456  0.00  0.00    +0.000 A 
ATOM      3  C   UNL     1       5.237   4.048  18.757  0.00  0.00    +0.000 A 
ATOM      4  C   UNL     1       4.419   3.547  17.739  0.00  0.00    +0.000 A 
ATOM      5  C   UNL     1       4.580   4.016  16.430  0.00  0.00    +0.000 A 
ATOM      6  C   UNL     1       5.585   4.945  16.134  0.00  0.00    +0.000 A 
ENDROOT
BRANCH   4   7
ATOM      7  C   UNL     1       3.411   2.504  18.093  0.00  0.00    +0.000 C 
ATOM      8  O   UNL     1       3.797   1.419  18.526  0.00  0.00    +0.000 OA
BRANCH   7   9
ATOM      9  C   UNL     1       1.938   2.797  17.891  0.00  0.00    +0.000 C 
BRANCH   9  10
ATOM     10  C   UNL     1       1.481   3.954  18.784  0.00  0.00    +0.000 C 
BRANCH  10  11
ATOM     11  N   UNL     1       1.978   3.884  20.171  0.00  0.00    +0.000 NA
ATOM     12  C   UNL     1       1.996   5.191  20.829  0.00  0.00    +0.000 C 
ATOM     13  C   UNL     1       1.146   2.957  20.945  0.00  0.00    +0.000 C 
ENDBRANCH  10  11
ENDBRANCH   9  10
ENDBRANCH   7   9
ENDBRANCH   4   7
BRANCH   1  14
ATOM     14  O   UNL     1       7.472   6.272  16.967  0.00  0.00    +0.000 OA
BRANCH  14  16
ATOM     15  C   UNL     1       7.885   8.495  17.706  0.00  0.00    +0.000 C 
ATOM     16  C   UNL     1       7.862   7.033  18.111  0.00  0.00    +0.000 C 
ENDBRANCH  14  16
ENDBRANCH   1  14
TORSDOF 6
ENDMDL
MODEL 6
REMARK VINA RESULT:      -5.8      2.432      5.499
REMARK  Name = 
REMARK  9 active torsions:
REMARK  status: ('A' for Active; 'I' for Inactive)
REMARK    1  A    between atoms: C_1  and  C_2
REMARK    2  A    between atoms: C_2  and  O_3
REMARK    3  A    between atoms: O_3  and  C_4
REMARK    4  A    between atoms: C_7  and  C_8
REMARK    5  A    between atoms: C_8  and  C_10
REMARK    6  A    between atoms: C_10  and  C_11
REMARK    7  A    between atoms: C_11  and  N_12
REMARK    8  A    between atoms: N_12  and  C_13
REMARK    9  A    between atoms: N_12  and  C_14
REMARK                            x       y       z     vdW  Elec       q    Type
REMARK                         _______ _______ _______ _____ _____    ______ ____
ROOT
ATOM      1  C   UNL     1       2.537   4.396  18.653  0.00  0.00    +0.000 A 
ATOM      2  C   UNL     1       3.009   5.636  18.218  0.00  0.00    +0.000 A 
ATOM      3  C   UNL     1       4.016   5.712  17.258  0.00  0.00    +0.000 A 
ATOM      4  C   UNL     1       4.565   4.541  16.724  0.00  0.00    +0.000 A 
ATOM      5  C   UNL     1       4.131   3.297  17.198  0.00  0.00    +0.000 A 
ATOM      6  C   UNL     1       3.121   3.226  18.165  0.00  0.00    +0.000 A 
ENDROOT
BRANCH   4   7
ATOM      7  C   UNL     1       5.587   4.669  15.643  0.00  0.00    +0.000 C 
ATOM      8  O   UNL     1       5.307   4.296  14.505  0.00  0.00    +0.000 OA
BRANCH   7   9
ATOM      9  C   UNL     1       6.953   5.235  15.977  0.00  0.00    +0.000 C 
BRANCH   9  10
ATOM     10  C   UNL     1       7.479   4.659  17.296  0.00  0.00    +0.000 C 
BRANCH  10  11
ATOM     11  N   UNL     1       7.745   5.672  18.335  0.00  0.00    +0.000 NA
ATOM     12  C   UNL     1       7.593   7.040  17.839  0.00  0.00    +0.000 C 
ATOM     13  C   UNL     1       6.841   5.460  19.471  0.00  0.00    +0.000 C 
ENDBRANCH  10  11
ENDBRANCH   9  10
ENDBRANCH   7   9
ENDBRANCH   4   7
BRANCH   1  14
ATOM     14  O   UNL     1       1.520   4.450  19.564  0.00  0.00    +0.000 OA
BRANCH  14  16
ATOM     15  C   UNL     1       1.394   2.849  21.320  0.00  0.00    +0.000 C 
ATOM     16  C   UNL     1       0.923   3.203  19.921  0.00  0.00    +0.000 C 
ENDBRANCH  14  16
ENDBRANCH   1  14
TORSDOF 6
ENDMDL
MODEL 7
REMARK VINA RESULT:      -5.8      0.993      1.199
REMARK  Name = 
REMARK  9 active torsions:
REMARK  status: ('A' for Active; 'I' for Inactive)
REMARK    1  A    between atoms: C_1  and  C_2
REMARK    2  A    between atoms: C_2  and  O_3
REMARK    3  A    between atoms: O_3  and  C_4
REMARK    4  A    between atoms: C_7  and  C_8
REMARK    5  A    between atoms: C_8  and  C_10
REMARK    6  A    between atoms: C_10  and  C_11
REMARK    7  A    between atoms: C_11  and  N_12
REMARK    8  A    between atoms: N_12  and  C_13
REMARK    9  A    between atoms: N_12  and  C_14
REMARK                            x       y       z     vdW  Elec       q    Type
REMARK                         _______ _______ _______ _____ _____    ______ ____
ROOT
ATOM      1  C   UNL     1       6.471   5.709  16.765  0.00  0.00    +0.000 A 
ATOM      2  C   UNL     1       5.493   6.060  17.697  0.00  0.00    +0.000 A 
ATOM      3  C   UNL     1       4.370   5.255  17.881  0.00  0.00    +0.000 A 
ATOM      4  C   UNL     1       4.213   4.087  17.127  0.00  0.00    +0.000 A 
ATOM      5  C   UNL     1       5.166   3.762  16.155  0.00  0.00    +0.000 A 
ATOM      6  C   UNL     1       6.291   4.575  15.971  0.00  0.00    +0.000 A 
ENDROOT
BRANCH   4   7
ATOM      7  C   UNL     1       3.034   3.216  17.411  0.00  0.00    +0.000 C 
ATOM      8  O   UNL     1       1.986   3.406  16.796  0.00  0.00    +0.000 OA
BRANCH   7   9
ATOM      9  C   UNL     1       3.148   2.133  18.465  0.00  0.00    +0.000 C 
BRANCH   9  10
ATOM     10  C   UNL     1       3.071   2.729  19.875  0.00  0.00    +0.000 C 
BRANCH  10  11
ATOM     11  N   UNL     1       1.697   2.943  20.367  0.00  0.00    +0.000 NA
ATOM     12  C   UNL     1       1.528   2.530  21.761  0.00  0.00    +0.000 C 
ATOM     13  C   UNL     1       1.342   4.360  20.231  0.00  0.00    +0.000 C 
ENDBRANCH  10  11
ENDBRANCH   9  10
ENDBRANCH   7   9
ENDBRANCH   4   7
BRANCH   1  14
ATOM     14  O   UNL     1       7.544   6.551  16.705  0.00  0.00    +0.000 OA
BRANCH  14  16
ATOM     15  C   UNL     1       7.883   8.671  17.731  0.00  0.00    +0.000 C 
ATOM     16  C   UNL     1       7.936   7.167  17.932  0.00  0.00    +0.000 C 
ENDBRANCH  14  16
ENDBRANCH   1  14
TORSDOF 6
ENDMDL
MODEL 8
REMARK VINA RESULT:      -5.7      1.269      1.414
REMARK  Name = 
REMARK  9 active torsions:
REMARK  status: ('A' for Active; 'I' for Inactive)
REMARK    1  A    between atoms: C_1  and  C_2
REMARK    2  A    between atoms: C_2  and  O_3
REMARK    3  A    between atoms: O_3  and  C_4
REMARK    4  A    between atoms: C_7  and  C_8
REMARK    5  A    between atoms: C_8  and  C_10
REMARK    6  A    between atoms: C_10  and  C_11
REMARK    7  A    between atoms: C_11  and  N_12
REMARK    8  A    between atoms: N_12  and  C_13
REMARK    9  A    between atoms: N_12  and  C_14
REMARK                            x       y       z     vdW  Elec       q    Type
REMARK                         _______ _______ _______ _____ _____    ______ ____
ROOT
ATOM      1  C   UNL     1       6.570   6.559  17.368  0.00  0.00    +0.000 A 
ATOM      2  C   UNL     1       5.433   6.538  16.559  0.00  0.00    +0.000 A 
ATOM      3  C   UNL     1       4.449   5.568  16.747  0.00  0.00    +0.000 A 
ATOM      4  C   UNL     1       4.597   4.604  17.750  0.00  0.00    +0.000 A 
ATOM      5  C   UNL     1       5.762   4.591  18.527  0.00  0.00    +0.000 A 
ATOM      6  C   UNL     1       6.749   5.565  18.332  0.00  0.00    +0.000 A 
ENDROOT
BRANCH   4   7
ATOM      7  C   UNL     1       3.484   3.633  17.966  0.00  0.00    +0.000 C 
ATOM      8  O   UNL     1       3.735   2.429  17.990  0.00  0.00    +0.000 OA
BRANCH   7   9
ATOM      9  C   UNL     1       2.069   4.150  18.129  0.00  0.00    +0.000 C 
BRANCH   9  10
ATOM     10  C   UNL     1       1.214   3.166  18.935  0.00  0.00    +0.000 C 
BRANCH  10  11
ATOM     11  N   UNL     1       1.012   3.552  20.344  0.00  0.00    +0.000 NA
ATOM     12  C   UNL     1       1.737   2.684  21.274  0.00  0.00    +0.000 C 
ATOM     13  C   UNL     1       1.438   4.942  20.540  0.00  0.00    +0.000 C 
ENDBRANCH  10  11
ENDBRANCH   9  10
ENDBRANCH   7   9
ENDBRANCH   4   7
BRANCH   1  14
ATOM     14  O   UNL     1       7.442   7.580  17.117  0.00  0.00    +0.000 OA
BRANCH  14  16
ATOM     15  C   UNL     1       8.407   9.522  18.095  0.00  0.00    +0.000 C 
ATOM     16  C   UNL     1       8.238   8.018  18.219  0.00  0.00    +0.000 C 
ENDBRANCH  14  16
ENDBRANCH   1  14
TORSDOF 6
ENDMDL
MODEL 9
REMARK VINA RESULT:      -5.7      1.168      1.449
REMARK  Name = 
REMARK  9 active torsions:
REMARK  status: ('A' for Active; 'I' for Inactive)
REMARK    1  A    between atoms: C_1  and  C_2
REMARK    2  A    between atoms: C_2  and  O_3
REMARK    3  A    between atoms: O_3  and  C_4
REMARK    4  A    between atoms: C_7  and  C_8
REMARK    5  A    between atoms: C_8  and  C_10
REMARK    6  A    between atoms: C_10  and  C_11
REMARK    7  A    between atoms: C_11  and  N_12
REMARK    8  A    between atoms: N_12  and  C_13
REMARK    9  A    between atoms: N_12  and  C_14
REMARK                            x       y       z     vdW  Elec       q    Type
REMARK                         _______ _______ _______ _____ _____    ______ ____
ROOT
ATOM      1  C   UNL     1       6.098   5.857  18.218  0.00  0.00    +0.000 A 
ATOM      2  C   UNL     1       6.023   4.707  19.005  0.00  0.00    +0.000 A 
ATOM      3  C   UNL     1       4.914   3.865  18.923  0.00  0.00    +0.000 A 
ATOM      4  C   UNL     1       3.865   4.170  18.050  0.00  0.00    +0.000 A 
ATOM      5  C   UNL     1       3.915   5.351  17.299  0.00  0.00    +0.000 A 
ATOM      6  C   UNL     1       5.029   6.195  17.387  0.00  0.00    +0.000 A 
ENDROOT
BRANCH   4   7
ATOM      7  C   UNL     1       2.734   3.202  17.938  0.00  0.00    +0.000 C 
ATOM      8  O   UNL     1       2.954   2.070  17.511  0.00  0.00    +0.000 OA
BRANCH   7   9
ATOM      9  C   UNL     1       1.339   3.642  18.333  0.00  0.00    +0.000 C 
BRANCH   9  10
ATOM     10  C   UNL     1       0.854   2.884  19.573  0.00  0.00    +0.000 C 
BRANCH  10  11
ATOM     11  N   UNL     1       1.170   3.548  20.851  0.00  0.00    +0.000 NA
ATOM     12  C   UNL     1       2.303   2.930  21.541  0.00  0.00    +0.000 C 
ATOM     13  C   UNL     1       1.459   4.967  20.610  0.00  0.00    +0.000 C 
ENDBRANCH  10  11
ENDBRANCH   9  10
ENDBRANCH   7   9
ENDBRANCH   4   7
BRANCH   1  14
ATOM     14  O   UNL     1       7.250   6.578  18.354  0.00  0.00    +0.000 OA
BRANCH  14  16
ATOM     15  C   UNL     1       8.156   8.739  17.940  0.00  0.00    +0.000 C 
ATOM     16  C   UNL     1       7.548   7.501  17.306  0.00  0.00    +0.000 C 
ENDBRANCH  14  16
ENDBRANCH   1  14
TORSDOF 6
ENDMDL
