MODEL 1
REMARK VINA RESULT:      -8.5      0.000      0.000
REMARK  Name = 
REMARK  8 active torsions:
REMARK  status: ('A' for Active; 'I' for Inactive)
REMARK    1  A    between atoms: C_1  and  C_2
REMARK    2  A    between atoms: N_4  and  C_5
REMARK    3  A    between atoms: C_6  and  O_7
REMARK    4  A    between atoms: O_7  and  C_8
REMARK    5  A    between atoms: C_19  and  C_20
REMARK    6  A    between atoms: C_20  and  O_21
REMARK    7  A    between atoms: C_22  and  O_23
REMARK    8  A    between atoms: C_24  and  O_25
REMARK                            x       y       z     vdW  Elec       q    Type
REMARK                         _______ _______ _______ _____ _____    ______ ____
ROOT
ATOM      1  C   UNL     1       4.512   4.573  18.768  0.00  0.00    +0.000 C 
ATOM      2  C   UNL     1       3.136   5.250  18.489  0.00  0.00    +0.000 C 
ATOM      3  O   UNL     1       2.429   4.540  17.455  0.00  0.00    +0.000 OA
ATOM      4  C   UNL     1       2.174   3.147  17.728  0.00  0.00    +0.000 C 
ATOM      5  C   UNL     1       3.464   2.385  18.080  0.00  0.00    +0.000 C 
ATOM      6  C   UNL     1       4.266   3.102  19.178  0.00  0.00    +0.000 C 
ENDROOT
BRANCH   1  10
ATOM      7  C   UNL     1       7.396   4.832  16.264  0.00  0.00    +0.000 C 
ATOM      8  C   UNL     1       6.753   4.711  17.626  0.00  0.00    +0.000 C 
ATOM      9  O   UNL     1       7.400   4.648  18.661  0.00  0.00    +0.000 OA
ATOM     10  N   UNL     1       5.371   4.680  17.579  0.00  0.00    +0.000 N 
ATOM     11  H   UNL     1       4.924   4.951  16.710  0.00  0.00    +0.000 HD
ENDBRANCH   1  10
BRANCH   5  12
ATOM     12  O   UNL     1       3.179   1.038  18.459  0.00  0.00    +0.000 OA
ATOM     13  H   UNL     1       4.028   0.554  18.427  0.00  0.00    +0.000 HD
ENDBRANCH   5  12
BRANCH   6  14
ATOM     14  O   UNL     1       3.554   2.929  20.420  0.00  0.00    +0.000 OA
ATOM     15  H   UNL     1       2.963   3.680  20.596  0.00  0.00    +0.000 HD
ENDBRANCH   6  14
BRANCH   2  16
ATOM     16  O   UNL     1       3.376   6.619  18.103  0.00  0.00    +0.000 OA
BRANCH  16  17
ATOM     17  C   UNL     1       2.526   7.557  18.636  0.00  0.00    +0.000 A 
ATOM     18  C   UNL     1       2.027   8.515  17.758  0.00  0.00    +0.000 A 
ATOM     19  C   UNL     1       1.183   9.533  18.227  0.00  0.00    +0.000 A 
ATOM     20  C   UNL     1       0.791   9.581  19.575  0.00  0.00    +0.000 A 
ATOM     21  C   UNL     1      -0.054  10.589  20.068  0.00  0.00    +0.000 A 
ATOM     22  C   UNL     1      -0.461  10.593  21.406  0.00  0.00    +0.000 A 
ATOM     23  C   UNL     1      -0.022   9.594  22.269  0.00  0.00    +0.000 A 
ATOM     24  C   UNL     1       0.836   8.596  21.799  0.00  0.00    +0.000 A 
ATOM     25  C   UNL     1       1.252   8.582  20.455  0.00  0.00    +0.000 A 
ATOM     26  C   UNL     1       2.116   7.587  19.970  0.00  0.00    +0.000 A 
ENDBRANCH  16  17
ENDBRANCH   2  16
BRANCH   4  27
ATOM     27  C   UNL     1       1.030   2.970  18.748  0.00  0.00    +0.000 C 
BRANCH  27  28
ATOM     28  O   UNL     1       0.259   1.801  18.460  0.00  0.00    +0.000 OA
ATOM     29  H   UNL     1      -0.655   2.087  18.296  0.00  0.00    +0.000 HD
ENDBRANCH  27  28
ENDBRANCH   4  27
TORSDOF 7
ENDMDL
MODEL 2
REMARK VINA RESULT:      -8.4      1.545      4.085
REMARK  Name = 
REMARK  8 active torsions:
REMARK  status: ('A' for Active; 'I' for Inactive)
REMARK    1  A    between atoms: C_1  and  C_2
REMARK    2  A    between atoms: N_4  and  C_5
REMARK    3  A    between atoms: C_6  and  O_7
REMARK    4  A    between atoms: O_7  and  C_8
REMARK    5  A    between atoms: C_19  and  C_20
REMARK    6  A    between atoms: C_20  and  O_21
REMARK    7  A    between atoms: C_22  and  O_23
REMARK    8  A    between atoms: C_24  and  O_25
REMARK                            x       y       z     vdW  Elec       q    Type
REMARK                         _______ _______ _______ _____ _____    ______ ____
ROOT
ATOM      1  C   UNL     1       4.216   4.984  17.147  0.00  0.00    +0.000 C 
ATOM      2  C   UNL     1       4.494   5.964  18.327  0.00  0.00    +0.000 C 
ATOM      3  O   UNL     1       5.670   5.556  19.051  0.00  0.00    +0.000 OA
ATOM      4  C   UNL     1       6.878   5.474  18.267  0.00  0.00    +0.000 C 
ATOM      5  C   UNL     1       6.701   4.574  17.031  0.00  0.00    +0.000 C 
ATOM      6  C   UNL     1       5.454   4.960  16.220  0.00  0.00    +0.000 C 
ENDROOT
BRANCH   1  10
ATOM      7  C   UNL     1       2.556   1.729  18.291  0.00  0.00    +0.000 C 
ATOM      8  C   UNL     1       2.617   3.114  17.691  0.00  0.00    +0.000 C 
ATOM      9  O   UNL     1       1.630   3.696  17.266  0.00  0.00    +0.000 OA
ATOM     10  N   UNL     1       3.893   3.649  17.674  0.00  0.00    +0.000 N 
ATOM     11  H   UNL     1       4.602   3.190  18.234  0.00  0.00    +0.000 HD
ENDBRANCH   1  10
BRANCH   5  12
ATOM     12  O   UNL     1       7.867   4.596  16.207  0.00  0.00    +0.000 OA
ATOM     13  H   UNL     1       8.627   4.419  16.796  0.00  0.00    +0.000 HD
ENDBRANCH   5  12
BRANCH   6  14
ATOM     14  O   UNL     1       5.737   6.207  15.554  0.00  0.00    +0.000 OA
ATOM     15  H   UNL     1       6.547   6.617  15.901  0.00  0.00    +0.000 HD
ENDBRANCH   6  14
BRANCH   2  16
ATOM     16  O   UNL     1       3.336   5.975  19.188  0.00  0.00    +0.000 OA
BRANCH  16  17
ATOM     17  C   UNL     1       2.590   7.128  19.183  0.00  0.00    +0.000 A 
ATOM     18  C   UNL     1       2.539   7.832  17.983  0.00  0.00    +0.000 A 
ATOM     19  C   UNL     1       1.832   9.040  17.900  0.00  0.00    +0.000 A 
ATOM     20  C   UNL     1       1.130   9.542  19.009  0.00  0.00    +0.000 A 
ATOM     21  C   UNL     1       0.413  10.749  18.951  0.00  0.00    +0.000 A 
ATOM     22  C   UNL     1      -0.309  11.208  20.056  0.00  0.00    +0.000 A 
ATOM     23  C   UNL     1      -0.319  10.470  21.235  0.00  0.00    +0.000 A 
ATOM     24  C   UNL     1       0.405   9.278  21.316  0.00  0.00    +0.000 A 
ATOM     25  C   UNL     1       1.136   8.806  20.210  0.00  0.00    +0.000 A 
ATOM     26  C   UNL     1       1.871   7.611  20.278  0.00  0.00    +0.000 A 
ENDBRANCH  16  17
ENDBRANCH   2  16
BRANCH   4  27
ATOM     27  C   UNL     1       7.451   6.873  17.961  0.00  0.00    +0.000 C 
BRANCH  27  28
ATOM     28  O   UNL     1       8.468   7.230  18.900  0.00  0.00    +0.000 OA
ATOM     29  H   UNL     1       9.200   6.601  18.791  0.00  0.00    +0.000 HD
ENDBRANCH  27  28
ENDBRANCH   4  27
TORSDOF 7
ENDMDL
MODEL 3
REMARK VINA RESULT:      -8.1      0.571      1.508
REMARK  Name = 
REMARK  8 active torsions:
REMARK  status: ('A' for Active; 'I' for Inactive)
REMARK    1  A    between atoms: C_1  and  C_2
REMARK    2  A    between atoms: N_4  and  C_5
REMARK    3  A    between atoms: C_6  and  O_7
REMARK    4  A    between atoms: O_7  and  C_8
REMARK    5  A    between atoms: C_19  and  C_20
REMARK    6  A    between atoms: C_20  and  O_21
REMARK    7  A    between atoms: C_22  and  O_23
REMARK    8  A    between atoms: C_24  and  O_25
REMARK                            x       y       z     vdW  Elec       q    Type
REMARK                         _______ _______ _______ _____ _____    ______ ____
ROOT
ATOM      1  C   UNL     1       4.508   4.646  18.647  0.00  0.00    +0.000 C 
ATOM      2  C   UNL     1       3.085   5.266  18.505  0.00  0.00    +0.000 C 
ATOM      3  O   UNL     1       2.332   4.565  17.498  0.00  0.00    +0.000 OA
ATOM      4  C   UNL     1       2.163   3.151  17.728  0.00  0.00    +0.000 C 
ATOM      5  C   UNL     1       3.511   2.440  17.945  0.00  0.00    +0.000 C 
ATOM      6  C   UNL     1       4.364   3.149  19.008  0.00  0.00    +0.000 C 
ENDROOT
BRANCH   1  10
ATOM      7  C   UNL     1       7.171   4.999  15.919  0.00  0.00    +0.000 C 
ATOM      8  C   UNL     1       6.642   4.743  17.310  0.00  0.00    +0.000 C 
ATOM      9  O   UNL     1       7.368   4.476  18.257  0.00  0.00    +0.000 OA
ATOM     10  N   UNL     1       5.266   4.844  17.401  0.00  0.00    +0.000 N 
ATOM     11  H   UNL     1       4.774   5.275  16.627  0.00  0.00    +0.000 HD
ENDBRANCH   1  10
BRANCH   5  12
ATOM     12  O   UNL     1       3.319   1.066  18.284  0.00  0.00    +0.000 OA
ATOM     13  H   UNL     1       3.424   0.557  17.456  0.00  0.00    +0.000 HD
ENDBRANCH   5  12
BRANCH   6  14
ATOM     14  O   UNL     1       3.761   2.891  20.293  0.00  0.00    +0.000 OA
ATOM     15  H   UNL     1       3.295   3.675  20.629  0.00  0.00    +0.000 HD
ENDBRANCH   6  14
BRANCH   2  16
ATOM     16  O   UNL     1       3.232   6.660  18.163  0.00  0.00    +0.000 OA
BRANCH  16  17
ATOM     17  C   UNL     1       2.425   7.538  18.845  0.00  0.00    +0.000 A 
ATOM     18  C   UNL     1       2.113   7.203  20.160  0.00  0.00    +0.000 A 
ATOM     19  C   UNL     1       1.263   8.024  20.915  0.00  0.00    +0.000 A 
ATOM     20  C   UNL     1       0.747   9.215  20.380  0.00  0.00    +0.000 A 
ATOM     21  C   UNL     1      -0.105  10.055  21.118  0.00  0.00    +0.000 A 
ATOM     22  C   UNL     1      -0.575  11.255  20.575  0.00  0.00    +0.000 A 
ATOM     23  C   UNL     1      -0.206  11.627  19.287  0.00  0.00    +0.000 A 
ATOM     24  C   UNL     1       0.624  10.794  18.533  0.00  0.00    +0.000 A 
ATOM     25  C   UNL     1       1.103   9.584  19.067  0.00  0.00    +0.000 A 
ATOM     26  C   UNL     1       1.935   8.735  18.320  0.00  0.00    +0.000 A 
ENDBRANCH  16  17
ENDBRANCH   2  16
BRANCH   4  27
ATOM     27  C   UNL     1       1.113   2.877  18.823  0.00  0.00    +0.000 C 
BRANCH  27  28
ATOM     28  O   UNL     1       0.285   1.764  18.476  0.00  0.00    +0.000 OA
ATOM     29  H   UNL     1       0.152   1.236  19.282  0.00  0.00    +0.000 HD
ENDBRANCH  27  28
ENDBRANCH   4  27
TORSDOF 7
ENDMDL
MODEL 4
REMARK VINA RESULT:      -7.9      1.780      4.297
REMARK  Name = 
REMARK  8 active torsions:
REMARK  status: ('A' for Active; 'I' for Inactive)
REMARK    1  A    between atoms: C_1  and  C_2
REMARK    2  A    between atoms: N_4  and  C_5
REMARK    3  A    between atoms: C_6  and  O_7
REMARK    4  A    between atoms: O_7  and  C_8
REMARK    5  A    between atoms: C_19  and  C_20
REMARK    6  A    between atoms: C_20  and  O_21
REMARK    7  A    between atoms: C_22  and  O_23
REMARK    8  A    between atoms: C_24  and  O_25
REMARK                            x       y       z     vdW  Elec       q    Type
REMARK                         _______ _______ _______ _____ _____    ______ ____
ROOT
ATOM      1  C   UNL     1       4.180   4.223  16.922  0.00  0.00    +0.000 C 
ATOM      2  C   UNL     1       4.079   5.508  17.798  0.00  0.00    +0.000 C 
ATOM      3  O   UNL     1       5.288   5.694  18.557  0.00  0.00    +0.000 OA
ATOM      4  C   UNL     1       6.496   5.802  17.775  0.00  0.00    +0.000 C 
ATOM      5  C   UNL     1       6.670   4.607  16.820  0.00  0.00    +0.000 C 
ATOM      6  C   UNL     1       5.404   4.356  15.986  0.00  0.00    +0.000 C 
ENDROOT
BRANCH   1  10
ATOM      7  C   UNL     1       3.594   0.998  18.901  0.00  0.00    +0.000 C 
ATOM      8  C   UNL     1       3.247   2.122  17.954  0.00  0.00    +0.000 C 
ATOM      9  O   UNL     1       2.162   2.208  17.396  0.00  0.00    +0.000 OA
ATOM     10  N   UNL     1       4.271   3.036  17.787  0.00  0.00    +0.000 N 
ATOM     11  H   UNL     1       5.042   3.003  18.444  0.00  0.00    +0.000 HD
ENDBRANCH   1  10
BRANCH   5  12
ATOM     12  O   UNL     1       7.806   4.786  15.974  0.00  0.00    +0.000 OA
ATOM     13  H   UNL     1       7.830   4.015  15.373  0.00  0.00    +0.000 HD
ENDBRANCH   5  12
BRANCH   6  14
ATOM     14  O   UNL     1       5.309   5.414  15.010  0.00  0.00    +0.000 OA
ATOM     15  H   UNL     1       5.166   6.276  15.437  0.00  0.00    +0.000 HD
ENDBRANCH   6  14
BRANCH   2  16
ATOM     16  O   UNL     1       2.938   5.372  18.671  0.00  0.00    +0.000 OA
BRANCH  16  17
ATOM     17  C   UNL     1       2.383   6.542  19.128  0.00  0.00    +0.000 A 
ATOM     18  C   UNL     1       1.901   6.533  20.434  0.00  0.00    +0.000 A 
ATOM     19  C   UNL     1       1.283   7.673  20.968  0.00  0.00    +0.000 A 
ATOM     20  C   UNL     1       1.175   8.854  20.215  0.00  0.00    +0.000 A 
ATOM     21  C   UNL     1       0.562  10.010  20.728  0.00  0.00    +0.000 A 
ATOM     22  C   UNL     1       0.502  11.185  19.973  0.00  0.00    +0.000 A 
ATOM     23  C   UNL     1       1.048  11.218  18.694  0.00  0.00    +0.000 A 
ATOM     24  C   UNL     1       1.643  10.072  18.162  0.00  0.00    +0.000 A 
ATOM     25  C   UNL     1       1.709   8.883  18.912  0.00  0.00    +0.000 A 
ATOM     26  C   UNL     1       2.302   7.722  18.388  0.00  0.00    +0.000 A 
ENDBRANCH  16  17
ENDBRANCH   2  16
BRANCH   4  27
ATOM     27  C   UNL     1       6.610   7.183  17.097  0.00  0.00    +0.000 C 
BRANCH  27  28
ATOM     28  O   UNL     1       7.961   7.649  17.103  0.00  0.00    +0.000 OA
ATOM     29  H   UNL     1       7.984   8.485  16.607  0.00  0.00    +0.000 HD
ENDBRANCH  27  28
ENDBRANCH   4  27
TORSDOF 7
ENDMDL
MODEL 5
REMARK VINA RESULT:      -7.6      1.658      3.949
REMARK  Name = 
REMARK  8 active torsions:
REMARK  status: ('A' for Active; 'I' for Inactive)
REMARK    1  A    between atoms: C_1  and  C_2
REMARK    2  A    between atoms: N_4  and  C_5
REMARK    3  A    between atoms: C_6  and  O_7
REMARK    4  A    between atoms: O_7  and  C_8
REMARK    5  A    between atoms: C_19  and  C_20
REMARK    6  A    between atoms: C_20  and  O_21
REMARK    7  A    between atoms: C_22  and  O_23
REMARK    8  A    between atoms: C_24  and  O_25
REMARK                            x       y       z     vdW  Elec       q    Type
REMARK                         _______ _______ _______ _____ _____    ______ ____
ROOT
ATOM      1  C   UNL     1       4.550   4.140  17.929  0.00  0.00    +0.000 C 
ATOM      2  C   UNL     1       4.489   5.623  18.403  0.00  0.00    +0.000 C 
ATOM      3  O   UNL     1       5.786   6.061  18.847  0.00  0.00    +0.000 OA
ATOM      4  C   UNL     1       6.838   5.967  17.864  0.00  0.00    +0.000 C 
ATOM      5  C   UNL     1       6.950   4.548  17.278  0.00  0.00    +0.000 C 
ATOM      6  C   UNL     1       5.591   4.024  16.791  0.00  0.00    +0.000 C 
ENDROOT
BRANCH   1  10
ATOM      7  C   UNL     1       4.574   1.586  20.782  0.00  0.00    +0.000 C 
ATOM      8  C   UNL     1       3.994   2.353  19.617  0.00  0.00    +0.000 C 
ATOM      9  O   UNL     1       2.855   2.177  19.209  0.00  0.00    +0.000 OA
ATOM     10  N   UNL     1       4.876   3.266  19.068  0.00  0.00    +0.000 N 
ATOM     11  H   UNL     1       5.709   3.493  19.599  0.00  0.00    +0.000 HD
ENDBRANCH   1  10
BRANCH   5  12
ATOM     12  O   UNL     1       7.916   4.502  16.227  0.00  0.00    +0.000 OA
ATOM     13  H   UNL     1       8.064   3.556  16.025  0.00  0.00    +0.000 HD
ENDBRANCH   5  12
BRANCH   6  14
ATOM     14  O   UNL     1       5.253   4.742  15.586  0.00  0.00    +0.000 OA
ATOM     15  H   UNL     1       5.227   5.701  15.742  0.00  0.00    +0.000 HD
ENDBRANCH   6  14
BRANCH   2  16
ATOM     16  O   UNL     1       3.519   5.718  19.467  0.00  0.00    +0.000 OA
BRANCH  16  17
ATOM     17  C   UNL     1       2.725   6.839  19.464  0.00  0.00    +0.000 A 
ATOM     18  C   UNL     1       2.652   7.546  18.267  0.00  0.00    +0.000 A 
ATOM     19  C   UNL     1       1.895   8.724  18.186  0.00  0.00    +0.000 A 
ATOM     20  C   UNL     1       1.165   9.189  19.292  0.00  0.00    +0.000 A 
ATOM     21  C   UNL     1       0.398  10.365  19.235  0.00  0.00    +0.000 A 
ATOM     22  C   UNL     1      -0.351  10.786  20.338  0.00  0.00    +0.000 A 
ATOM     23  C   UNL     1      -0.337  10.042  21.513  0.00  0.00    +0.000 A 
ATOM     24  C   UNL     1       0.436   8.881  21.593  0.00  0.00    +0.000 A 
ATOM     25  C   UNL     1       1.194   8.448  20.490  0.00  0.00    +0.000 A 
ATOM     26  C   UNL     1       1.978   7.284  20.556  0.00  0.00    +0.000 A 
ENDBRANCH  16  17
ENDBRANCH   2  16
BRANCH   4  27
ATOM     27  C   UNL     1       6.729   7.088  16.809  0.00  0.00    +0.000 C 
BRANCH  27  28
ATOM     28  O   UNL     1       7.506   8.227  17.185  0.00  0.00    +0.000 OA
ATOM     29  H   UNL     1       6.918   9.000  17.169  0.00  0.00    +0.000 HD
ENDBRANCH  27  28
ENDBRANCH   4  27
TORSDOF 7
ENDMDL
MODEL 6
REMARK VINA RESULT:      -7.5      1.284      1.374
REMARK  Name = 
REMARK  8 active torsions:
REMARK  status: ('A' for Active; 'I' for Inactive)
REMARK    1  A    between atoms: C_1  and  C_2
REMARK    2  A    between atoms: N_4  and  C_5
REMARK    3  A    between atoms: C_6  and  O_7
REMARK    4  A    between atoms: O_7  and  C_8
REMARK    5  A    between atoms: C_19  and  C_20
REMARK    6  A    between atoms: C_20  and  O_21
REMARK    7  A    between atoms: C_22  and  O_23
REMARK    8  A    between atoms: C_24  and  O_25
REMARK                            x       y       z     vdW  Elec       q    Type
REMARK                         _______ _______ _______ _____ _____    ______ ____
ROOT
ATOM      1  C   UNL     1       4.871   5.290  18.022  0.00  0.00    +0.000 C 
ATOM      2  C   UNL     1       3.446   5.740  18.464  0.00  0.00    +0.000 C 
ATOM      3  O   UNL     1       2.484   4.708  18.179  0.00  0.00    +0.000 OA
ATOM      4  C   UNL     1       2.744   3.434  18.804  0.00  0.00    +0.000 C 
ATOM      5  C   UNL     1       4.158   2.916  18.485  0.00  0.00    +0.000 C 
ATOM      6  C   UNL     1       5.230   3.981  18.765  0.00  0.00    +0.000 C 
ENDROOT
BRANCH   1  10
ATOM      7  C   UNL     1       5.843   4.943  14.335  0.00  0.00    +0.000 C 
ATOM      8  C   UNL     1       6.078   5.121  15.817  0.00  0.00    +0.000 C 
ATOM      9  O   UNL     1       7.193   5.249  16.300  0.00  0.00    +0.000 OA
ATOM     10  N   UNL     1       4.912   5.126  16.560  0.00  0.00    +0.000 N 
ATOM     11  H   UNL     1       4.036   5.229  16.061  0.00  0.00    +0.000 HD
ENDBRANCH   1  10
BRANCH   5  12
ATOM     12  O   UNL     1       4.440   1.714  19.203  0.00  0.00    +0.000 OA
ATOM     13  H   UNL     1       3.941   1.000  18.758  0.00  0.00    +0.000 HD
ENDBRANCH   5  12
BRANCH   6  14
ATOM     14  O   UNL     1       5.353   4.110  20.196  0.00  0.00    +0.000 OA
ATOM     15  H   UNL     1       4.481   4.162  20.622  0.00  0.00    +0.000 HD
ENDBRANCH   6  14
BRANCH   2  16
ATOM     16  O   UNL     1       3.119   6.958  17.762  0.00  0.00    +0.000 OA
BRANCH  16  17
ATOM     17  C   UNL     1       2.367   7.873  18.457  0.00  0.00    +0.000 A 
ATOM     18  C   UNL     1       1.935   8.990  17.748  0.00  0.00    +0.000 A 
ATOM     19  C   UNL     1       1.195   9.994  18.390  0.00  0.00    +0.000 A 
ATOM     20  C   UNL     1       0.841   9.874  19.744  0.00  0.00    +0.000 A 
ATOM     21  C   UNL     1       0.099  10.865  20.409  0.00  0.00    +0.000 A 
ATOM     22  C   UNL     1      -0.274  10.704  21.747  0.00  0.00    +0.000 A 
ATOM     23  C   UNL     1       0.096   9.555  22.439  0.00  0.00    +0.000 A 
ATOM     24  C   UNL     1       0.850   8.569  21.798  0.00  0.00    +0.000 A 
ATOM     25  C   UNL     1       1.232   8.720  20.452  0.00  0.00    +0.000 A 
ATOM     26  C   UNL     1       1.993   7.739  19.795  0.00  0.00    +0.000 A 
ENDBRANCH  16  17
ENDBRANCH   2  16
BRANCH   4  27
ATOM     27  C   UNL     1       2.397   3.459  20.307  0.00  0.00    +0.000 C 
BRANCH  27  28
ATOM     28  O   UNL     1       1.101   4.020  20.528  0.00  0.00    +0.000 OA
ATOM     29  H   UNL     1       1.184   4.679  21.237  0.00  0.00    +0.000 HD
ENDBRANCH  27  28
ENDBRANCH   4  27
TORSDOF 7
ENDMDL
MODEL 7
REMARK VINA RESULT:      -7.3      1.699      3.901
REMARK  Name = 
REMARK  8 active torsions:
REMARK  status: ('A' for Active; 'I' for Inactive)
REMARK    1  A    between atoms: C_1  and  C_2
REMARK    2  A    between atoms: N_4  and  C_5
REMARK    3  A    between atoms: C_6  and  O_7
REMARK    4  A    between atoms: O_7  and  C_8
REMARK    5  A    between atoms: C_19  and  C_20
REMARK    6  A    between atoms: C_20  and  O_21
REMARK    7  A    between atoms: C_22  and  O_23
REMARK    8  A    between atoms: C_24  and  O_25
REMARK                            x       y       z     vdW  Elec       q    Type
REMARK                         _______ _______ _______ _____ _____    ______ ____
ROOT
ATOM      1  C   UNL     1       3.523   4.332  18.334  0.00  0.00    +0.000 C 
ATOM      2  C   UNL     1       3.618   5.863  18.609  0.00  0.00    +0.000 C 
ATOM      3  O   UNL     1       4.898   6.192  19.180  0.00  0.00    +0.000 OA
ATOM      4  C   UNL     1       6.041   5.828  18.379  0.00  0.00    +0.000 C 
ATOM      5  C   UNL     1       6.021   4.338  17.993  0.00  0.00    +0.000 C 
ATOM      6  C   UNL     1       4.673   3.927  17.381  0.00  0.00    +0.000 C 
ENDROOT
BRANCH   1  10
ATOM      7  C   UNL     1       2.783   2.345  21.522  0.00  0.00    +0.000 C 
ATOM      8  C   UNL     1       2.462   3.047  20.223  0.00  0.00    +0.000 C 
ATOM      9  O   UNL     1       1.328   3.121  19.773  0.00  0.00    +0.000 OA
ATOM     10  N   UNL     1       3.572   3.593  19.605  0.00  0.00    +0.000 N 
ATOM     11  H   UNL     1       4.423   3.669  20.150  0.00  0.00    +0.000 HD
ENDBRANCH   1  10
BRANCH   5  12
ATOM     12  O   UNL     1       7.096   4.022  17.107  0.00  0.00    +0.000 OA
ATOM     13  H   UNL     1       7.128   4.738  16.441  0.00  0.00    +0.000 HD
ENDBRANCH   5  12
BRANCH   6  14
ATOM     14  O   UNL     1       4.599   4.506  16.062  0.00  0.00    +0.000 OA
ATOM     15  H   UNL     1       3.900   5.178  16.009  0.00  0.00    +0.000 HD
ENDBRANCH   6  14
BRANCH   2  16
ATOM     16  O   UNL     1       2.545   6.229  19.502  0.00  0.00    +0.000 OA
BRANCH  16  17
ATOM     17  C   UNL     1       2.064   7.510  19.377  0.00  0.00    +0.000 A 
ATOM     18  C   UNL     1       2.168   8.093  18.117  0.00  0.00    +0.000 A 
ATOM     19  C   UNL     1       1.737   9.412  17.911  0.00  0.00    +0.000 A 
ATOM     20  C   UNL     1       1.157  10.152  18.954  0.00  0.00    +0.000 A 
ATOM     21  C   UNL     1       0.716  11.474  18.771  0.00  0.00    +0.000 A 
ATOM     22  C   UNL     1       0.107  12.177  19.815  0.00  0.00    +0.000 A 
ATOM     23  C   UNL     1      -0.064  11.571  21.055  0.00  0.00    +0.000 A 
ATOM     24  C   UNL     1       0.386  10.264  21.259  0.00  0.00    +0.000 A 
ATOM     25  C   UNL     1       1.002   9.547  20.216  0.00  0.00    +0.000 A 
ATOM     26  C   UNL     1       1.463   8.234  20.407  0.00  0.00    +0.000 A 
ENDBRANCH  16  17
ENDBRANCH   2  16
BRANCH   4  27
ATOM     27  C   UNL     1       6.231   6.794  17.191  0.00  0.00    +0.000 C 
BRANCH  27  28
ATOM     28  O   UNL     1       7.561   6.718  16.673  0.00  0.00    +0.000 OA
ATOM     29  H   UNL     1       7.495   6.673  15.704  0.00  0.00    +0.000 HD
ENDBRANCH  27  28
ENDBRANCH   4  27
TORSDOF 7
ENDMDL
MODEL 8
REMARK VINA RESULT:      -7.3      4.527      8.223
REMARK  Name = 
REMARK  8 active torsions:
REMARK  status: ('A' for Active; 'I' for Inactive)
REMARK    1  A    between atoms: C_1  and  C_2
REMARK    2  A    between atoms: N_4  and  C_5
REMARK    3  A    between atoms: C_6  and  O_7
REMARK    4  A    between atoms: O_7  and  C_8
REMARK    5  A    between atoms: C_19  and  C_20
REMARK    6  A    between atoms: C_20  and  O_21
REMARK    7  A    between atoms: C_22  and  O_23
REMARK    8  A    between atoms: C_24  and  O_25
REMARK                            x       y       z     vdW  Elec       q    Type
REMARK                         _______ _______ _______ _____ _____    ______ ____
ROOT
ATOM      1  C   UNL     1      -0.661  11.853  19.415  0.00  0.00    +0.000 C 
ATOM      2  C   UNL     1      -0.271  10.432  18.906  0.00  0.00    +0.000 C 
ATOM      3  O   UNL     1      -1.441   9.601  18.795  0.00  0.00    +0.000 OA
ATOM      4  C   UNL     1      -2.472  10.103  17.919  0.00  0.00    +0.000 C 
ATOM      5  C   UNL     1      -2.895  11.535  18.292  0.00  0.00    +0.000 C 
ATOM      6  C   UNL     1      -1.684  12.469  18.431  0.00  0.00    +0.000 C 
ENDROOT
BRANCH   1  10
ATOM      7  C   UNL     1      -1.337  12.094  23.176  0.00  0.00    +0.000 C 
ATOM      8  C   UNL     1      -0.590  12.340  21.886  0.00  0.00    +0.000 C 
ATOM      9  O   UNL     1       0.447  12.985  21.834  0.00  0.00    +0.000 OA
ATOM     10  N   UNL     1      -1.194  11.764  20.784  0.00  0.00    +0.000 N 
ATOM     11  H   UNL     1      -1.921  11.078  20.951  0.00  0.00    +0.000 HD
ENDBRANCH   1  10
BRANCH   5  12
ATOM     12  O   UNL     1      -3.831  12.057  17.347  0.00  0.00    +0.000 OA
ATOM     13  H   UNL     1      -4.471  11.340  17.164  0.00  0.00    +0.000 HD
ENDBRANCH   5  12
BRANCH   6  14
ATOM     14  O   UNL     1      -1.174  12.720  17.106  0.00  0.00    +0.000 OA
ATOM     15  H   UNL     1      -1.875  12.648  16.437  0.00  0.00    +0.000 HD
ENDBRANCH   6  14
BRANCH   2  16
ATOM     16  O   UNL     1       0.678   9.865  19.834  0.00  0.00    +0.000 OA
BRANCH  16  17
ATOM     17  C   UNL     1       1.458   8.842  19.352  0.00  0.00    +0.000 A 
ATOM     18  C   UNL     1       2.044   9.041  18.105  0.00  0.00    +0.000 A 
ATOM     19  C   UNL     1       2.823   8.032  17.520  0.00  0.00    +0.000 A 
ATOM     20  C   UNL     1       3.062   6.823  18.195  0.00  0.00    +0.000 A 
ATOM     21  C   UNL     1       3.840   5.798  17.632  0.00  0.00    +0.000 A 
ATOM     22  C   UNL     1       4.096   4.620  18.340  0.00  0.00    +0.000 A 
ATOM     23  C   UNL     1       3.571   4.449  19.617  0.00  0.00    +0.000 A 
ATOM     24  C   UNL     1       2.779   5.450  20.184  0.00  0.00    +0.000 A 
ATOM     25  C   UNL     1       2.514   6.640  19.480  0.00  0.00    +0.000 A 
ATOM     26  C   UNL     1       1.717   7.654  20.036  0.00  0.00    +0.000 A 
ENDBRANCH  16  17
ENDBRANCH   2  16
BRANCH   4  27
ATOM     27  C   UNL     1      -2.094   9.914  16.435  0.00  0.00    +0.000 C 
BRANCH  27  28
ATOM     28  O   UNL     1      -3.262   9.808  15.617  0.00  0.00    +0.000 OA
ATOM     29  H   UNL     1      -3.434   8.863  15.474  0.00  0.00    +0.000 HD
ENDBRANCH  27  28
ENDBRANCH   4  27
TORSDOF 7
ENDMDL
MODEL 9
REMARK VINA RESULT:      -7.1      1.651      4.133
REMARK  Name = 
REMARK  8 active torsions:
REMARK  status: ('A' for Active; 'I' for Inactive)
REMARK    1  A    between atoms: C_1  and  C_2
REMARK    2  A    between atoms: N_4  and  C_5
REMARK    3  A    between atoms: C_6  and  O_7
REMARK    4  A    between atoms: O_7  and  C_8
REMARK    5  A    between atoms: C_19  and  C_20
REMARK    6  A    between atoms: C_20  and  O_21
REMARK    7  A    between atoms: C_22  and  O_23
REMARK    8  A    between atoms: C_24  and  O_25
REMARK                            x       y       z     vdW  Elec       q    Type
REMARK                         _______ _______ _______ _____ _____    ______ ____
ROOT
ATOM      1  C   UNL     1       4.038   3.833  18.048  0.00  0.00    +0.000 C 
ATOM      2  C   UNL     1       3.675   5.292  17.638  0.00  0.00    +0.000 C 
ATOM      3  O   UNL     1       4.510   6.232  18.339  0.00  0.00    +0.000 OA
ATOM      4  C   UNL     1       5.928   6.069  18.131  0.00  0.00    +0.000 C 
ATOM      5  C   UNL     1       6.394   4.636  18.448  0.00  0.00    +0.000 C 
ATOM      6  C   UNL     1       5.532   3.586  17.731  0.00  0.00    +0.000 C 
ENDROOT
BRANCH   1  10
ATOM      7  C   UNL     1       2.644   2.732  21.440  0.00  0.00    +0.000 C 
ATOM      8  C   UNL     1       2.762   2.755  19.934  0.00  0.00    +0.000 C 
ATOM      9  O   UNL     1       2.061   2.069  19.204  0.00  0.00    +0.000 OA
ATOM     10  N   UNL     1       3.733   3.624  19.472  0.00  0.00    +0.000 N 
ATOM     11  H   UNL     1       4.109   4.299  20.128  0.00  0.00    +0.000 HD
ENDBRANCH   1  10
BRANCH   5  12
ATOM     12  O   UNL     1       7.775   4.462  18.128  0.00  0.00    +0.000 OA
ATOM     13  H   UNL     1       8.192   5.343  18.203  0.00  0.00    +0.000 HD
ENDBRANCH   5  12
BRANCH   6  14
ATOM     14  O   UNL     1       5.869   3.630  16.329  0.00  0.00    +0.000 OA
ATOM     15  H   UNL     1       6.219   2.777  16.023  0.00  0.00    +0.000 HD
ENDBRANCH   6  14
BRANCH   2  16
ATOM     16  O   UNL     1       2.282   5.513  17.943  0.00  0.00    +0.000 OA
BRANCH  16  17
ATOM     17  C   UNL     1       1.990   6.657  18.645  0.00  0.00    +0.000 A 
ATOM     18  C   UNL     1       1.817   6.517  20.020  0.00  0.00    +0.000 A 
ATOM     19  C   UNL     1       1.478   7.627  20.807  0.00  0.00    +0.000 A 
ATOM     20  C   UNL     1       1.350   8.903  20.236  0.00  0.00    +0.000 A 
ATOM     21  C   UNL     1       1.013  10.031  21.005  0.00  0.00    +0.000 A 
ATOM     22  C   UNL     1       0.930  11.298  20.419  0.00  0.00    +0.000 A 
ATOM     23  C   UNL     1       1.174  11.453  19.059  0.00  0.00    +0.000 A 
ATOM     24  C   UNL     1       1.490  10.339  18.277  0.00  0.00    +0.000 A 
ATOM     25  C   UNL     1       1.577   9.059  18.855  0.00  0.00    +0.000 A 
ATOM     26  C   UNL     1       1.890   7.930  18.081  0.00  0.00    +0.000 A 
ENDBRANCH  16  17
ENDBRANCH   2  16
BRANCH   4  27
ATOM     27  C   UNL     1       6.362   6.589  16.745  0.00  0.00    +0.000 C 
BRANCH  27  28
ATOM     28  O   UNL     1       7.733   6.993  16.752  0.00  0.00    +0.000 OA
ATOM     29  H   UNL     1       8.207   6.405  17.364  0.00  0.00    +0.000 HD
ENDBRANCH  27  28
ENDBRANCH   4  27
TORSDOF 7
ENDMDL
