MODEL 1
REMARK VINA RESULT:      -8.5      0.000      0.000
REMARK  Name = 
REMARK  5 active torsions:
REMARK  status: ('A' for Active; 'I' for Inactive)
REMARK    1  A    between atoms: C_1  and  C_2
REMARK    2  A    between atoms: C_4  and  C_5
REMARK    3  A    between atoms: N_7  and  C_8
REMARK    4  A    between atoms: N_17  and  C_18
REMARK    5  A    between atoms: C_21  and  C_22
REMARK                            x       y       z     vdW  Elec       q    Type
REMARK                         _______ _______ _______ _____ _____    ______ ____
ROOT
ATOM      1  C   UNL     1       1.828   9.065  17.802  0.00  0.00    +0.000 C 
ATOM      2  C   UNL     1       1.466   9.074  19.244  0.00  0.00    +0.000 A 
ATOM      3  C   UNL     1       0.928  10.107  19.974  0.00  0.00    +0.000 A 
ATOM      4  C   UNL     1       0.604   9.567  21.238  0.00  0.00    +0.000 A 
ATOM      5  N   UNL     1       0.901   8.254  21.297  0.00  0.00    +0.000 NA
ATOM      6  N   UNL     1       1.511   7.984  20.103  0.00  0.00    +0.000 N 
ENDROOT
BRANCH   6   7
ATOM      7  C   UNL     1       2.085   6.702  19.883  0.00  0.00    +0.000 A 
ATOM      8  C   UNL     1       1.709   5.628  20.701  0.00  0.00    +0.000 A 
ATOM      9  C   UNL     1       2.233   4.352  20.468  0.00  0.00    +0.000 A 
ATOM     10  C   UNL     1       3.165   4.138  19.441  0.00  0.00    +0.000 A 
ATOM     11  C   UNL     1       3.574   5.228  18.661  0.00  0.00    +0.000 A 
ATOM     12  C   UNL     1       3.037   6.500  18.878  0.00  0.00    +0.000 A 
BRANCH  10  13
ATOM     13  C   UNL     1       3.738   2.769  19.166  0.00  0.00    +0.000 C 
ATOM     14  F   UNL     1       4.275   2.640  17.923  0.00  0.00    +0.000 F 
ATOM     15  F   UNL     1       4.732   2.441  20.039  0.00  0.00    +0.000 F 
ATOM     16  F   UNL     1       2.805   1.783  19.278  0.00  0.00    +0.000 F 
ENDBRANCH  10  13
ENDBRANCH   6   7
BRANCH   4  17
ATOM     17  C   UNL     1       0.006  10.319  22.352  0.00  0.00    +0.000 C 
ATOM     18  O   UNL     1       0.161   9.943  23.510  0.00  0.00    +0.000 OA
ATOM     19  N   UNL     1      -0.758  11.402  21.948  0.00  0.00    +0.000 N 
ATOM     20  H   UNL     1      -0.857  11.489  20.940  0.00  0.00    +0.000 HD
BRANCH  19  21
ATOM     21  C   UNL     1      -1.492  12.264  22.790  0.00  0.00    +0.000 A 
ATOM     22  C   UNL     1      -2.746  11.933  23.316  0.00  0.00    +0.000 A 
ATOM     23  C   UNL     1      -3.451  12.845  24.103  0.00  0.00    +0.000 A 
ATOM     24 CL   UNL     1      -4.993  12.411  24.729  0.00  0.00    +0.000 Cl
ATOM     25  C   UNL     1      -2.921  14.098  24.382  0.00  0.00    +0.000 A 
ATOM     26  C   UNL     1      -1.662  14.422  23.883  0.00  0.00    +0.000 A 
ATOM     27 CL   UNL     1      -0.998  15.974  24.215  0.00  0.00    +0.000 Cl
ATOM     28  C   UNL     1      -0.941  13.513  23.102  0.00  0.00    +0.000 A 
ENDBRANCH  19  21
ENDBRANCH   4  17
TORSDOF 4
ENDMDL
MODEL 2
REMARK VINA RESULT:      -8.4      0.143      1.877
REMARK  Name = 
REMARK  5 active torsions:
REMARK  status: ('A' for Active; 'I' for Inactive)
REMARK    1  A    between atoms: C_1  and  C_2
REMARK    2  A    between atoms: C_4  and  C_5
REMARK    3  A    between atoms: N_7  and  C_8
REMARK    4  A    between atoms: N_17  and  C_18
REMARK    5  A    between atoms: C_21  and  C_22
REMARK                            x       y       z     vdW  Elec       q    Type
REMARK                         _______ _______ _______ _____ _____    ______ ____
ROOT
ATOM      1  C   UNL     1       1.754   9.070  17.822  0.00  0.00    +0.000 C 
ATOM      2  C   UNL     1       1.408   9.112  19.267  0.00  0.00    +0.000 A 
ATOM      3  C   UNL     1       0.863  10.155  19.976  0.00  0.00    +0.000 A 
ATOM      4  C   UNL     1       0.561   9.644  21.257  0.00  0.00    +0.000 A 
ATOM      5  N   UNL     1       0.879   8.338  21.348  0.00  0.00    +0.000 NA
ATOM      6  N   UNL     1       1.479   8.045  20.154  0.00  0.00    +0.000 N 
ENDROOT
BRANCH   6   7
ATOM      7  C   UNL     1       2.072   6.767  19.962  0.00  0.00    +0.000 A 
ATOM      8  C   UNL     1       1.644   5.684  20.743  0.00  0.00    +0.000 A 
ATOM      9  C   UNL     1       2.187   4.412  20.533  0.00  0.00    +0.000 A 
ATOM     10  C   UNL     1       3.186   4.210  19.569  0.00  0.00    +0.000 A 
ATOM     11  C   UNL     1       3.644   5.309  18.829  0.00  0.00    +0.000 A 
ATOM     12  C   UNL     1       3.089   6.577  19.021  0.00  0.00    +0.000 A 
BRANCH  10  13
ATOM     13  C   UNL     1       3.781   2.845  19.321  0.00  0.00    +0.000 C 
ATOM     14  F   UNL     1       2.870   1.835  19.368  0.00  0.00    +0.000 F 
ATOM     15  F   UNL     1       4.375   2.756  18.098  0.00  0.00    +0.000 F 
ATOM     16  F   UNL     1       4.745   2.525  20.228  0.00  0.00    +0.000 F 
ENDBRANCH  10  13
ENDBRANCH   6   7
BRANCH   4  17
ATOM     17  C   UNL     1      -0.036  10.416  22.358  0.00  0.00    +0.000 C 
ATOM     18  O   UNL     1       0.070  10.030  23.518  0.00  0.00    +0.000 OA
ATOM     19  N   UNL     1      -0.744  11.531  21.938  0.00  0.00    +0.000 N 
ATOM     20  H   UNL     1      -0.811  11.625  20.928  0.00  0.00    +0.000 HD
BRANCH  19  21
ATOM     21  C   UNL     1      -1.465  12.420  22.763  0.00  0.00    +0.000 A 
ATOM     22  C   UNL     1      -0.972  13.670  23.154  0.00  0.00    +0.000 A 
ATOM     23  C   UNL     1      -1.708  14.488  24.013  0.00  0.00    +0.000 A 
ATOM     24 CL   UNL     1      -1.072  16.016  24.481  0.00  0.00    +0.000 Cl
ATOM     25  C   UNL     1      -2.944  14.079  24.494  0.00  0.00    +0.000 A 
ATOM     26  C   UNL     1      -3.451  12.848  24.087  0.00  0.00    +0.000 A 
ATOM     27 CL   UNL     1      -4.979  12.326  24.684  0.00  0.00    +0.000 Cl
ATOM     28  C   UNL     1      -2.728  12.023  23.219  0.00  0.00    +0.000 A 
ENDBRANCH  19  21
ENDBRANCH   4  17
TORSDOF 4
ENDMDL
MODEL 3
REMARK VINA RESULT:      -8.3      0.446      2.153
REMARK  Name = 
REMARK  5 active torsions:
REMARK  status: ('A' for Active; 'I' for Inactive)
REMARK    1  A    between atoms: C_1  and  C_2
REMARK    2  A    between atoms: C_4  and  C_5
REMARK    3  A    between atoms: N_7  and  C_8
REMARK    4  A    between atoms: N_17  and  C_18
REMARK    5  A    between atoms: C_21  and  C_22
REMARK                            x       y       z     vdW  Elec       q    Type
REMARK                         _______ _______ _______ _____ _____    ______ ____
ROOT
ATOM      1  C   UNL     1       1.666   9.186  17.848  0.00  0.00    +0.000 C 
ATOM      2  C   UNL     1       1.332   9.221  19.296  0.00  0.00    +0.000 A 
ATOM      3  C   UNL     1       0.773  10.254  20.010  0.00  0.00    +0.000 A 
ATOM      4  C   UNL     1       0.493   9.738  21.294  0.00  0.00    +0.000 A 
ATOM      5  N   UNL     1       0.838   8.439  21.382  0.00  0.00    +0.000 NA
ATOM      6  N   UNL     1       1.433   8.157  20.182  0.00  0.00    +0.000 N 
ENDROOT
BRANCH   6   7
ATOM      7  C   UNL     1       2.049   6.890  19.986  0.00  0.00    +0.000 A 
ATOM      8  C   UNL     1       3.067   6.760  19.032  0.00  0.00    +0.000 A 
ATOM      9  C   UNL     1       3.711   5.529  18.860  0.00  0.00    +0.000 A 
ATOM     10  C   UNL     1       3.325   4.408  19.609  0.00  0.00    +0.000 A 
ATOM     11  C   UNL     1       2.271   4.537  20.524  0.00  0.00    +0.000 A 
ATOM     12  C   UNL     1       1.639   5.768  20.713  0.00  0.00    +0.000 A 
BRANCH  10  13
ATOM     13  C   UNL     1       4.011   3.074  19.445  0.00  0.00    +0.000 C 
ATOM     14  F   UNL     1       4.154   2.385  20.610  0.00  0.00    +0.000 F 
ATOM     15  F   UNL     1       3.333   2.245  18.602  0.00  0.00    +0.000 F 
ATOM     16  F   UNL     1       5.263   3.194  18.922  0.00  0.00    +0.000 F 
ENDBRANCH  10  13
ENDBRANCH   6   7
BRANCH   4  17
ATOM     17  C   UNL     1      -0.109  10.499  22.399  0.00  0.00    +0.000 C 
ATOM     18  O   UNL     1       0.020  10.119  23.559  0.00  0.00    +0.000 OA
ATOM     19  N   UNL     1      -0.848  11.596  21.985  0.00  0.00    +0.000 N 
ATOM     20  H   UNL     1      -0.929  11.686  20.975  0.00  0.00    +0.000 HD
BRANCH  19  21
ATOM     21  C   UNL     1      -1.580  12.470  22.817  0.00  0.00    +0.000 A 
ATOM     22  C   UNL     1      -1.102  13.722  23.218  0.00  0.00    +0.000 A 
ATOM     23  C   UNL     1      -1.848  14.525  24.082  0.00  0.00    +0.000 A 
ATOM     24 CL   UNL     1      -1.230  16.056  24.564  0.00  0.00    +0.000 Cl
ATOM     25  C   UNL     1      -3.080  14.098  24.559  0.00  0.00    +0.000 A 
ATOM     26  C   UNL     1      -3.572  12.864  24.141  0.00  0.00    +0.000 A 
ATOM     27 CL   UNL     1      -5.095  12.320  24.731  0.00  0.00    +0.000 Cl
ATOM     28  C   UNL     1      -2.839  12.055  23.267  0.00  0.00    +0.000 A 
ENDBRANCH  19  21
ENDBRANCH   4  17
TORSDOF 4
ENDMDL
MODEL 4
REMARK VINA RESULT:      -8.2      0.242      1.133
REMARK  Name = 
REMARK  5 active torsions:
REMARK  status: ('A' for Active; 'I' for Inactive)
REMARK    1  A    between atoms: C_1  and  C_2
REMARK    2  A    between atoms: C_4  and  C_5
REMARK    3  A    between atoms: N_7  and  C_8
REMARK    4  A    between atoms: N_17  and  C_18
REMARK    5  A    between atoms: C_21  and  C_22
REMARK                            x       y       z     vdW  Elec       q    Type
REMARK                         _______ _______ _______ _____ _____    ______ ____
ROOT
ATOM      1  C   UNL     1       1.812   9.177  17.834  0.00  0.00    +0.000 C 
ATOM      2  C   UNL     1       1.444   9.167  19.273  0.00  0.00    +0.000 A 
ATOM      3  C   UNL     1       0.892  10.186  20.012  0.00  0.00    +0.000 A 
ATOM      4  C   UNL     1       0.568   9.629  21.268  0.00  0.00    +0.000 A 
ATOM      5  N   UNL     1       0.879   8.319  21.315  0.00  0.00    +0.000 NA
ATOM      6  N   UNL     1       1.496   8.068  20.121  0.00  0.00    +0.000 N 
ENDROOT
BRANCH   6   7
ATOM      7  C   UNL     1       2.086   6.794  19.890  0.00  0.00    +0.000 A 
ATOM      8  C   UNL     1       3.015   6.642  18.853  0.00  0.00    +0.000 A 
ATOM      9  C   UNL     1       3.636   5.405  18.644  0.00  0.00    +0.000 A 
ATOM     10  C   UNL     1       3.311   4.298  19.442  0.00  0.00    +0.000 A 
ATOM     11  C   UNL     1       2.342   4.448  20.444  0.00  0.00    +0.000 A 
ATOM     12  C   UNL     1       1.736   5.686  20.669  0.00  0.00    +0.000 A 
BRANCH  10  13
ATOM     13  C   UNL     1       3.973   2.957  19.240  0.00  0.00    +0.000 C 
ATOM     14  F   UNL     1       3.115   1.977  18.846  0.00  0.00    +0.000 F 
ATOM     15  F   UNL     1       4.950   3.002  18.291  0.00  0.00    +0.000 F 
ATOM     16  F   UNL     1       4.575   2.499  20.372  0.00  0.00    +0.000 F 
ENDBRANCH  10  13
ENDBRANCH   6   7
BRANCH   4  17
ATOM     17  C   UNL     1      -0.043  10.363  22.388  0.00  0.00    +0.000 C 
ATOM     18  O   UNL     1       0.106   9.974  23.541  0.00  0.00    +0.000 OA
ATOM     19  N   UNL     1      -0.813  11.445  21.992  0.00  0.00    +0.000 N 
ATOM     20  H   UNL     1      -0.906  11.544  20.984  0.00  0.00    +0.000 HD
BRANCH  19  21
ATOM     21  C   UNL     1      -1.559  12.292  22.839  0.00  0.00    +0.000 A 
ATOM     22  C   UNL     1      -2.802  11.934  23.375  0.00  0.00    +0.000 A 
ATOM     23  C   UNL     1      -3.520  12.830  24.167  0.00  0.00    +0.000 A 
ATOM     24 CL   UNL     1      -5.048  12.363  24.804  0.00  0.00    +0.000 Cl
ATOM     25  C   UNL     1      -3.015  14.094  24.442  0.00  0.00    +0.000 A 
ATOM     26  C   UNL     1      -1.768  14.445  23.934  0.00  0.00    +0.000 A 
ATOM     27 CL   UNL     1      -1.135  16.012  24.260  0.00  0.00    +0.000 Cl
ATOM     28  C   UNL     1      -1.033  13.552  23.147  0.00  0.00    +0.000 A 
ENDBRANCH  19  21
ENDBRANCH   4  17
TORSDOF 4
ENDMDL
MODEL 5
REMARK VINA RESULT:      -8.0      3.138      4.509
REMARK  Name = 
REMARK  5 active torsions:
REMARK  status: ('A' for Active; 'I' for Inactive)
REMARK    1  A    between atoms: C_1  and  C_2
REMARK    2  A    between atoms: C_4  and  C_5
REMARK    3  A    between atoms: N_7  and  C_8
REMARK    4  A    between atoms: N_17  and  C_18
REMARK    5  A    between atoms: C_21  and  C_22
REMARK                            x       y       z     vdW  Elec       q    Type
REMARK                         _______ _______ _______ _____ _____    ______ ____
ROOT
ATOM      1  C   UNL     1       2.772   4.015  20.426  0.00  0.00    +0.000 C 
ATOM      2  C   UNL     1       2.414   5.425  20.127  0.00  0.00    +0.000 A 
ATOM      3  C   UNL     1       1.641   6.280  20.877  0.00  0.00    +0.000 A 
ATOM      4  C   UNL     1       1.746   7.546  20.262  0.00  0.00    +0.000 A 
ATOM      5  N   UNL     1       2.561   7.502  19.191  0.00  0.00    +0.000 NA
ATOM      6  N   UNL     1       2.893   6.180  19.064  0.00  0.00    +0.000 N 
ENDROOT
BRANCH   6   7
ATOM      7  C   UNL     1       3.642   5.751  17.934  0.00  0.00    +0.000 A 
ATOM      8  C   UNL     1       4.358   6.693  17.183  0.00  0.00    +0.000 A 
ATOM      9  C   UNL     1       5.135   6.277  16.095  0.00  0.00    +0.000 A 
ATOM     10  C   UNL     1       5.179   4.925  15.723  0.00  0.00    +0.000 A 
ATOM     11  C   UNL     1       4.420   3.998  16.450  0.00  0.00    +0.000 A 
ATOM     12  C   UNL     1       3.659   4.407  17.548  0.00  0.00    +0.000 A 
BRANCH  10  13
ATOM     13  C   UNL     1       6.016   4.454  14.559  0.00  0.00    +0.000 C 
ATOM     14  F   UNL     1       6.863   5.402  14.074  0.00  0.00    +0.000 F 
ATOM     15  F   UNL     1       6.797   3.385  14.884  0.00  0.00    +0.000 F 
ATOM     16  F   UNL     1       5.257   4.052  13.502  0.00  0.00    +0.000 F 
ENDBRANCH  10  13
ENDBRANCH   6   7
BRANCH   4  17
ATOM     17  C   UNL     1       1.074   8.770  20.725  0.00  0.00    +0.000 C 
ATOM     18  O   UNL     1       0.802   8.919  21.913  0.00  0.00    +0.000 OA
ATOM     19  N   UNL     1       0.750   9.650  19.705  0.00  0.00    +0.000 N 
ATOM     20  H   UNL     1       0.958   9.301  18.772  0.00  0.00    +0.000 HD
BRANCH  19  21
ATOM     21  C   UNL     1       0.053  10.869  19.845  0.00  0.00    +0.000 A 
ATOM     22  C   UNL     1       0.636  12.025  20.379  0.00  0.00    +0.000 A 
ATOM     23  C   UNL     1      -0.115  13.190  20.540  0.00  0.00    +0.000 A 
ATOM     24 CL   UNL     1       0.627  14.592  21.207  0.00  0.00    +0.000 Cl
ATOM     25  C   UNL     1      -1.453  13.227  20.173  0.00  0.00    +0.000 A 
ATOM     26  C   UNL     1      -2.030  12.088  19.617  0.00  0.00    +0.000 A 
ATOM     27 CL   UNL     1      -3.690  12.119  19.164  0.00  0.00    +0.000 Cl
ATOM     28  C   UNL     1      -1.286  10.917  19.440  0.00  0.00    +0.000 A 
ENDBRANCH  19  21
ENDBRANCH   4  17
TORSDOF 4
ENDMDL
MODEL 6
REMARK VINA RESULT:      -8.0      2.478      3.824
REMARK  Name = 
REMARK  5 active torsions:
REMARK  status: ('A' for Active; 'I' for Inactive)
REMARK    1  A    between atoms: C_1  and  C_2
REMARK    2  A    between atoms: C_4  and  C_5
REMARK    3  A    between atoms: N_7  and  C_8
REMARK    4  A    between atoms: N_17  and  C_18
REMARK    5  A    between atoms: C_21  and  C_22
REMARK                            x       y       z     vdW  Elec       q    Type
REMARK                         _______ _______ _______ _____ _____    ______ ____
ROOT
ATOM      1  C   UNL     1       2.566   5.017  20.735  0.00  0.00    +0.000 C 
ATOM      2  C   UNL     1       2.172   6.314  20.126  0.00  0.00    +0.000 A 
ATOM      3  C   UNL     1       1.335   7.273  20.646  0.00  0.00    +0.000 A 
ATOM      4  C   UNL     1       1.424   8.383  19.778  0.00  0.00    +0.000 A 
ATOM      5  N   UNL     1       2.288   8.148  18.772  0.00  0.00    +0.000 NA
ATOM      6  N   UNL     1       2.672   6.846  18.945  0.00  0.00    +0.000 N 
ENDROOT
BRANCH   6   7
ATOM      7  C   UNL     1       3.487   6.219  17.962  0.00  0.00    +0.000 A 
ATOM      8  C   UNL     1       3.398   4.833  17.774  0.00  0.00    +0.000 A 
ATOM      9  C   UNL     1       4.162   4.211  16.780  0.00  0.00    +0.000 A 
ATOM     10  C   UNL     1       5.049   4.956  15.988  0.00  0.00    +0.000 A 
ATOM     11  C   UNL     1       5.169   6.333  16.219  0.00  0.00    +0.000 A 
ATOM     12  C   UNL     1       4.392   6.961  17.196  0.00  0.00    +0.000 A 
BRANCH  10  13
ATOM     13  C   UNL     1       5.877   4.307  14.905  0.00  0.00    +0.000 C 
ATOM     14  F   UNL     1       5.233   4.203  13.711  0.00  0.00    +0.000 F 
ATOM     15  F   UNL     1       7.025   4.995  14.652  0.00  0.00    +0.000 F 
ATOM     16  F   UNL     1       6.265   3.044  15.235  0.00  0.00    +0.000 F 
ENDBRANCH  10  13
ENDBRANCH   6   7
BRANCH   4  17
ATOM     17  C   UNL     1       0.687   9.646  19.942  0.00  0.00    +0.000 C 
ATOM     18  O   UNL     1       0.272  10.255  18.962  0.00  0.00    +0.000 OA
ATOM     19  N   UNL     1       0.584  10.066  21.259  0.00  0.00    +0.000 N 
ATOM     20  H   UNL     1       1.088   9.482  21.923  0.00  0.00    +0.000 HD
BRANCH  19  21
ATOM     21  C   UNL     1      -0.014  11.262  21.708  0.00  0.00    +0.000 A 
ATOM     22  C   UNL     1       0.541  12.527  21.479  0.00  0.00    +0.000 A 
ATOM     23  C   UNL     1      -0.068  13.673  21.990  0.00  0.00    +0.000 A 
ATOM     24 CL   UNL     1       0.643  15.213  21.699  0.00  0.00    +0.000 Cl
ATOM     25  C   UNL     1      -1.237  13.584  22.733  0.00  0.00    +0.000 A 
ATOM     26  C   UNL     1      -1.808  12.331  22.940  0.00  0.00    +0.000 A 
ATOM     27 CL   UNL     1      -3.253  12.205  23.866  0.00  0.00    +0.000 Cl
ATOM     28  C   UNL     1      -1.213  11.174  22.425  0.00  0.00    +0.000 A 
ENDBRANCH  19  21
ENDBRANCH   4  17
TORSDOF 4
ENDMDL
MODEL 7
REMARK VINA RESULT:      -8.0      7.411     11.192
REMARK  Name = 
REMARK  5 active torsions:
REMARK  status: ('A' for Active; 'I' for Inactive)
REMARK    1  A    between atoms: C_1  and  C_2
REMARK    2  A    between atoms: C_4  and  C_5
REMARK    3  A    between atoms: N_7  and  C_8
REMARK    4  A    between atoms: N_17  and  C_18
REMARK    5  A    between atoms: C_21  and  C_22
REMARK                            x       y       z     vdW  Elec       q    Type
REMARK                         _______ _______ _______ _____ _____    ______ ____
ROOT
ATOM      1  C   UNL     1       2.240   4.958  20.866  0.00  0.00    +0.000 C 
ATOM      2  C   UNL     1       3.073   5.321  19.690  0.00  0.00    +0.000 A 
ATOM      3  C   UNL     1       4.046   4.568  19.078  0.00  0.00    +0.000 A 
ATOM      4  C   UNL     1       4.414   5.274  17.912  0.00  0.00    +0.000 A 
ATOM      5  N   UNL     1       3.695   6.406  17.780  0.00  0.00    +0.000 NA
ATOM      6  N   UNL     1       2.941   6.470  18.920  0.00  0.00    +0.000 N 
ENDROOT
BRANCH   6   7
ATOM      7  C   UNL     1       2.156   7.627  19.177  0.00  0.00    +0.000 A 
ATOM      8  C   UNL     1       1.681   7.865  20.474  0.00  0.00    +0.000 A 
ATOM      9  C   UNL     1       0.945   9.023  20.750  0.00  0.00    +0.000 A 
ATOM     10  C   UNL     1       0.643   9.938  19.730  0.00  0.00    +0.000 A 
ATOM     11  C   UNL     1       1.079   9.666  18.426  0.00  0.00    +0.000 A 
ATOM     12  C   UNL     1       1.832   8.521  18.151  0.00  0.00    +0.000 A 
BRANCH  10  13
ATOM     13  C   UNL     1      -0.142  11.197  20.006  0.00  0.00    +0.000 C 
ATOM     14  F   UNL     1      -1.162  11.023  20.890  0.00  0.00    +0.000 F 
ATOM     15  F   UNL     1       0.636  12.188  20.524  0.00  0.00    +0.000 F 
ATOM     16  F   UNL     1      -0.704  11.716  18.880  0.00  0.00    +0.000 F 
ENDBRANCH  10  13
ENDBRANCH   6   7
BRANCH   4  17
ATOM     17  C   UNL     1       5.436   4.840  16.946  0.00  0.00    +0.000 C 
ATOM     18  O   UNL     1       6.538   4.467  17.334  0.00  0.00    +0.000 OA
ATOM     19  N   UNL     1       5.040   4.958  15.624  0.00  0.00    +0.000 N 
ATOM     20  H   UNL     1       4.128   5.390  15.499  0.00  0.00    +0.000 HD
BRANCH  19  21
ATOM     21  C   UNL     1       5.829   4.672  14.489  0.00  0.00    +0.000 A 
ATOM     22  C   UNL     1       6.978   5.399  14.155  0.00  0.00    +0.000 A 
ATOM     23  C   UNL     1       7.692   5.105  12.993  0.00  0.00    +0.000 A 
ATOM     24 CL   UNL     1       9.095   6.021  12.604  0.00  0.00    +0.000 Cl
ATOM     25  C   UNL     1       7.280   4.084  12.147  0.00  0.00    +0.000 A 
ATOM     26  C   UNL     1       6.154   3.340  12.490  0.00  0.00    +0.000 A 
ATOM     27 CL   UNL     1       5.628   2.077  11.446  0.00  0.00    +0.000 Cl
ATOM     28  C   UNL     1       5.434   3.618  13.657  0.00  0.00    +0.000 A 
ENDBRANCH  19  21
ENDBRANCH   4  17
TORSDOF 4
ENDMDL
MODEL 8
REMARK VINA RESULT:      -8.0      2.403      3.838
REMARK  Name = 
REMARK  5 active torsions:
REMARK  status: ('A' for Active; 'I' for Inactive)
REMARK    1  A    between atoms: C_1  and  C_2
REMARK    2  A    between atoms: C_4  and  C_5
REMARK    3  A    between atoms: N_7  and  C_8
REMARK    4  A    between atoms: N_17  and  C_18
REMARK    5  A    between atoms: C_21  and  C_22
REMARK                            x       y       z     vdW  Elec       q    Type
REMARK                         _______ _______ _______ _____ _____    ______ ____
ROOT
ATOM      1  C   UNL     1       2.463   5.023  20.821  0.00  0.00    +0.000 C 
ATOM      2  C   UNL     1       2.095   6.324  20.205  0.00  0.00    +0.000 A 
ATOM      3  C   UNL     1       1.264   7.295  20.710  0.00  0.00    +0.000 A 
ATOM      4  C   UNL     1       1.380   8.402  19.842  0.00  0.00    +0.000 A 
ATOM      5  N   UNL     1       2.255   8.153  18.849  0.00  0.00    +0.000 NA
ATOM      6  N   UNL     1       2.619   6.846  19.029  0.00  0.00    +0.000 N 
ENDROOT
BRANCH   6   7
ATOM      7  C   UNL     1       3.440   6.207  18.060  0.00  0.00    +0.000 A 
ATOM      8  C   UNL     1       4.354   6.969  17.320  0.00  0.00    +0.000 A 
ATOM      9  C   UNL     1       5.199   6.344  16.395  0.00  0.00    +0.000 A 
ATOM     10  C   UNL     1       5.118   4.962  16.170  0.00  0.00    +0.000 A 
ATOM     11  C   UNL     1       4.164   4.217  16.878  0.00  0.00    +0.000 A 
ATOM     12  C   UNL     1       3.334   4.833  17.818  0.00  0.00    +0.000 A 
BRANCH  10  13
ATOM     13  C   UNL     1       6.023   4.267  15.183  0.00  0.00    +0.000 C 
ATOM     14  F   UNL     1       7.324   4.657  15.265  0.00  0.00    +0.000 F 
ATOM     15  F   UNL     1       6.027   2.915  15.350  0.00  0.00    +0.000 F 
ATOM     16  F   UNL     1       5.647   4.482  13.892  0.00  0.00    +0.000 F 
ENDBRANCH  10  13
ENDBRANCH   6   7
BRANCH   4  17
ATOM     17  C   UNL     1       0.658   9.675  19.992  0.00  0.00    +0.000 C 
ATOM     18  O   UNL     1       0.297  10.306  19.004  0.00  0.00    +0.000 OA
ATOM     19  N   UNL     1       0.504  10.078  21.309  0.00  0.00    +0.000 N 
ATOM     20  H   UNL     1       0.969   9.476  21.985  0.00  0.00    +0.000 HD
BRANCH  19  21
ATOM     21  C   UNL     1      -0.093  11.278  21.750  0.00  0.00    +0.000 A 
ATOM     22  C   UNL     1       0.454  12.541  21.497  0.00  0.00    +0.000 A 
ATOM     23  C   UNL     1      -0.152  13.693  22.000  0.00  0.00    +0.000 A 
ATOM     24 CL   UNL     1       0.549  15.231  21.679  0.00  0.00    +0.000 Cl
ATOM     25  C   UNL     1      -1.312  13.608  22.759  0.00  0.00    +0.000 A 
ATOM     26  C   UNL     1      -1.875  12.357  22.990  0.00  0.00    +0.000 A 
ATOM     27 CL   UNL     1      -3.308  12.238  23.936  0.00  0.00    +0.000 Cl
ATOM     28  C   UNL     1      -1.282  11.195  22.483  0.00  0.00    +0.000 A 
ENDBRANCH  19  21
ENDBRANCH   4  17
TORSDOF 4
ENDMDL
MODEL 9
REMARK VINA RESULT:      -8.0      2.386      3.417
REMARK  Name = 
REMARK  5 active torsions:
REMARK  status: ('A' for Active; 'I' for Inactive)
REMARK    1  A    between atoms: C_1  and  C_2
REMARK    2  A    between atoms: C_4  and  C_5
REMARK    3  A    between atoms: N_7  and  C_8
REMARK    4  A    between atoms: N_17  and  C_18
REMARK    5  A    between atoms: C_21  and  C_22
REMARK                            x       y       z     vdW  Elec       q    Type
REMARK                         _______ _______ _______ _____ _____    ______ ____
ROOT
ATOM      1  C   UNL     1       2.447   5.029  20.829  0.00  0.00    +0.000 C 
ATOM      2  C   UNL     1       2.064   6.338  20.238  0.00  0.00    +0.000 A 
ATOM      3  C   UNL     1       1.245   7.302  20.775  0.00  0.00    +0.000 A 
ATOM      4  C   UNL     1       1.340   8.420  19.919  0.00  0.00    +0.000 A 
ATOM      5  N   UNL     1       2.193   8.185  18.903  0.00  0.00    +0.000 NA
ATOM      6  N   UNL     1       2.562   6.877  19.058  0.00  0.00    +0.000 N 
ENDROOT
BRANCH   6   7
ATOM      7  C   UNL     1       3.361   6.251  18.062  0.00  0.00    +0.000 A 
ATOM      8  C   UNL     1       4.250   7.026  17.305  0.00  0.00    +0.000 A 
ATOM      9  C   UNL     1       5.074   6.415  16.352  0.00  0.00    +0.000 A 
ATOM     10  C   UNL     1       4.996   5.034  16.118  0.00  0.00    +0.000 A 
ATOM     11  C   UNL     1       4.067   4.276  16.845  0.00  0.00    +0.000 A 
ATOM     12  C   UNL     1       3.257   4.879  17.811  0.00  0.00    +0.000 A 
BRANCH  10  13
ATOM     13  C   UNL     1       5.880   4.354  15.101  0.00  0.00    +0.000 C 
ATOM     14  F   UNL     1       7.102   4.936  14.962  0.00  0.00    +0.000 F 
ATOM     15  F   UNL     1       6.120   3.050  15.417  0.00  0.00    +0.000 F 
ATOM     16  F   UNL     1       5.326   4.340  13.858  0.00  0.00    +0.000 F 
ENDBRANCH  10  13
ENDBRANCH   6   7
BRANCH   4  17
ATOM     17  C   UNL     1       0.621   9.691  20.103  0.00  0.00    +0.000 C 
ATOM     18  O   UNL     1       0.327  10.384  19.135  0.00  0.00    +0.000 OA
ATOM     19  N   UNL     1       0.390  10.015  21.430  0.00  0.00    +0.000 N 
ATOM     20  H   UNL     1       0.806   9.367  22.096  0.00  0.00    +0.000 HD
BRANCH  19  21
ATOM     21  C   UNL     1      -0.223  11.193  21.906  0.00  0.00    +0.000 A 
ATOM     22  C   UNL     1      -1.393  11.189  22.675  0.00  0.00    +0.000 A 
ATOM     23  C   UNL     1      -1.985  12.387  23.077  0.00  0.00    +0.000 A 
ATOM     24 CL   UNL     1      -3.427  12.349  24.014  0.00  0.00    +0.000 Cl
ATOM     25  C   UNL     1      -1.423  13.607  22.725  0.00  0.00    +0.000 A 
ATOM     26  C   UNL     1      -0.244  13.616  21.984  0.00  0.00    +0.000 A 
ATOM     27 CL   UNL     1       0.458  15.122  21.536  0.00  0.00    +0.000 Cl
ATOM     28  C   UNL     1       0.364  12.422  21.584  0.00  0.00    +0.000 A 
ENDBRANCH  19  21
ENDBRANCH   4  17
TORSDOF 4
ENDMDL
