MODEL 1
REMARK VINA RESULT:      -8.1      0.000      0.000
REMARK  Name = 
REMARK  9 active torsions:
REMARK  status: ('A' for Active; 'I' for Inactive)
REMARK    1  A    between atoms: C_2  and  O_3
REMARK    2  A    between atoms: C_2  and  C_4
REMARK    3  A    between atoms: C_7  and  C_8
REMARK    4  A    between atoms: C_8  and  N_9
REMARK    5  A    between atoms: N_9  and  C_10
REMARK    6  A    between atoms: C_10  and  C_11
REMARK    7  A    between atoms: C_14  and  C_16
REMARK    8  A    between atoms: C_19  and  O_20
REMARK    9  A    between atoms: O_20  and  C_21
REMARK                            x       y       z     vdW  Elec       q    Type
REMARK                         _______ _______ _______ _____ _____    ______ ____
ROOT
ATOM      1  N   UNL     1      -0.954  11.305  19.202  0.00  0.00    +0.000 N 
ATOM      2  C   UNL     1       0.440  11.159  19.314  0.00  0.00    +0.000 C 
ATOM      3  O   UNL     1       1.199  12.112  19.525  0.00  0.00    +0.000 OA
ENDROOT
BRANCH   2   4
ATOM      4  C   UNL     1       1.092   9.823  19.191  0.00  0.00    +0.000 A 
ATOM      5  C   UNL     1       1.732   9.403  18.016  0.00  0.00    +0.000 A 
ATOM      6  C   UNL     1       2.327   8.144  17.944  0.00  0.00    +0.000 A 
ATOM      7  C   UNL     1       2.375   7.337  19.078  0.00  0.00    +0.000 A 
ATOM      8  C   UNL     1       1.749   7.745  20.259  0.00  0.00    +0.000 A 
ATOM      9  C   UNL     1       1.125   8.993  20.321  0.00  0.00    +0.000 A 
BRANCH   7  10
ATOM     10  O   UNL     1       3.044   6.141  18.953  0.00  0.00    +0.000 OA
BRANCH  10  11
ATOM     11  C   UNL     1       2.474   5.007  19.484  0.00  0.00    +0.000 A 
ATOM     12  C   UNL     1       2.695   4.540  20.785  0.00  0.00    +0.000 A 
ATOM     13  C   UNL     1       2.021   3.404  21.249  0.00  0.00    +0.000 A 
ATOM     14  C   UNL     1       1.167   2.704  20.396  0.00  0.00    +0.000 A 
ATOM     15  C   UNL     1       0.997   3.124  19.079  0.00  0.00    +0.000 A 
ATOM     16  C   UNL     1       1.652   4.270  18.632  0.00  0.00    +0.000 A 
ATOM     17  F   UNL     1       1.475   4.658  17.361  0.00  0.00    +0.000 F 
ENDBRANCH  10  11
ENDBRANCH   7  10
ENDBRANCH   2   4
BRANCH   1  18
ATOM     18  C   UNL     1      -1.477  12.684  19.177  0.00  0.00    +0.000 C 
BRANCH  18  22
ATOM     19  C   UNL     1      -3.846  13.138  22.747  0.00  0.00    +0.000 A 
ATOM     20  C   UNL     1      -2.469  13.379  22.799  0.00  0.00    +0.000 A 
ATOM     21  C   UNL     1      -1.708  13.300  21.630  0.00  0.00    +0.000 A 
ATOM     22  C   UNL     1      -2.315  13.011  20.397  0.00  0.00    +0.000 A 
ATOM     23  C   UNL     1      -3.712  12.949  20.344  0.00  0.00    +0.000 A 
ATOM     24  C   UNL     1      -4.473  12.990  21.509  0.00  0.00    +0.000 A 
BRANCH  19  26
ATOM     25  O   UNL     1      -4.681  11.981  24.656  0.00  0.00    +0.000 OA
ATOM     26  C   UNL     1      -4.675  12.988  23.968  0.00  0.00    +0.000 C 
BRANCH  26  27
ATOM     27  O   UNL     1      -5.354  14.108  24.299  0.00  0.00    +0.000 OA
ATOM     28  H   UNL     1      -5.629  14.656  23.540  0.00  0.00    +0.000 HD
ENDBRANCH  26  27
ENDBRANCH  19  26
ENDBRANCH  18  22
ENDBRANCH   1  18
BRANCH   1  29
ATOM     29  C   UNL     1      -1.868  10.178  18.897  0.00  0.00    +0.000 C 
BRANCH  29  30
ATOM     30  C   UNL     1      -2.378   9.933  17.480  0.00  0.00    +0.000 C 
ATOM     31  F   UNL     1      -3.720  10.082  17.410  0.00  0.00    +0.000 F 
ATOM     32  F   UNL     1      -1.812  10.783  16.593  0.00  0.00    +0.000 F 
ENDBRANCH  29  30
ENDBRANCH   1  29
TORSDOF 9
ENDMDL
MODEL 2
REMARK VINA RESULT:      -8.0      1.311      1.743
REMARK  Name = 
REMARK  9 active torsions:
REMARK  status: ('A' for Active; 'I' for Inactive)
REMARK    1  A    between atoms: C_2  and  O_3
REMARK    2  A    between atoms: C_2  and  C_4
REMARK    3  A    between atoms: C_7  and  C_8
REMARK    4  A    between atoms: C_8  and  N_9
REMARK    5  A    between atoms: N_9  and  C_10
REMARK    6  A    between atoms: C_10  and  C_11
REMARK    7  A    between atoms: C_14  and  C_16
REMARK    8  A    between atoms: C_19  and  O_20
REMARK    9  A    between atoms: O_20  and  C_21
REMARK                            x       y       z     vdW  Elec       q    Type
REMARK                         _______ _______ _______ _____ _____    ______ ____
ROOT
ATOM      1  N   UNL     1      -0.310  11.374  19.743  0.00  0.00    +0.000 N 
ATOM      2  C   UNL     1       0.716  10.634  20.358  0.00  0.00    +0.000 C 
ATOM      3  O   UNL     1       1.183  10.929  21.464  0.00  0.00    +0.000 OA
ENDROOT
BRANCH   2   4
ATOM      4  C   UNL     1       1.302   9.428  19.705  0.00  0.00    +0.000 A 
ATOM      5  C   UNL     1       1.701   9.420  18.361  0.00  0.00    +0.000 A 
ATOM      6  C   UNL     1       2.242   8.268  17.790  0.00  0.00    +0.000 A 
ATOM      7  C   UNL     1       2.482   7.150  18.584  0.00  0.00    +0.000 A 
ATOM      8  C   UNL     1       2.096   7.146  19.928  0.00  0.00    +0.000 A 
ATOM      9  C   UNL     1       1.525   8.289  20.491  0.00  0.00    +0.000 A 
BRANCH   7  10
ATOM     10  O   UNL     1       3.086   6.078  17.971  0.00  0.00    +0.000 OA
BRANCH  10  11
ATOM     11  C   UNL     1       2.722   4.807  18.350  0.00  0.00    +0.000 A 
ATOM     12  C   UNL     1       1.524   4.180  17.986  0.00  0.00    +0.000 A 
ATOM     13  C   UNL     1       1.273   2.860  18.377  0.00  0.00    +0.000 A 
ATOM     14  C   UNL     1       2.194   2.183  19.178  0.00  0.00    +0.000 A 
ATOM     15  C   UNL     1       3.355   2.826  19.602  0.00  0.00    +0.000 A 
ATOM     16  C   UNL     1       3.610   4.131  19.187  0.00  0.00    +0.000 A 
ATOM     17  F   UNL     1       4.733   4.732  19.605  0.00  0.00    +0.000 F 
ENDBRANCH  10  11
ENDBRANCH   7  10
ENDBRANCH   2   4
BRANCH   1  18
ATOM     18  C   UNL     1      -0.703  12.636  20.397  0.00  0.00    +0.000 C 
BRANCH  18  22
ATOM     19  C   UNL     1      -4.122  12.650  23.018  0.00  0.00    +0.000 A 
ATOM     20  C   UNL     1      -4.290  12.968  21.666  0.00  0.00    +0.000 A 
ATOM     21  C   UNL     1      -3.197  12.897  20.798  0.00  0.00    +0.000 A 
ATOM     22  C   UNL     1      -1.938  12.483  21.262  0.00  0.00    +0.000 A 
ATOM     23  C   UNL     1      -1.840  12.004  22.572  0.00  0.00    +0.000 A 
ATOM     24  C   UNL     1      -2.913  12.106  23.452  0.00  0.00    +0.000 A 
BRANCH  19  26
ATOM     25  O   UNL     1      -5.613  12.051  24.778  0.00  0.00    +0.000 OA
ATOM     26  C   UNL     1      -5.173  12.910  24.032  0.00  0.00    +0.000 C 
BRANCH  26  27
ATOM     27  O   UNL     1      -5.532  14.210  24.115  0.00  0.00    +0.000 OA
ATOM     28  H   UNL     1      -5.511  14.581  25.018  0.00  0.00    +0.000 HD
ENDBRANCH  26  27
ENDBRANCH  19  26
ENDBRANCH  18  22
ENDBRANCH   1  18
BRANCH   1  29
ATOM     29  C   UNL     1      -0.840  11.061  18.394  0.00  0.00    +0.000 C 
BRANCH  29  30
ATOM     30  C   UNL     1      -2.002  10.090  18.204  0.00  0.00    +0.000 C 
ATOM     31  F   UNL     1      -3.190  10.733  18.237  0.00  0.00    +0.000 F 
ATOM     32  F   UNL     1      -1.911   9.429  17.027  0.00  0.00    +0.000 F 
ENDBRANCH  29  30
ENDBRANCH   1  29
TORSDOF 9
ENDMDL
MODEL 3
REMARK VINA RESULT:      -7.9      0.445      1.027
REMARK  Name = 
REMARK  9 active torsions:
REMARK  status: ('A' for Active; 'I' for Inactive)
REMARK    1  A    between atoms: C_2  and  O_3
REMARK    2  A    between atoms: C_2  and  C_4
REMARK    3  A    between atoms: C_7  and  C_8
REMARK    4  A    between atoms: C_8  and  N_9
REMARK    5  A    between atoms: N_9  and  C_10
REMARK    6  A    between atoms: C_10  and  C_11
REMARK    7  A    between atoms: C_14  and  C_16
REMARK    8  A    between atoms: C_19  and  O_20
REMARK    9  A    between atoms: O_20  and  C_21
REMARK                            x       y       z     vdW  Elec       q    Type
REMARK                         _______ _______ _______ _____ _____    ______ ____
ROOT
ATOM      1  N   UNL     1      -0.920  11.127  19.023  0.00  0.00    +0.000 N 
ATOM      2  C   UNL     1       0.472  11.041  19.194  0.00  0.00    +0.000 C 
ATOM      3  O   UNL     1       1.181  12.026  19.433  0.00  0.00    +0.000 OA
ENDROOT
BRANCH   2   4
ATOM      4  C   UNL     1       1.185   9.734  19.105  0.00  0.00    +0.000 A 
ATOM      5  C   UNL     1       1.273   8.849  20.190  0.00  0.00    +0.000 A 
ATOM      6  C   UNL     1       1.952   7.638  20.063  0.00  0.00    +0.000 A 
ATOM      7  C   UNL     1       2.462   7.257  18.825  0.00  0.00    +0.000 A 
ATOM      8  C   UNL     1       2.375   8.125  17.732  0.00  0.00    +0.000 A 
ATOM      9  C   UNL     1       1.722   9.352  17.868  0.00  0.00    +0.000 A 
BRANCH   7  10
ATOM     10  O   UNL     1       3.052   6.017  18.758  0.00  0.00    +0.000 OA
BRANCH  10  11
ATOM     11  C   UNL     1       2.443   4.959  19.391  0.00  0.00    +0.000 A 
ATOM     12  C   UNL     1       2.674   4.588  20.722  0.00  0.00    +0.000 A 
ATOM     13  C   UNL     1       1.958   3.529  21.291  0.00  0.00    +0.000 A 
ATOM     14  C   UNL     1       1.050   2.805  20.517  0.00  0.00    +0.000 A 
ATOM     15  C   UNL     1       0.868   3.126  19.174  0.00  0.00    +0.000 A 
ATOM     16  C   UNL     1       1.565   4.198  18.621  0.00  0.00    +0.000 A 
ATOM     17  F   UNL     1       1.375   4.490  17.326  0.00  0.00    +0.000 F 
ENDBRANCH  10  11
ENDBRANCH   7  10
ENDBRANCH   2   4
BRANCH   1  18
ATOM     18  C   UNL     1      -1.501  12.482  18.969  0.00  0.00    +0.000 C 
BRANCH  18  22
ATOM     19  C   UNL     1      -3.503  13.083  22.736  0.00  0.00    +0.000 A 
ATOM     20  C   UNL     1      -2.141  13.381  22.625  0.00  0.00    +0.000 A 
ATOM     21  C   UNL     1      -1.503  13.254  21.389  0.00  0.00    +0.000 A 
ATOM     22  C   UNL     1      -2.221  12.858  20.248  0.00  0.00    +0.000 A 
ATOM     23  C   UNL     1      -3.611  12.739  20.349  0.00  0.00    +0.000 A 
ATOM     24  C   UNL     1      -4.248  12.828  21.584  0.00  0.00    +0.000 A 
BRANCH  19  26
ATOM     25  O   UNL     1      -3.840  13.601  25.038  0.00  0.00    +0.000 OA
ATOM     26  C   UNL     1      -4.192  12.985  24.046  0.00  0.00    +0.000 C 
BRANCH  26  27
ATOM     27  O   UNL     1      -5.304  12.217  24.014  0.00  0.00    +0.000 OA
ATOM     28  H   UNL     1      -5.395  11.603  24.766  0.00  0.00    +0.000 HD
ENDBRANCH  26  27
ENDBRANCH  19  26
ENDBRANCH  18  22
ENDBRANCH   1  18
BRANCH   1  29
ATOM     29  C   UNL     1      -1.771   9.961  18.684  0.00  0.00    +0.000 C 
BRANCH  29  30
ATOM     30  C   UNL     1      -2.583   9.920  17.392  0.00  0.00    +0.000 C 
ATOM     31  F   UNL     1      -3.721  10.641  17.505  0.00  0.00    +0.000 F 
ATOM     32  F   UNL     1      -1.877  10.407  16.345  0.00  0.00    +0.000 F 
ENDBRANCH  29  30
ENDBRANCH   1  29
TORSDOF 9
ENDMDL
MODEL 4
REMARK VINA RESULT:      -7.9      1.015      1.497
REMARK  Name = 
REMARK  9 active torsions:
REMARK  status: ('A' for Active; 'I' for Inactive)
REMARK    1  A    between atoms: C_2  and  O_3
REMARK    2  A    between atoms: C_2  and  C_4
REMARK    3  A    between atoms: C_7  and  C_8
REMARK    4  A    between atoms: C_8  and  N_9
REMARK    5  A    between atoms: N_9  and  C_10
REMARK    6  A    between atoms: C_10  and  C_11
REMARK    7  A    between atoms: C_14  and  C_16
REMARK    8  A    between atoms: C_19  and  O_20
REMARK    9  A    between atoms: O_20  and  C_21
REMARK                            x       y       z     vdW  Elec       q    Type
REMARK                         _______ _______ _______ _____ _____    ______ ____
ROOT
ATOM      1  N   UNL     1      -0.931  11.172  18.858  0.00  0.00    +0.000 N 
ATOM      2  C   UNL     1       0.407  11.029  19.263  0.00  0.00    +0.000 C 
ATOM      3  O   UNL     1       1.099  11.982  19.640  0.00  0.00    +0.000 OA
ENDROOT
BRANCH   2   4
ATOM      4  C   UNL     1       1.078   9.697  19.271  0.00  0.00    +0.000 A 
ATOM      5  C   UNL     1       1.764   9.194  18.156  0.00  0.00    +0.000 A 
ATOM      6  C   UNL     1       2.375   7.941  18.207  0.00  0.00    +0.000 A 
ATOM      7  C   UNL     1       2.391   7.227  19.402  0.00  0.00    +0.000 A 
ATOM      8  C   UNL     1       1.717   7.719  20.523  0.00  0.00    +0.000 A 
ATOM      9  C   UNL     1       1.078   8.960  20.463  0.00  0.00    +0.000 A 
BRANCH   7  10
ATOM     10  O   UNL     1       3.076   6.035  19.397  0.00  0.00    +0.000 OA
BRANCH  10  11
ATOM     11  C   UNL     1       2.362   4.863  19.302  0.00  0.00    +0.000 A 
ATOM     12  C   UNL     1       1.891   4.312  18.103  0.00  0.00    +0.000 A 
ATOM     13  C   UNL     1       1.224   3.082  18.108  0.00  0.00    +0.000 A 
ATOM     14  C   UNL     1       0.978   2.427  19.315  0.00  0.00    +0.000 A 
ATOM     15  C   UNL     1       1.382   3.004  20.517  0.00  0.00    +0.000 A 
ATOM     16  C   UNL     1       2.069   4.216  20.502  0.00  0.00    +0.000 A 
ATOM     17  F   UNL     1       2.450   4.755  21.670  0.00  0.00    +0.000 F 
ENDBRANCH  10  11
ENDBRANCH   7  10
ENDBRANCH   2   4
BRANCH   1  18
ATOM     18  C   UNL     1      -1.445  12.550  18.734  0.00  0.00    +0.000 C 
BRANCH  18  22
ATOM     19  C   UNL     1      -3.475  13.409  22.435  0.00  0.00    +0.000 A 
ATOM     20  C   UNL     1      -2.192  13.922  22.219  0.00  0.00    +0.000 A 
ATOM     21  C   UNL     1      -1.557  13.704  20.993  0.00  0.00    +0.000 A 
ATOM     22  C   UNL     1      -2.205  13.000  19.965  0.00  0.00    +0.000 A 
ATOM     23  C   UNL     1      -3.548  12.653  20.144  0.00  0.00    +0.000 A 
ATOM     24  C   UNL     1      -4.175  12.834  21.373  0.00  0.00    +0.000 A 
BRANCH  19  26
ATOM     25  O   UNL     1      -4.129  14.381  24.510  0.00  0.00    +0.000 OA
ATOM     26  C   UNL     1      -4.117  13.410  23.772  0.00  0.00    +0.000 C 
BRANCH  26  27
ATOM     27  O   UNL     1      -4.768  12.261  24.059  0.00  0.00    +0.000 OA
ATOM     28  H   UNL     1      -5.121  11.789  23.281  0.00  0.00    +0.000 HD
ENDBRANCH  26  27
ENDBRANCH  19  26
ENDBRANCH  18  22
ENDBRANCH   1  18
BRANCH   1  29
ATOM     29  C   UNL     1      -1.753  10.045  18.354  0.00  0.00    +0.000 C 
BRANCH  29  30
ATOM     30  C   UNL     1      -2.870  10.270  17.340  0.00  0.00    +0.000 C 
ATOM     31  F   UNL     1      -2.762   9.419  16.294  0.00  0.00    +0.000 F 
ATOM     32  F   UNL     1      -4.091  10.100  17.898  0.00  0.00    +0.000 F 
ENDBRANCH  29  30
ENDBRANCH   1  29
TORSDOF 9
ENDMDL
MODEL 5
REMARK VINA RESULT:      -7.8      0.939      1.470
REMARK  Name = 
REMARK  9 active torsions:
REMARK  status: ('A' for Active; 'I' for Inactive)
REMARK    1  A    between atoms: C_2  and  O_3
REMARK    2  A    between atoms: C_2  and  C_4
REMARK    3  A    between atoms: C_7  and  C_8
REMARK    4  A    between atoms: C_8  and  N_9
REMARK    5  A    between atoms: N_9  and  C_10
REMARK    6  A    between atoms: C_10  and  C_11
REMARK    7  A    between atoms: C_14  and  C_16
REMARK    8  A    between atoms: C_19  and  O_20
REMARK    9  A    between atoms: O_20  and  C_21
REMARK                            x       y       z     vdW  Elec       q    Type
REMARK                         _______ _______ _______ _____ _____    ______ ____
ROOT
ATOM      1  N   UNL     1      -0.891  11.085  19.388  0.00  0.00    +0.000 N 
ATOM      2  C   UNL     1       0.417  10.815  19.826  0.00  0.00    +0.000 C 
ATOM      3  O   UNL     1       1.068  11.605  20.520  0.00  0.00    +0.000 OA
ENDROOT
BRANCH   2   4
ATOM      4  C   UNL     1       1.102   9.536  19.483  0.00  0.00    +0.000 A 
ATOM      5  C   UNL     1       1.589   9.265  18.196  0.00  0.00    +0.000 A 
ATOM      6  C   UNL     1       2.221   8.053  17.919  0.00  0.00    +0.000 A 
ATOM      7  C   UNL     1       2.462   7.147  18.949  0.00  0.00    +0.000 A 
ATOM      8  C   UNL     1       1.989   7.406  20.238  0.00  0.00    +0.000 A 
ATOM      9  C   UNL     1       1.327   8.606  20.509  0.00  0.00    +0.000 A 
BRANCH   7  10
ATOM     10  O   UNL     1       3.157   6.008  18.616  0.00  0.00    +0.000 OA
BRANCH  10  11
ATOM     11  C   UNL     1       2.520   4.793  18.714  0.00  0.00    +0.000 A 
ATOM     12  C   UNL     1       1.625   4.443  19.732  0.00  0.00    +0.000 A 
ATOM     13  C   UNL     1       0.984   3.199  19.710  0.00  0.00    +0.000 A 
ATOM     14  C   UNL     1       1.277   2.282  18.700  0.00  0.00    +0.000 A 
ATOM     15  C   UNL     1       2.219   2.597  17.723  0.00  0.00    +0.000 A 
ATOM     16  C   UNL     1       2.834   3.848  17.737  0.00  0.00    +0.000 A 
ATOM     17  F   UNL     1       3.738   4.132  16.789  0.00  0.00    +0.000 F 
ENDBRANCH  10  11
ENDBRANCH   7  10
ENDBRANCH   2   4
BRANCH   1  18
ATOM     18  C   UNL     1      -1.412  12.441  19.644  0.00  0.00    +0.000 C 
BRANCH  18  22
ATOM     19  C   UNL     1      -4.349  12.952  22.755  0.00  0.00    +0.000 A 
ATOM     20  C   UNL     1      -4.731  13.094  21.417  0.00  0.00    +0.000 A 
ATOM     21  C   UNL     1      -3.799  12.861  20.402  0.00  0.00    +0.000 A 
ATOM     22  C   UNL     1      -2.489  12.458  20.710  0.00  0.00    +0.000 A 
ATOM     23  C   UNL     1      -2.185  12.154  22.041  0.00  0.00    +0.000 A 
ATOM     24  C   UNL     1      -3.096  12.418  23.060  0.00  0.00    +0.000 A 
BRANCH  19  26
ATOM     25  O   UNL     1      -6.057  14.262  23.777  0.00  0.00    +0.000 OA
ATOM     26  C   UNL     1      -5.211  13.390  23.880  0.00  0.00    +0.000 C 
BRANCH  26  27
ATOM     27  O   UNL     1      -5.034  12.667  25.007  0.00  0.00    +0.000 OA
ATOM     28  H   UNL     1      -5.240  13.144  25.833  0.00  0.00    +0.000 HD
ENDBRANCH  26  27
ENDBRANCH  19  26
ENDBRANCH  18  22
ENDBRANCH   1  18
BRANCH   1  29
ATOM     29  C   UNL     1      -1.660  10.168  18.512  0.00  0.00    +0.000 C 
BRANCH  29  30
ATOM     30  C   UNL     1      -2.160  10.615  17.141  0.00  0.00    +0.000 C 
ATOM     31  F   UNL     1      -2.245   9.571  16.286  0.00  0.00    +0.000 F 
ATOM     32  F   UNL     1      -3.379  11.195  17.221  0.00  0.00    +0.000 F 
ENDBRANCH  29  30
ENDBRANCH   1  29
TORSDOF 9
ENDMDL
MODEL 6
REMARK VINA RESULT:      -7.8      3.797     10.327
REMARK  Name = 
REMARK  9 active torsions:
REMARK  status: ('A' for Active; 'I' for Inactive)
REMARK    1  A    between atoms: C_2  and  O_3
REMARK    2  A    between atoms: C_2  and  C_4
REMARK    3  A    between atoms: C_7  and  C_8
REMARK    4  A    between atoms: C_8  and  N_9
REMARK    5  A    between atoms: N_9  and  C_10
REMARK    6  A    between atoms: C_10  and  C_11
REMARK    7  A    between atoms: C_14  and  C_16
REMARK    8  A    between atoms: C_19  and  O_20
REMARK    9  A    between atoms: O_20  and  C_21
REMARK                            x       y       z     vdW  Elec       q    Type
REMARK                         _______ _______ _______ _____ _____    ______ ____
ROOT
ATOM      1  N   UNL     1       3.243   5.008  18.311  0.00  0.00    +0.000 N 
ATOM      2  C   UNL     1       3.647   6.306  18.668  0.00  0.00    +0.000 C 
ATOM      3  O   UNL     1       4.830   6.608  18.868  0.00  0.00    +0.000 OA
ENDROOT
BRANCH   2   4
ATOM      4  C   UNL     1       2.660   7.413  18.819  0.00  0.00    +0.000 A 
ATOM      5  C   UNL     1       2.002   7.674  20.030  0.00  0.00    +0.000 A 
ATOM      6  C   UNL     1       1.084   8.719  20.126  0.00  0.00    +0.000 A 
ATOM      7  C   UNL     1       0.892   9.573  19.043  0.00  0.00    +0.000 A 
ATOM      8  C   UNL     1       1.546   9.331  17.832  0.00  0.00    +0.000 A 
ATOM      9  C   UNL     1       2.443   8.264  17.727  0.00  0.00    +0.000 A 
BRANCH   7  10
ATOM     10  O   UNL     1       0.028  10.626  19.235  0.00  0.00    +0.000 OA
BRANCH  10  11
ATOM     11  C   UNL     1      -1.171  10.628  18.562  0.00  0.00    +0.000 A 
ATOM     12  C   UNL     1      -1.477   9.795  17.478  0.00  0.00    +0.000 A 
ATOM     13  C   UNL     1      -2.750   9.835  16.898  0.00  0.00    +0.000 A 
ATOM     14  C   UNL     1      -3.700  10.744  17.363  0.00  0.00    +0.000 A 
ATOM     15  C   UNL     1      -3.379  11.623  18.395  0.00  0.00    +0.000 A 
ATOM     16  C   UNL     1      -2.118  11.560  18.985  0.00  0.00    +0.000 A 
ATOM     17  F   UNL     1      -1.828  12.415  19.976  0.00  0.00    +0.000 F 
ENDBRANCH  10  11
ENDBRANCH   7  10
ENDBRANCH   2   4
BRANCH   1  18
ATOM     18  C   UNL     1       4.275   3.955  18.348  0.00  0.00    +0.000 C 
BRANCH  18  22
ATOM     19  C   UNL     1       6.747   4.522  14.865  0.00  0.00    +0.000 A 
ATOM     20  C   UNL     1       7.331   4.551  16.135  0.00  0.00    +0.000 A 
ATOM     21  C   UNL     1       6.546   4.299  17.264  0.00  0.00    +0.000 A 
ATOM     22  C   UNL     1       5.182   3.988  17.134  0.00  0.00    +0.000 A 
ATOM     23  C   UNL     1       4.667   3.793  15.849  0.00  0.00    +0.000 A 
ATOM     24  C   UNL     1       5.432   4.077  14.721  0.00  0.00    +0.000 A 
BRANCH  19  26
ATOM     25  O   UNL     1       8.382   5.786  13.679  0.00  0.00    +0.000 OA
ATOM     26  C   UNL     1       7.459   4.990  13.650  0.00  0.00    +0.000 C 
BRANCH  26  27
ATOM     27  O   UNL     1       7.049   4.380  12.517  0.00  0.00    +0.000 OA
ATOM     28  H   UNL     1       7.755   3.923  12.022  0.00  0.00    +0.000 HD
ENDBRANCH  26  27
ENDBRANCH  19  26
ENDBRANCH  18  22
ENDBRANCH   1  18
BRANCH   1  29
ATOM     29  C   UNL     1       1.823   4.623  18.122  0.00  0.00    +0.000 C 
BRANCH  29  30
ATOM     30  C   UNL     1       1.071   3.821  19.179  0.00  0.00    +0.000 C 
ATOM     31  F   UNL     1       1.614   2.593  19.342  0.00  0.00    +0.000 F 
ATOM     32  F   UNL     1       1.076   4.448  20.377  0.00  0.00    +0.000 F 
ENDBRANCH  29  30
ENDBRANCH   1  29
TORSDOF 9
ENDMDL
MODEL 7
REMARK VINA RESULT:      -7.8      1.080      1.382
REMARK  Name = 
REMARK  9 active torsions:
REMARK  status: ('A' for Active; 'I' for Inactive)
REMARK    1  A    between atoms: C_2  and  O_3
REMARK    2  A    between atoms: C_2  and  C_4
REMARK    3  A    between atoms: C_7  and  C_8
REMARK    4  A    between atoms: C_8  and  N_9
REMARK    5  A    between atoms: N_9  and  C_10
REMARK    6  A    between atoms: C_10  and  C_11
REMARK    7  A    between atoms: C_14  and  C_16
REMARK    8  A    between atoms: C_19  and  O_20
REMARK    9  A    between atoms: O_20  and  C_21
REMARK                            x       y       z     vdW  Elec       q    Type
REMARK                         _______ _______ _______ _____ _____    ______ ____
ROOT
ATOM      1  N   UNL     1      -0.489  11.075  19.630  0.00  0.00    +0.000 N 
ATOM      2  C   UNL     1       0.735  10.589  20.122  0.00  0.00    +0.000 C 
ATOM      3  O   UNL     1       1.373  11.160  21.016  0.00  0.00    +0.000 OA
ENDROOT
BRANCH   2   4
ATOM      4  C   UNL     1       1.341   9.333  19.594  0.00  0.00    +0.000 A 
ATOM      5  C   UNL     1       1.832   9.228  18.284  0.00  0.00    +0.000 A 
ATOM      6  C   UNL     1       2.388   8.032  17.831  0.00  0.00    +0.000 A 
ATOM      7  C   UNL     1       2.550   6.966  18.712  0.00  0.00    +0.000 A 
ATOM      8  C   UNL     1       2.073   7.059  20.023  0.00  0.00    +0.000 A 
ATOM      9  C   UNL     1       1.487   8.247  20.468  0.00  0.00    +0.000 A 
BRANCH   7  10
ATOM     10  O   UNL     1       3.175   5.847  18.215  0.00  0.00    +0.000 OA
BRANCH  10  11
ATOM     11  C   UNL     1       2.800   4.613  18.696  0.00  0.00    +0.000 A 
ATOM     12  C   UNL     1       3.502   3.892  19.670  0.00  0.00    +0.000 A 
ATOM     13  C   UNL     1       3.006   2.669  20.134  0.00  0.00    +0.000 A 
ATOM     14  C   UNL     1       1.837   2.138  19.587  0.00  0.00    +0.000 A 
ATOM     15  C   UNL     1       1.172   2.818  18.568  0.00  0.00    +0.000 A 
ATOM     16  C   UNL     1       1.658   4.047  18.129  0.00  0.00    +0.000 A 
ATOM     17  F   UNL     1       1.005   4.686  17.148  0.00  0.00    +0.000 F 
ENDBRANCH  10  11
ENDBRANCH   7  10
ENDBRANCH   2   4
BRANCH   1  18
ATOM     18  C   UNL     1      -0.915  12.405  20.105  0.00  0.00    +0.000 C 
BRANCH  18  22
ATOM     19  C   UNL     1      -3.931  12.625  23.174  0.00  0.00    +0.000 A 
ATOM     20  C   UNL     1      -4.265  12.955  21.856  0.00  0.00    +0.000 A 
ATOM     21  C   UNL     1      -3.309  12.819  20.846  0.00  0.00    +0.000 A 
ATOM     22  C   UNL     1      -2.026  12.327  21.134  0.00  0.00    +0.000 A 
ATOM     23  C   UNL     1      -1.776  11.840  22.421  0.00  0.00    +0.000 A 
ATOM     24  C   UNL     1      -2.709  12.006  23.441  0.00  0.00    +0.000 A 
BRANCH  19  26
ATOM     25  O   UNL     1      -6.024  13.058  24.229  0.00  0.00    +0.000 OA
ATOM     26  C   UNL     1      -4.813  12.948  24.323  0.00  0.00    +0.000 C 
BRANCH  26  27
ATOM     27  O   UNL     1      -4.157  13.017  25.502  0.00  0.00    +0.000 OA
ATOM     28  H   UNL     1      -3.298  13.477  25.463  0.00  0.00    +0.000 HD
ENDBRANCH  26  27
ENDBRANCH  19  26
ENDBRANCH  18  22
ENDBRANCH   1  18
BRANCH   1  29
ATOM     29  C   UNL     1      -1.234  10.428  18.524  0.00  0.00    +0.000 C 
BRANCH  29  30
ATOM     30  C   UNL     1      -1.986  11.254  17.484  0.00  0.00    +0.000 C 
ATOM     31  F   UNL     1      -3.252  11.510  17.884  0.00  0.00    +0.000 F 
ATOM     32  F   UNL     1      -1.371  12.435  17.247  0.00  0.00    +0.000 F 
ENDBRANCH  29  30
ENDBRANCH   1  29
TORSDOF 9
ENDMDL
MODEL 8
REMARK VINA RESULT:      -7.7      0.710      1.247
REMARK  Name = 
REMARK  9 active torsions:
REMARK  status: ('A' for Active; 'I' for Inactive)
REMARK    1  A    between atoms: C_2  and  O_3
REMARK    2  A    between atoms: C_2  and  C_4
REMARK    3  A    between atoms: C_7  and  C_8
REMARK    4  A    between atoms: C_8  and  N_9
REMARK    5  A    between atoms: N_9  and  C_10
REMARK    6  A    between atoms: C_10  and  C_11
REMARK    7  A    between atoms: C_14  and  C_16
REMARK    8  A    between atoms: C_19  and  O_20
REMARK    9  A    between atoms: O_20  and  C_21
REMARK                            x       y       z     vdW  Elec       q    Type
REMARK                         _______ _______ _______ _____ _____    ______ ____
ROOT
ATOM      1  N   UNL     1      -0.868  11.358  19.364  0.00  0.00    +0.000 N 
ATOM      2  C   UNL     1       0.490  11.119  19.637  0.00  0.00    +0.000 C 
ATOM      3  O   UNL     1       1.246  11.987  20.090  0.00  0.00    +0.000 OA
ENDROOT
BRANCH   2   4
ATOM      4  C   UNL     1       1.106   9.781  19.401  0.00  0.00    +0.000 A 
ATOM      5  C   UNL     1       1.666   9.418  18.167  0.00  0.00    +0.000 A 
ATOM      6  C   UNL     1       2.229   8.155  17.990  0.00  0.00    +0.000 A 
ATOM      7  C   UNL     1       2.327   7.283  19.071  0.00  0.00    +0.000 A 
ATOM      8  C   UNL     1       1.780   7.634  20.308  0.00  0.00    +0.000 A 
ATOM      9  C   UNL     1       1.188   8.887  20.478  0.00  0.00    +0.000 A 
BRANCH   7  10
ATOM     10  O   UNL     1       2.962   6.085  18.840  0.00  0.00    +0.000 OA
BRANCH  10  11
ATOM     11  C   UNL     1       2.449   4.944  19.412  0.00  0.00    +0.000 A 
ATOM     12  C   UNL     1       2.782   4.475  20.689  0.00  0.00    +0.000 A 
ATOM     13  C   UNL     1       2.160   3.332  21.204  0.00  0.00    +0.000 A 
ATOM     14  C   UNL     1       1.244   2.626  20.423  0.00  0.00    +0.000 A 
ATOM     15  C   UNL     1       0.960   3.049  19.126  0.00  0.00    +0.000 A 
ATOM     16  C   UNL     1       1.564   4.201  18.630  0.00  0.00    +0.000 A 
ATOM     17  F   UNL     1       1.279   4.591  17.379  0.00  0.00    +0.000 F 
ENDBRANCH  10  11
ENDBRANCH   7  10
ENDBRANCH   2   4
BRANCH   1  18
ATOM     18  C   UNL     1      -1.334  12.753  19.479  0.00  0.00    +0.000 C 
BRANCH  18  22
ATOM     19  C   UNL     1      -3.983  13.806  22.709  0.00  0.00    +0.000 A 
ATOM     20  C   UNL     1      -4.520  13.434  21.472  0.00  0.00    +0.000 A 
ATOM     21  C   UNL     1      -3.668  13.025  20.443  0.00  0.00    +0.000 A 
ATOM     22  C   UNL     1      -2.280  12.956  20.646  0.00  0.00    +0.000 A 
ATOM     23  C   UNL     1      -1.788  13.162  21.939  0.00  0.00    +0.000 A 
ATOM     24  C   UNL     1      -2.625  13.605  22.959  0.00  0.00    +0.000 A 
BRANCH  19  26
ATOM     25  O   UNL     1      -6.006  14.599  23.689  0.00  0.00    +0.000 OA
ATOM     26  C   UNL     1      -4.797  14.453  23.767  0.00  0.00    +0.000 C 
BRANCH  26  27
ATOM     27  O   UNL     1      -4.086  14.785  24.867  0.00  0.00    +0.000 OA
ATOM     28  H   UNL     1      -4.560  14.660  25.711  0.00  0.00    +0.000 HD
ENDBRANCH  26  27
ENDBRANCH  19  26
ENDBRANCH  18  22
ENDBRANCH   1  18
BRANCH   1  29
ATOM     29  C   UNL     1      -1.769  10.340  18.772  0.00  0.00    +0.000 C 
BRANCH  29  30
ATOM     30  C   UNL     1      -2.259  10.457  17.331  0.00  0.00    +0.000 C 
ATOM     31  F   UNL     1      -1.752   9.469  16.559  0.00  0.00    +0.000 F 
ATOM     32  F   UNL     1      -3.608  10.400  17.258  0.00  0.00    +0.000 F 
ENDBRANCH  29  30
ENDBRANCH   1  29
TORSDOF 9
ENDMDL
MODEL 9
REMARK VINA RESULT:      -7.7      2.038      2.817
REMARK  Name = 
REMARK  9 active torsions:
REMARK  status: ('A' for Active; 'I' for Inactive)
REMARK    1  A    between atoms: C_2  and  O_3
REMARK    2  A    between atoms: C_2  and  C_4
REMARK    3  A    between atoms: C_7  and  C_8
REMARK    4  A    between atoms: C_8  and  N_9
REMARK    5  A    between atoms: N_9  and  C_10
REMARK    6  A    between atoms: C_10  and  C_11
REMARK    7  A    between atoms: C_14  and  C_16
REMARK    8  A    between atoms: C_19  and  O_20
REMARK    9  A    between atoms: O_20  and  C_21
REMARK                            x       y       z     vdW  Elec       q    Type
REMARK                         _______ _______ _______ _____ _____    ______ ____
ROOT
ATOM      1  N   UNL     1      -0.697  11.074  19.356  0.00  0.00    +0.000 N 
ATOM      2  C   UNL     1       0.677  10.864  19.568  0.00  0.00    +0.000 C 
ATOM      3  O   UNL     1       1.398  11.683  20.151  0.00  0.00    +0.000 OA
ENDROOT
BRANCH   2   4
ATOM      4  C   UNL     1       1.352   9.619  19.104  0.00  0.00    +0.000 A 
ATOM      5  C   UNL     1       1.896   9.492  17.818  0.00  0.00    +0.000 A 
ATOM      6  C   UNL     1       2.517   8.307  17.425  0.00  0.00    +0.000 A 
ATOM      7  C   UNL     1       2.689   7.278  18.346  0.00  0.00    +0.000 A 
ATOM      8  C   UNL     1       2.160   7.392  19.635  0.00  0.00    +0.000 A 
ATOM      9  C   UNL     1       1.509   8.567  20.019  0.00  0.00    +0.000 A 
BRANCH   7  10
ATOM     10  O   UNL     1       3.377   6.170  17.910  0.00  0.00    +0.000 OA
BRANCH  10  11
ATOM     11  C   UNL     1       4.750   6.167  17.997  0.00  0.00    +0.000 A 
ATOM     12  C   UNL     1       5.607   6.779  17.075  0.00  0.00    +0.000 A 
ATOM     13  C   UNL     1       6.990   6.769  17.285  0.00  0.00    +0.000 A 
ATOM     14  C   UNL     1       7.522   6.100  18.389  0.00  0.00    +0.000 A 
ATOM     15  C   UNL     1       6.679   5.430  19.272  0.00  0.00    +0.000 A 
ATOM     16  C   UNL     1       5.301   5.467  19.070  0.00  0.00    +0.000 A 
ATOM     17  F   UNL     1       4.506   4.815  19.931  0.00  0.00    +0.000 F 
ENDBRANCH  10  11
ENDBRANCH   7  10
ENDBRANCH   2   4
BRANCH   1  18
ATOM     18  C   UNL     1      -1.229  12.404  19.709  0.00  0.00    +0.000 C 
BRANCH  18  22
ATOM     19  C   UNL     1      -4.025  12.693  22.973  0.00  0.00    +0.000 A 
ATOM     20  C   UNL     1      -4.473  12.896  21.663  0.00  0.00    +0.000 A 
ATOM     21  C   UNL     1      -3.585  12.735  20.596  0.00  0.00    +0.000 A 
ATOM     22  C   UNL     1      -2.255  12.344  20.822  0.00  0.00    +0.000 A 
ATOM     23  C   UNL     1      -1.884  11.978  22.120  0.00  0.00    +0.000 A 
ATOM     24  C   UNL     1      -2.750  12.170  23.192  0.00  0.00    +0.000 A 
BRANCH  19  26
ATOM     25  O   UNL     1      -5.556  12.261  24.748  0.00  0.00    +0.000 OA
ATOM     26  C   UNL     1      -4.842  13.054  24.158  0.00  0.00    +0.000 C 
BRANCH  26  27
ATOM     27  O   UNL     1      -4.650  14.324  24.578  0.00  0.00    +0.000 OA
ATOM     28  H   UNL     1      -5.096  14.547  25.417  0.00  0.00    +0.000 HD
ENDBRANCH  26  27
ENDBRANCH  19  26
ENDBRANCH  18  22
ENDBRANCH   1  18
BRANCH   1  29
ATOM     29  C   UNL     1      -1.559  10.124  18.613  0.00  0.00    +0.000 C 
BRANCH  29  30
ATOM     30  C   UNL     1      -1.956  10.381  17.162  0.00  0.00    +0.000 C 
ATOM     31  F   UNL     1      -3.161   9.836  16.879  0.00  0.00    +0.000 F 
ATOM     32  F   UNL     1      -2.017  11.705  16.891  0.00  0.00    +0.000 F 
ENDBRANCH  29  30
ENDBRANCH   1  29
TORSDOF 9
ENDMDL
