MODEL 1
REMARK VINA RESULT:      -7.9      0.000      0.000
REMARK  Name = 
REMARK  7 active torsions:
REMARK  status: ('A' for Active; 'I' for Inactive)
REMARK    1  A    between atoms: C_1  and  N_2
REMARK    2  A    between atoms: N_2  and  C_3
REMARK    3  A    between atoms: N_2  and  C_4
REMARK    4  A    between atoms: C_4  and  C_5
REMARK    5  A    between atoms: C_5  and  C_6
REMARK    6  A    between atoms: C_6  and  C_7
REMARK    7  A    between atoms: C_19  and  C_20
REMARK                            x       y       z     vdW  Elec       q    Type
REMARK                         _______ _______ _______ _____ _____    ______ ____
ROOT
ATOM      1  C   UNL     1       6.671   5.124  15.853  0.00  0.00    +0.000 A 
ATOM      2  N   UNL     1       7.818   4.499  16.053  0.00  0.00    +0.000 NA
ATOM      3  N   UNL     1       7.962   4.285  17.393  0.00  0.00    +0.000 NA
ATOM      4  C   UNL     1       6.908   4.788  17.998  0.00  0.00    +0.000 A 
ATOM      5  N   UNL     1       6.094   5.416  17.078  0.00  0.00    +0.000 N 
ATOM      6  C   UNL     1       4.971   6.204  17.403  0.00  0.00    +0.000 A 
ATOM      7  C   UNL     1       4.772   7.422  16.729  0.00  0.00    +0.000 A 
ATOM      8  C   UNL     1       3.645   8.205  17.001  0.00  0.00    +0.000 A 
ATOM      9  C   UNL     1       2.723   7.782  17.953  0.00  0.00    +0.000 A 
ATOM     10 CL   UNL     1       1.272   8.669  18.202  0.00  0.00    +0.000 Cl
ATOM     11  C   UNL     1       2.961   6.632  18.694  0.00  0.00    +0.000 A 
ATOM     12  C   UNL     1       4.085   5.825  18.429  0.00  0.00    +0.000 A 
ATOM     13  C   UNL     1       4.236   4.559  19.240  0.00  0.00    +0.000 C 
ATOM     14  N   UNL     1       5.352   4.117  19.704  0.00  0.00    +0.000 NA
ATOM     15  C   UNL     1       6.609   4.807  19.441  0.00  0.00    +0.000 C 
ENDROOT
BRANCH  13  16
ATOM     16  C   UNL     1       2.999   3.782  19.587  0.00  0.00    +0.000 A 
ATOM     17  C   UNL     1       2.236   3.140  18.600  0.00  0.00    +0.000 A 
ATOM     18  C   UNL     1       1.017   2.544  18.935  0.00  0.00    +0.000 A 
ATOM     19  C   UNL     1       0.576   2.556  20.259  0.00  0.00    +0.000 A 
ATOM     20  C   UNL     1       1.361   3.143  21.248  0.00  0.00    +0.000 A 
ATOM     21  C   UNL     1       2.571   3.749  20.917  0.00  0.00    +0.000 A 
ENDBRANCH  13  16
BRANCH   1  22
ATOM     22  C   UNL     1       6.062   5.330  14.507  0.00  0.00    +0.000 C 
BRANCH  22  23
ATOM     23  C   UNL     1       5.433   4.043  13.948  0.00  0.00    +0.000 C 
BRANCH  23  24
ATOM     24  C   UNL     1       6.065   3.522  12.643  0.00  0.00    +0.000 C 
BRANCH  24  26
ATOM     25  C   UNL     1       4.226   3.069  11.110  0.00  0.00    +0.000 C 
ATOM     26  N   UNL     1       5.267   2.483  11.960  0.00  0.00    +0.000 NA
ATOM     27  C   UNL     1       6.142   1.650  11.127  0.00  0.00    +0.000 C 
ENDBRANCH  24  26
ENDBRANCH  23  24
ENDBRANCH  22  23
ENDBRANCH   1  22
TORSDOF 5
ENDMDL
MODEL 2
REMARK VINA RESULT:      -7.8      0.363      1.187
REMARK  Name = 
REMARK  7 active torsions:
REMARK  status: ('A' for Active; 'I' for Inactive)
REMARK    1  A    between atoms: C_1  and  N_2
REMARK    2  A    between atoms: N_2  and  C_3
REMARK    3  A    between atoms: N_2  and  C_4
REMARK    4  A    between atoms: C_4  and  C_5
REMARK    5  A    between atoms: C_5  and  C_6
REMARK    6  A    between atoms: C_6  and  C_7
REMARK    7  A    between atoms: C_19  and  C_20
REMARK                            x       y       z     vdW  Elec       q    Type
REMARK                         _______ _______ _______ _____ _____    ______ ____
ROOT
ATOM      1  C   UNL     1       6.586   5.065  15.843  0.00  0.00    +0.000 A 
ATOM      2  N   UNL     1       7.752   4.471  16.026  0.00  0.00    +0.000 NA
ATOM      3  N   UNL     1       7.972   4.361  17.369  0.00  0.00    +0.000 NA
ATOM      4  C   UNL     1       6.944   4.895  17.992  0.00  0.00    +0.000 A 
ATOM      5  N   UNL     1       6.072   5.441  17.073  0.00  0.00    +0.000 N 
ATOM      6  C   UNL     1       4.954   6.238  17.400  0.00  0.00    +0.000 A 
ATOM      7  C   UNL     1       4.699   7.398  16.648  0.00  0.00    +0.000 A 
ATOM      8  C   UNL     1       3.575   8.185  16.923  0.00  0.00    +0.000 A 
ATOM      9  C   UNL     1       2.714   7.824  17.952  0.00  0.00    +0.000 A 
ATOM     10 CL   UNL     1       1.263   8.709  18.214  0.00  0.00    +0.000 Cl
ATOM     11  C   UNL     1       3.010   6.736  18.764  0.00  0.00    +0.000 A 
ATOM     12  C   UNL     1       4.131   5.926  18.498  0.00  0.00    +0.000 A 
ATOM     13  C   UNL     1       4.346   4.727  19.391  0.00  0.00    +0.000 C 
ATOM     14  N   UNL     1       5.494   4.335  19.826  0.00  0.00    +0.000 NA
ATOM     15  C   UNL     1       6.723   5.019  19.443  0.00  0.00    +0.000 C 
ENDROOT
BRANCH  13  16
ATOM     16  C   UNL     1       3.143   3.963  19.863  0.00  0.00    +0.000 A 
ATOM     17  C   UNL     1       2.783   3.927  21.219  0.00  0.00    +0.000 A 
ATOM     18  C   UNL     1       1.744   3.095  21.646  0.00  0.00    +0.000 A 
ATOM     19  C   UNL     1       1.040   2.327  20.716  0.00  0.00    +0.000 A 
ATOM     20  C   UNL     1       1.360   2.406  19.363  0.00  0.00    +0.000 A 
ATOM     21  C   UNL     1       2.404   3.225  18.936  0.00  0.00    +0.000 A 
ENDBRANCH  13  16
BRANCH   1  22
ATOM     22  C   UNL     1       5.902   5.160  14.521  0.00  0.00    +0.000 C 
BRANCH  22  23
ATOM     23  C   UNL     1       5.765   3.792  13.834  0.00  0.00    +0.000 C 
BRANCH  23  24
ATOM     24  C   UNL     1       6.528   3.652  12.503  0.00  0.00    +0.000 C 
BRANCH  24  26
ATOM     25  C   UNL     1       5.948   1.533  11.449  0.00  0.00    +0.000 C 
ATOM     26  N   UNL     1       5.757   2.987  11.434  0.00  0.00    +0.000 NA
ATOM     27  C   UNL     1       4.327   3.275  11.596  0.00  0.00    +0.000 C 
ENDBRANCH  24  26
ENDBRANCH  23  24
ENDBRANCH  22  23
ENDBRANCH   1  22
TORSDOF 5
ENDMDL
MODEL 3
REMARK VINA RESULT:      -6.6      7.695     10.986
REMARK  Name = 
REMARK  7 active torsions:
REMARK  status: ('A' for Active; 'I' for Inactive)
REMARK    1  A    between atoms: C_1  and  N_2
REMARK    2  A    between atoms: N_2  and  C_3
REMARK    3  A    between atoms: N_2  and  C_4
REMARK    4  A    between atoms: C_4  and  C_5
REMARK    5  A    between atoms: C_5  and  C_6
REMARK    6  A    between atoms: C_6  and  C_7
REMARK    7  A    between atoms: C_19  and  C_20
REMARK                            x       y       z     vdW  Elec       q    Type
REMARK                         _______ _______ _______ _____ _____    ______ ____
ROOT
ATOM      1  C   UNL     1      -2.075  11.649  23.063  0.00  0.00    +0.000 A 
ATOM      2  N   UNL     1      -3.204  11.719  23.745  0.00  0.00    +0.000 NA
ATOM      3  N   UNL     1      -4.142  12.330  22.963  0.00  0.00    +0.000 NA
ATOM      4  C   UNL     1      -3.575  12.634  21.815  0.00  0.00    +0.000 A 
ATOM      5  N   UNL     1      -2.235  12.307  21.854  0.00  0.00    +0.000 N 
ATOM      6  C   UNL     1      -1.294  12.651  20.860  0.00  0.00    +0.000 A 
ATOM      7  C   UNL     1      -0.033  13.133  21.251  0.00  0.00    +0.000 A 
ATOM      8  C   UNL     1       0.935  13.443  20.289  0.00  0.00    +0.000 A 
ATOM      9  C   UNL     1       0.642  13.284  18.939  0.00  0.00    +0.000 A 
ATOM     10 CL   UNL     1       1.864  13.536  17.756  0.00  0.00    +0.000 Cl
ATOM     11  C   UNL     1      -0.632  12.903  18.539  0.00  0.00    +0.000 A 
ATOM     12  C   UNL     1      -1.617  12.578  19.492  0.00  0.00    +0.000 A 
ATOM     13  C   UNL     1      -2.958  12.113  18.972  0.00  0.00    +0.000 C 
ATOM     14  N   UNL     1      -4.094  12.451  19.475  0.00  0.00    +0.000 NA
ATOM     15  C   UNL     1      -4.177  13.308  20.652  0.00  0.00    +0.000 C 
ENDROOT
BRANCH  13  16
ATOM     16  C   UNL     1      -2.987  11.244  17.749  0.00  0.00    +0.000 A 
ATOM     17  C   UNL     1      -2.050  10.217  17.557  0.00  0.00    +0.000 A 
ATOM     18  C   UNL     1      -2.014   9.519  16.347  0.00  0.00    +0.000 A 
ATOM     19  C   UNL     1      -2.937   9.818  15.343  0.00  0.00    +0.000 A 
ATOM     20  C   UNL     1      -3.904  10.798  15.555  0.00  0.00    +0.000 A 
ATOM     21  C   UNL     1      -3.934  11.505  16.756  0.00  0.00    +0.000 A 
ENDBRANCH  13  16
BRANCH   1  22
ATOM     22  C   UNL     1      -0.891  10.853  23.497  0.00  0.00    +0.000 C 
BRANCH  22  23
ATOM     23  C   UNL     1      -0.699   9.584  22.650  0.00  0.00    +0.000 C 
BRANCH  23  24
ATOM     24  C   UNL     1       0.695   9.433  22.011  0.00  0.00    +0.000 C 
BRANCH  24  26
ATOM     25  C   UNL     1       0.993   9.746  19.613  0.00  0.00    +0.000 C 
ATOM     26  N   UNL     1       0.682   8.791  20.681  0.00  0.00    +0.000 NA
ATOM     27  C   UNL     1       1.667   7.703  20.642  0.00  0.00    +0.000 C 
ENDBRANCH  24  26
ENDBRANCH  23  24
ENDBRANCH  22  23
ENDBRANCH   1  22
TORSDOF 5
ENDMDL
MODEL 4
REMARK VINA RESULT:      -6.5      8.141     11.627
REMARK  Name = 
REMARK  7 active torsions:
REMARK  status: ('A' for Active; 'I' for Inactive)
REMARK    1  A    between atoms: C_1  and  N_2
REMARK    2  A    between atoms: N_2  and  C_3
REMARK    3  A    between atoms: N_2  and  C_4
REMARK    4  A    between atoms: C_4  and  C_5
REMARK    5  A    between atoms: C_5  and  C_6
REMARK    6  A    between atoms: C_6  and  C_7
REMARK    7  A    between atoms: C_19  and  C_20
REMARK                            x       y       z     vdW  Elec       q    Type
REMARK                         _______ _______ _______ _____ _____    ______ ____
ROOT
ATOM      1  C   UNL     1      -3.426  12.609  19.971  0.00  0.00    +0.000 A 
ATOM      2  N   UNL     1      -4.544  12.153  19.436  0.00  0.00    +0.000 NA
ATOM      3  N   UNL     1      -4.232  11.495  18.281  0.00  0.00    +0.000 NA
ATOM      4  C   UNL     1      -2.928  11.564  18.117  0.00  0.00    +0.000 A 
ATOM      5  N   UNL     1      -2.371  12.338  19.114  0.00  0.00    +0.000 N 
ATOM      6  C   UNL     1      -1.024  12.758  19.148  0.00  0.00    +0.000 A 
ATOM      7  C   UNL     1      -0.732  14.086  19.505  0.00  0.00    +0.000 A 
ATOM      8  C   UNL     1       0.596  14.520  19.588  0.00  0.00    +0.000 A 
ATOM      9  C   UNL     1       1.630  13.635  19.304  0.00  0.00    +0.000 A 
ATOM     10 CL   UNL     1       3.265  14.119  19.528  0.00  0.00    +0.000 Cl
ATOM     11  C   UNL     1       1.350  12.351  18.855  0.00  0.00    +0.000 A 
ATOM     12  C   UNL     1       0.020  11.893  18.773  0.00  0.00    +0.000 A 
ATOM     13  C   UNL     1      -0.194  10.463  18.334  0.00  0.00    +0.000 C 
ATOM     14  N   UNL     1      -1.131  10.074  17.541  0.00  0.00    +0.000 NA
ATOM     15  C   UNL     1      -2.118  11.011  17.018  0.00  0.00    +0.000 C 
ENDROOT
BRANCH  13  16
ATOM     16  C   UNL     1       0.781   9.420  18.799  0.00  0.00    +0.000 A 
ATOM     17  C   UNL     1       1.639   8.768  17.901  0.00  0.00    +0.000 A 
ATOM     18  C   UNL     1       2.434   7.704  18.339  0.00  0.00    +0.000 A 
ATOM     19  C   UNL     1       2.400   7.316  19.680  0.00  0.00    +0.000 A 
ATOM     20  C   UNL     1       1.590   8.001  20.583  0.00  0.00    +0.000 A 
ATOM     21  C   UNL     1       0.787   9.053  20.147  0.00  0.00    +0.000 A 
ENDBRANCH  13  16
BRANCH   1  22
ATOM     22  C   UNL     1      -3.336  13.183  21.344  0.00  0.00    +0.000 C 
BRANCH  22  23
ATOM     23  C   UNL     1      -4.706  13.628  21.881  0.00  0.00    +0.000 C 
BRANCH  23  24
ATOM     24  C   UNL     1      -5.109  13.010  23.234  0.00  0.00    +0.000 C 
BRANCH  24  26
ATOM     25  C   UNL     1      -7.340  13.197  24.194  0.00  0.00    +0.000 C 
ATOM     26  N   UNL     1      -6.480  12.462  23.261  0.00  0.00    +0.000 NA
ATOM     27  C   UNL     1      -7.072  12.531  21.920  0.00  0.00    +0.000 C 
ENDBRANCH  24  26
ENDBRANCH  23  24
ENDBRANCH  22  23
ENDBRANCH   1  22
TORSDOF 5
ENDMDL
MODEL 5
REMARK VINA RESULT:      -6.5      6.628      9.737
REMARK  Name = 
REMARK  7 active torsions:
REMARK  status: ('A' for Active; 'I' for Inactive)
REMARK    1  A    between atoms: C_1  and  N_2
REMARK    2  A    between atoms: N_2  and  C_3
REMARK    3  A    between atoms: N_2  and  C_4
REMARK    4  A    between atoms: C_4  and  C_5
REMARK    5  A    between atoms: C_5  and  C_6
REMARK    6  A    between atoms: C_6  and  C_7
REMARK    7  A    between atoms: C_19  and  C_20
REMARK                            x       y       z     vdW  Elec       q    Type
REMARK                         _______ _______ _______ _____ _____    ______ ____
ROOT
ATOM      1  C   UNL     1      -0.176  13.922  20.775  0.00  0.00    +0.000 A 
ATOM      2  N   UNL     1       0.073  14.231  22.035  0.00  0.00    +0.000 NA
ATOM      3  N   UNL     1      -0.033  13.095  22.785  0.00  0.00    +0.000 NA
ATOM      4  C   UNL     1      -0.355  12.107  21.978  0.00  0.00    +0.000 A 
ATOM      5  N   UNL     1      -0.549  12.590  20.700  0.00  0.00    +0.000 N 
ATOM      6  C   UNL     1      -1.065  11.836  19.625  0.00  0.00    +0.000 A 
ATOM      7  C   UNL     1      -2.026  12.420  18.781  0.00  0.00    +0.000 A 
ATOM      8  C   UNL     1      -2.525  11.712  17.682  0.00  0.00    +0.000 A 
ATOM      9  C   UNL     1      -2.077  10.419  17.432  0.00  0.00    +0.000 A 
ATOM     10 CL   UNL     1      -2.585   9.589  16.015  0.00  0.00    +0.000 Cl
ATOM     11  C   UNL     1      -1.204   9.798  18.316  0.00  0.00    +0.000 A 
ATOM     12  C   UNL     1      -0.683  10.497  19.422  0.00  0.00    +0.000 A 
ATOM     13  C   UNL     1       0.309   9.768  20.298  0.00  0.00    +0.000 C 
ATOM     14  N   UNL     1       0.341   9.840  21.583  0.00  0.00    +0.000 NA
ATOM     15  C   UNL     1      -0.586  10.692  22.318  0.00  0.00    +0.000 C 
ENDROOT
BRANCH  13  16
ATOM     16  C   UNL     1       1.296   8.845  19.644  0.00  0.00    +0.000 A 
ATOM     17  C   UNL     1       1.818   9.114  18.369  0.00  0.00    +0.000 A 
ATOM     18  C   UNL     1       2.623   8.169  17.728  0.00  0.00    +0.000 A 
ATOM     19  C   UNL     1       2.939   6.971  18.373  0.00  0.00    +0.000 A 
ATOM     20  C   UNL     1       2.468   6.729  19.661  0.00  0.00    +0.000 A 
ATOM     21  C   UNL     1       1.654   7.664  20.298  0.00  0.00    +0.000 A 
ENDBRANCH  13  16
BRANCH   1  22
ATOM     22  C   UNL     1       0.061  14.850  19.631  0.00  0.00    +0.000 C 
BRANCH  22  23
ATOM     23  C   UNL     1       1.131  14.320  18.663  0.00  0.00    +0.000 C 
BRANCH  23  24
ATOM     24  C   UNL     1       2.562  14.820  18.937  0.00  0.00    +0.000 C 
BRANCH  24  26
ATOM     25  C   UNL     1       3.062  16.701  17.472  0.00  0.00    +0.000 C 
ATOM     26  N   UNL     1       3.283  15.275  17.731  0.00  0.00    +0.000 NA
ATOM     27  C   UNL     1       4.723  15.043  17.892  0.00  0.00    +0.000 C 
ENDBRANCH  24  26
ENDBRANCH  23  24
ENDBRANCH  22  23
ENDBRANCH   1  22
TORSDOF 5
ENDMDL
MODEL 6
REMARK VINA RESULT:      -6.4      7.188      9.600
REMARK  Name = 
REMARK  7 active torsions:
REMARK  status: ('A' for Active; 'I' for Inactive)
REMARK    1  A    between atoms: C_1  and  N_2
REMARK    2  A    between atoms: N_2  and  C_3
REMARK    3  A    between atoms: N_2  and  C_4
REMARK    4  A    between atoms: C_4  and  C_5
REMARK    5  A    between atoms: C_5  and  C_6
REMARK    6  A    between atoms: C_6  and  C_7
REMARK    7  A    between atoms: C_19  and  C_20
REMARK                            x       y       z     vdW  Elec       q    Type
REMARK                         _______ _______ _______ _____ _____    ______ ____
ROOT
ATOM      1  C   UNL     1       1.002  10.790  18.423  0.00  0.00    +0.000 A 
ATOM      2  N   UNL     1       2.146  11.449  18.379  0.00  0.00    +0.000 NA
ATOM      3  N   UNL     1       1.882  12.780  18.531  0.00  0.00    +0.000 NA
ATOM      4  C   UNL     1       0.580  12.921  18.657  0.00  0.00    +0.000 A 
ATOM      5  N   UNL     1      -0.041  11.699  18.506  0.00  0.00    +0.000 N 
ATOM      6  C   UNL     1      -1.436  11.510  18.413  0.00  0.00    +0.000 A 
ATOM      7  C   UNL     1      -1.944  10.623  17.448  0.00  0.00    +0.000 A 
ATOM      8  C   UNL     1      -3.319  10.385  17.361  0.00  0.00    +0.000 A 
ATOM      9  C   UNL     1      -4.190  11.040  18.225  0.00  0.00    +0.000 A 
ATOM     10 CL   UNL     1      -5.866  10.659  18.213  0.00  0.00    +0.000 Cl
ATOM     11  C   UNL     1      -3.708  11.992  19.114  0.00  0.00    +0.000 A 
ATOM     12  C   UNL     1      -2.326  12.240  19.223  0.00  0.00    +0.000 A 
ATOM     13  C   UNL     1      -1.882  13.246  20.259  0.00  0.00    +0.000 C 
ATOM     14  N   UNL     1      -0.946  14.113  20.082  0.00  0.00    +0.000 NA
ATOM     15  C   UNL     1      -0.187  14.166  18.838  0.00  0.00    +0.000 C 
ENDROOT
BRANCH  13  16
ATOM     16  C   UNL     1      -2.613  13.292  21.570  0.00  0.00    +0.000 A 
ATOM     17  C   UNL     1      -2.460  12.281  22.530  0.00  0.00    +0.000 A 
ATOM     18  C   UNL     1      -3.257  12.278  23.677  0.00  0.00    +0.000 A 
ATOM     19  C   UNL     1      -4.181  13.304  23.886  0.00  0.00    +0.000 A 
ATOM     20  C   UNL     1      -4.292  14.338  22.961  0.00  0.00    +0.000 A 
ATOM     21  C   UNL     1      -3.508  14.338  21.809  0.00  0.00    +0.000 A 
ENDBRANCH  13  16
BRANCH   1  22
ATOM     22  C   UNL     1       0.903   9.304  18.516  0.00  0.00    +0.000 C 
BRANCH  22  23
ATOM     23  C   UNL     1       2.151   8.600  17.959  0.00  0.00    +0.000 C 
BRANCH  23  24
ATOM     24  C   UNL     1       2.570   7.324  18.713  0.00  0.00    +0.000 C 
BRANCH  24  26
ATOM     25  C   UNL     1       4.465   5.918  18.105  0.00  0.00    +0.000 C 
ATOM     26  N   UNL     1       3.059   6.240  17.838  0.00  0.00    +0.000 NA
ATOM     27  C   UNL     1       2.252   5.031  18.042  0.00  0.00    +0.000 C 
ENDBRANCH  24  26
ENDBRANCH  23  24
ENDBRANCH  22  23
ENDBRANCH   1  22
TORSDOF 5
ENDMDL
MODEL 7
REMARK VINA RESULT:      -6.4      7.141     10.682
REMARK  Name = 
REMARK  7 active torsions:
REMARK  status: ('A' for Active; 'I' for Inactive)
REMARK    1  A    between atoms: C_1  and  N_2
REMARK    2  A    between atoms: N_2  and  C_3
REMARK    3  A    between atoms: N_2  and  C_4
REMARK    4  A    between atoms: C_4  and  C_5
REMARK    5  A    between atoms: C_5  and  C_6
REMARK    6  A    between atoms: C_6  and  C_7
REMARK    7  A    between atoms: C_19  and  C_20
REMARK                            x       y       z     vdW  Elec       q    Type
REMARK                         _______ _______ _______ _____ _____    ______ ____
ROOT
ATOM      1  C   UNL     1      -3.321  12.736  19.861  0.00  0.00    +0.000 A 
ATOM      2  N   UNL     1      -4.478  12.248  19.453  0.00  0.00    +0.000 NA
ATOM      3  N   UNL     1      -4.255  11.479  18.347  0.00  0.00    +0.000 NA
ATOM      4  C   UNL     1      -2.966  11.511  18.087  0.00  0.00    +0.000 A 
ATOM      5  N   UNL     1      -2.332  12.368  18.962  0.00  0.00    +0.000 N 
ATOM      6  C   UNL     1      -0.983  12.769  18.862  0.00  0.00    +0.000 A 
ATOM      7  C   UNL     1      -0.655  14.120  19.068  0.00  0.00    +0.000 A 
ATOM      8  C   UNL     1       0.679  14.540  19.015  0.00  0.00    +0.000 A 
ATOM      9  C   UNL     1       1.683  13.616  18.746  0.00  0.00    +0.000 A 
ATOM     10 CL   UNL     1       3.334  14.094  18.807  0.00  0.00    +0.000 Cl
ATOM     11  C   UNL     1       1.360  12.300  18.443  0.00  0.00    +0.000 A 
ATOM     12  C   UNL     1       0.025  11.856  18.499  0.00  0.00    +0.000 A 
ATOM     13  C   UNL     1      -0.232  10.395  18.217  0.00  0.00    +0.000 C 
ATOM     14  N   UNL     1      -1.227   9.946  17.532  0.00  0.00    +0.000 NA
ATOM     15  C   UNL     1      -2.241  10.843  16.992  0.00  0.00    +0.000 C 
ENDROOT
BRANCH  13  16
ATOM     16  C   UNL     1       0.764   9.386  18.710  0.00  0.00    +0.000 A 
ATOM     17  C   UNL     1       1.639   8.730  17.831  0.00  0.00    +0.000 A 
ATOM     18  C   UNL     1       2.456   7.696  18.298  0.00  0.00    +0.000 A 
ATOM     19  C   UNL     1       2.427   7.341  19.648  0.00  0.00    +0.000 A 
ATOM     20  C   UNL     1       1.600   8.031  20.531  0.00  0.00    +0.000 A 
ATOM     21  C   UNL     1       0.775   9.054  20.067  0.00  0.00    +0.000 A 
ENDBRANCH  13  16
BRANCH   1  22
ATOM     22  C   UNL     1      -3.129  13.437  21.164  0.00  0.00    +0.000 C 
BRANCH  22  23
ATOM     23  C   UNL     1      -2.953  12.456  22.334  0.00  0.00    +0.000 C 
BRANCH  23  24
ATOM     24  C   UNL     1      -1.786  12.781  23.286  0.00  0.00    +0.000 C 
BRANCH  24  26
ATOM     25  C   UNL     1      -1.090  10.451  23.137  0.00  0.00    +0.000 C 
ATOM     26  N   UNL     1      -0.646  11.848  23.183  0.00  0.00    +0.000 NA
ATOM     27  C   UNL     1       0.127  12.137  21.969  0.00  0.00    +0.000 C 
ENDBRANCH  24  26
ENDBRANCH  23  24
ENDBRANCH  22  23
ENDBRANCH   1  22
TORSDOF 5
ENDMDL
MODEL 8
REMARK VINA RESULT:      -6.4      7.648     10.321
REMARK  Name = 
REMARK  7 active torsions:
REMARK  status: ('A' for Active; 'I' for Inactive)
REMARK    1  A    between atoms: C_1  and  N_2
REMARK    2  A    between atoms: N_2  and  C_3
REMARK    3  A    between atoms: N_2  and  C_4
REMARK    4  A    between atoms: C_4  and  C_5
REMARK    5  A    between atoms: C_5  and  C_6
REMARK    6  A    between atoms: C_6  and  C_7
REMARK    7  A    between atoms: C_19  and  C_20
REMARK                            x       y       z     vdW  Elec       q    Type
REMARK                         _______ _______ _______ _____ _____    ______ ____
ROOT
ATOM      1  C   UNL     1      -0.100  10.470  21.140  0.00  0.00    +0.000 A 
ATOM      2  N   UNL     1       0.520  11.168  22.074  0.00  0.00    +0.000 NA
ATOM      3  N   UNL     1       0.136  12.474  21.961  0.00  0.00    +0.000 NA
ATOM      4  C   UNL     1      -0.706  12.560  20.954  0.00  0.00    +0.000 A 
ATOM      5  N   UNL     1      -0.826  11.333  20.335  0.00  0.00    +0.000 N 
ATOM      6  C   UNL     1      -1.512  11.106  19.124  0.00  0.00    +0.000 A 
ATOM      7  C   UNL     1      -0.925  10.279  18.150  0.00  0.00    +0.000 A 
ATOM      8  C   UNL     1      -1.601  10.002  16.957  0.00  0.00    +0.000 A 
ATOM      9  C   UNL     1      -2.854  10.559  16.728  0.00  0.00    +0.000 A 
ATOM     10 CL   UNL     1      -3.749  10.123  15.326  0.00  0.00    +0.000 Cl
ATOM     11  C   UNL     1      -3.399  11.455  17.639  0.00  0.00    +0.000 A 
ATOM     12  C   UNL     1      -2.739  11.739  18.850  0.00  0.00    +0.000 A 
ATOM     13  C   UNL     1      -3.430  12.677  19.812  0.00  0.00    +0.000 C 
ATOM     14  N   UNL     1      -2.834  13.586  20.503  0.00  0.00    +0.000 NA
ATOM     15  C   UNL     1      -1.388  13.761  20.438  0.00  0.00    +0.000 C 
ENDROOT
BRANCH  13  16
ATOM     16  C   UNL     1      -4.923  12.596  19.940  0.00  0.00    +0.000 A 
ATOM     17  C   UNL     1      -5.545  12.444  21.188  0.00  0.00    +0.000 A 
ATOM     18  C   UNL     1      -6.924  12.231  21.262  0.00  0.00    +0.000 A 
ATOM     19  C   UNL     1      -7.689  12.207  20.095  0.00  0.00    +0.000 A 
ATOM     20  C   UNL     1      -7.080  12.415  18.860  0.00  0.00    +0.000 A 
ATOM     21  C   UNL     1      -5.703  12.615  18.781  0.00  0.00    +0.000 A 
ENDBRANCH  13  16
BRANCH   1  22
ATOM     22  C   UNL     1      -0.108   8.979  21.087  0.00  0.00    +0.000 C 
BRANCH  22  23
ATOM     23  C   UNL     1       1.307   8.384  21.169  0.00  0.00    +0.000 C 
BRANCH  23  24
ATOM     24  C   UNL     1       1.871   7.857  19.836  0.00  0.00    +0.000 C 
BRANCH  24  26
ATOM     25  C   UNL     1       1.687   5.517  20.489  0.00  0.00    +0.000 C 
ATOM     26  N   UNL     1       2.565   6.558  19.946  0.00  0.00    +0.000 NA
ATOM     27  C   UNL     1       3.039   6.132  18.624  0.00  0.00    +0.000 C 
ENDBRANCH  24  26
ENDBRANCH  23  24
ENDBRANCH  22  23
ENDBRANCH   1  22
TORSDOF 5
ENDMDL
MODEL 9
REMARK VINA RESULT:      -6.3      7.754     11.387
REMARK  Name = 
REMARK  7 active torsions:
REMARK  status: ('A' for Active; 'I' for Inactive)
REMARK    1  A    between atoms: C_1  and  N_2
REMARK    2  A    between atoms: N_2  and  C_3
REMARK    3  A    between atoms: N_2  and  C_4
REMARK    4  A    between atoms: C_4  and  C_5
REMARK    5  A    between atoms: C_5  and  C_6
REMARK    6  A    between atoms: C_6  and  C_7
REMARK    7  A    between atoms: C_19  and  C_20
REMARK                            x       y       z     vdW  Elec       q    Type
REMARK                         _______ _______ _______ _____ _____    ______ ____
ROOT
ATOM      1  C   UNL     1      -3.442  12.706  20.088  0.00  0.00    +0.000 A 
ATOM      2  N   UNL     1      -4.583  12.234  19.619  0.00  0.00    +0.000 NA
ATOM      3  N   UNL     1      -4.323  11.542  18.471  0.00  0.00    +0.000 NA
ATOM      4  C   UNL     1      -3.028  11.606  18.246  0.00  0.00    +0.000 A 
ATOM      5  N   UNL     1      -2.427  12.409  19.192  0.00  0.00    +0.000 N 
ATOM      6  C   UNL     1      -1.081  12.831  19.153  0.00  0.00    +0.000 A 
ATOM      7  C   UNL     1      -0.774  14.169  19.456  0.00  0.00    +0.000 A 
ATOM      8  C   UNL     1       0.555  14.605  19.465  0.00  0.00    +0.000 A 
ATOM      9  C   UNL     1       1.577  13.712  19.161  0.00  0.00    +0.000 A 
ATOM     10 CL   UNL     1       3.220  14.202  19.295  0.00  0.00    +0.000 Cl
ATOM     11  C   UNL     1       1.278  12.415  18.764  0.00  0.00    +0.000 A 
ATOM     12  C   UNL     1      -0.053  11.955  18.757  0.00  0.00    +0.000 A 
ATOM     13  C   UNL     1      -0.285  10.512  18.371  0.00  0.00    +0.000 C 
ATOM     14  N   UNL     1      -1.257  10.099  17.634  0.00  0.00    +0.000 NA
ATOM     15  C   UNL     1      -2.268  11.020  17.128  0.00  0.00    +0.000 C 
ENDROOT
BRANCH  13  16
ATOM     16  C   UNL     1       0.711   9.483  18.822  0.00  0.00    +0.000 A 
ATOM     17  C   UNL     1       1.571   8.849  17.914  0.00  0.00    +0.000 A 
ATOM     18  C   UNL     1       2.387   7.797  18.339  0.00  0.00    +0.000 A 
ATOM     19  C   UNL     1       2.373   7.403  19.678  0.00  0.00    +0.000 A 
ATOM     20  C   UNL     1       1.561   8.070  20.592  0.00  0.00    +0.000 A 
ATOM     21  C   UNL     1       0.737   9.111  20.169  0.00  0.00    +0.000 A 
ENDBRANCH  13  16
BRANCH   1  22
ATOM     22  C   UNL     1      -3.290  13.321  21.439  0.00  0.00    +0.000 C 
BRANCH  22  23
ATOM     23  C   UNL     1      -2.492  12.427  22.401  0.00  0.00    +0.000 C 
BRANCH  23  24
ATOM     24  C   UNL     1      -1.577  13.182  23.384  0.00  0.00    +0.000 C 
BRANCH  24  26
ATOM     25  C   UNL     1      -2.881  14.588  24.888  0.00  0.00    +0.000 C 
ATOM     26  N   UNL     1      -2.028  14.553  23.695  0.00  0.00    +0.000 NA
ATOM     27  C   UNL     1      -0.866  15.422  23.922  0.00  0.00    +0.000 C 
ENDBRANCH  24  26
ENDBRANCH  23  24
ENDBRANCH  22  23
ENDBRANCH   1  22
TORSDOF 5
ENDMDL
