MODEL 1
REMARK VINA RESULT:      -7.9      0.000      0.000
REMARK  Name = 
REMARK  12 active torsions:
REMARK  status: ('A' for Active; 'I' for Inactive)
REMARK    1  A    between atoms: C_1  and  O_2
REMARK    2  A    between atoms: O_2  and  C_3
REMARK    3  A    between atoms: C_11  and  O_13
REMARK    4  A    between atoms: O_13  and  C_14
REMARK    5  A    between atoms: C_14  and  C_15
REMARK    6  A    between atoms: C_14  and  C_16
REMARK    7  A    between atoms: C_14  and  C_17
REMARK    8  A    between atoms: N_22  and  C_23
REMARK    9  A    between atoms: N_22  and  C_24
REMARK   10  A    between atoms: C_28  and  O_29
REMARK   11  A    between atoms: O_29  and  C_30
REMARK   12  A    between atoms: C_30  and  C_31
REMARK                            x       y       z     vdW  Elec       q    Type
REMARK                         _______ _______ _______ _____ _____    ______ ____
ROOT
ATOM      1  C   UNL     1       0.563  10.042  20.919  0.00  0.00    +0.000 A 
ATOM      2  C   UNL     1      -0.493  10.932  20.728  0.00  0.00    +0.000 A 
ATOM      3  C   UNL     1      -1.199  11.029  19.508  0.00  0.00    +0.000 A 
ATOM      4  C   UNL     1      -2.311  11.847  19.251  0.00  0.00    +0.000 A 
ATOM      5  N   UNL     1      -2.810  12.683  20.233  0.00  0.00    +0.000 N 
ATOM      6  C   UNL     1      -4.254  12.898  20.334  0.00  0.00    +0.000 C 
ATOM      7  C   UNL     1      -4.634  12.844  21.830  0.00  0.00    +0.000 C 
ATOM      8  N   UNL     1      -3.799  13.738  22.650  0.00  0.00    +0.000 N 
ATOM      9  C   UNL     1      -4.380  14.420  23.693  0.00  0.00    +0.000 C 
ATOM     10  O   UNL     1      -5.581  14.358  23.938  0.00  0.00    +0.000 OA
ATOM     11  C   UNL     1      -2.353  13.639  22.441  0.00  0.00    +0.000 C 
ATOM     12  C   UNL     1      -2.003  13.693  20.935  0.00  0.00    +0.000 C 
ATOM     13  N   UNL     1      -2.988  11.746  18.085  0.00  0.00    +0.000 NA
ATOM     14  C   UNL     1      -2.550  10.897  17.138  0.00  0.00    +0.000 A 
ATOM     15  N   UNL     1      -3.225  10.748  15.950  0.00  0.00    +0.000 N 
ATOM     16  C   UNL     1      -4.442  11.479  15.684  0.00  0.00    +0.000 C 
ATOM     17  C   UNL     1      -2.676   9.928  14.885  0.00  0.00    +0.000 C 
ATOM     18  N   UNL     1      -1.470  10.134  17.315  0.00  0.00    +0.000 NA
ATOM     19  C   UNL     1      -0.836  10.184  18.475  0.00  0.00    +0.000 A 
ATOM     20  C   UNL     1       0.224   9.318  18.650  0.00  0.00    +0.000 A 
ATOM     21  C   UNL     1       0.968   9.268  19.833  0.00  0.00    +0.000 A 
ENDROOT
BRANCH   1  23
ATOM     22  C   UNL     1       0.380   9.520  23.224  0.00  0.00    +0.000 C 
ATOM     23  O   UNL     1       1.206   9.912  22.122  0.00  0.00    +0.000 OA
ENDBRANCH   1  23
BRANCH   9  24
ATOM     24  O   UNL     1      -3.499  15.218  24.368  0.00  0.00    +0.000 OA
BRANCH  24  25
ATOM     25  C   UNL     1      -3.596  16.661  24.225  0.00  0.00    +0.000 C 
ATOM     26  C   UNL     1      -4.677  17.241  25.146  0.00  0.00    +0.000 C 
ATOM     27  C   UNL     1      -2.237  17.228  24.669  0.00  0.00    +0.000 C 
ATOM     28  C   UNL     1      -3.805  17.050  22.754  0.00  0.00    +0.000 C 
ENDBRANCH  24  25
ENDBRANCH   9  24
BRANCH  21  29
ATOM     29  O   UNL     1       2.084   8.476  19.980  0.00  0.00    +0.000 OA
BRANCH  29  30
ATOM     30  C   UNL     1       2.365   7.652  18.841  0.00  0.00    +0.000 C 
BRANCH  30  31
ATOM     31  C   UNL     1       2.096   6.189  19.066  0.00  0.00    +0.000 A 
ATOM     32  C   UNL     1       2.062   5.259  18.024  0.00  0.00    +0.000 A 
ATOM     33  C   UNL     1       1.768   3.924  18.292  0.00  0.00    +0.000 A 
ATOM     34  C   UNL     1       1.516   3.508  19.600  0.00  0.00    +0.000 A 
ATOM     35  C   UNL     1       1.576   4.422  20.649  0.00  0.00    +0.000 A 
ATOM     36  C   UNL     1       1.872   5.756  20.384  0.00  0.00    +0.000 A 
ENDBRANCH  30  31
ENDBRANCH  29  30
ENDBRANCH  21  29
TORSDOF 6
ENDMDL
MODEL 2
REMARK VINA RESULT:      -7.7      0.134      1.091
REMARK  Name = 
REMARK  12 active torsions:
REMARK  status: ('A' for Active; 'I' for Inactive)
REMARK    1  A    between atoms: C_1  and  O_2
REMARK    2  A    between atoms: O_2  and  C_3
REMARK    3  A    between atoms: C_11  and  O_13
REMARK    4  A    between atoms: O_13  and  C_14
REMARK    5  A    between atoms: C_14  and  C_15
REMARK    6  A    between atoms: C_14  and  C_16
REMARK    7  A    between atoms: C_14  and  C_17
REMARK    8  A    between atoms: N_22  and  C_23
REMARK    9  A    between atoms: N_22  and  C_24
REMARK   10  A    between atoms: C_28  and  O_29
REMARK   11  A    between atoms: O_29  and  C_30
REMARK   12  A    between atoms: C_30  and  C_31
REMARK                            x       y       z     vdW  Elec       q    Type
REMARK                         _______ _______ _______ _____ _____    ______ ____
ROOT
ATOM      1  C   UNL     1       0.520  10.077  21.055  0.00  0.00    +0.000 A 
ATOM      2  C   UNL     1      -0.525  10.976  20.848  0.00  0.00    +0.000 A 
ATOM      3  C   UNL     1      -1.220  11.069  19.621  0.00  0.00    +0.000 A 
ATOM      4  C   UNL     1      -2.322  11.896  19.347  0.00  0.00    +0.000 A 
ATOM      5  N   UNL     1      -2.821  12.745  20.319  0.00  0.00    +0.000 N 
ATOM      6  C   UNL     1      -4.264  12.974  20.405  0.00  0.00    +0.000 C 
ATOM      7  C   UNL     1      -4.658  12.936  21.897  0.00  0.00    +0.000 C 
ATOM      8  N   UNL     1      -3.821  13.829  22.718  0.00  0.00    +0.000 N 
ATOM      9  C   UNL     1      -4.405  14.524  23.750  0.00  0.00    +0.000 C 
ATOM     10  O   UNL     1      -5.608  14.476  23.985  0.00  0.00    +0.000 OA
ATOM     11  C   UNL     1      -2.374  13.714  22.522  0.00  0.00    +0.000 C 
ATOM     12  C   UNL     1      -2.011  13.753  21.019  0.00  0.00    +0.000 C 
ATOM     13  N   UNL     1      -2.989  11.792  18.176  0.00  0.00    +0.000 NA
ATOM     14  C   UNL     1      -2.551  10.931  17.240  0.00  0.00    +0.000 A 
ATOM     15  N   UNL     1      -3.217  10.779  16.047  0.00  0.00    +0.000 N 
ATOM     16  C   UNL     1      -4.425  11.519  15.765  0.00  0.00    +0.000 C 
ATOM     17  C   UNL     1      -2.667   9.946  14.994  0.00  0.00    +0.000 C 
ATOM     18  N   UNL     1      -1.481  10.159  17.433  0.00  0.00    +0.000 NA
ATOM     19  C   UNL     1      -0.856  10.213  18.598  0.00  0.00    +0.000 A 
ATOM     20  C   UNL     1       0.195   9.338  18.789  0.00  0.00    +0.000 A 
ATOM     21  C   UNL     1       0.927   9.290  19.980  0.00  0.00    +0.000 A 
ENDROOT
BRANCH   1  23
ATOM     22  C   UNL     1       0.339   9.459  23.336  0.00  0.00    +0.000 C 
ATOM     23  O   UNL     1       1.151   9.951  22.265  0.00  0.00    +0.000 OA
ENDBRANCH   1  23
BRANCH   9  24
ATOM     24  O   UNL     1      -3.522  15.320  24.426  0.00  0.00    +0.000 OA
BRANCH  24  25
ATOM     25  C   UNL     1      -3.574  16.760  24.235  0.00  0.00    +0.000 C 
ATOM     26  C   UNL     1      -3.893  17.117  22.778  0.00  0.00    +0.000 C 
ATOM     27  C   UNL     1      -4.729  17.268  25.115  0.00  0.00    +0.000 C 
ATOM     28  C   UNL     1      -2.282  17.423  24.734  0.00  0.00    +0.000 C 
ENDBRANCH  24  25
ENDBRANCH   9  24
BRANCH  21  29
ATOM     29  O   UNL     1       2.034   8.489  20.142  0.00  0.00    +0.000 OA
BRANCH  29  30
ATOM     30  C   UNL     1       2.316   7.651  19.014  0.00  0.00    +0.000 C 
BRANCH  30  31
ATOM     31  C   UNL     1       2.029   6.194  19.250  0.00  0.00    +0.000 A 
ATOM     32  C   UNL     1       1.695   5.683  20.508  0.00  0.00    +0.000 A 
ATOM     33  C   UNL     1       1.480   4.316  20.669  0.00  0.00    +0.000 A 
ATOM     34  C   UNL     1       1.587   3.454  19.578  0.00  0.00    +0.000 A 
ATOM     35  C   UNL     1       1.890   3.957  18.315  0.00  0.00    +0.000 A 
ATOM     36  C   UNL     1       2.103   5.323  18.150  0.00  0.00    +0.000 A 
ENDBRANCH  30  31
ENDBRANCH  29  30
ENDBRANCH  21  29
TORSDOF 6
ENDMDL
MODEL 3
REMARK VINA RESULT:      -7.4      0.869      1.263
REMARK  Name = 
REMARK  12 active torsions:
REMARK  status: ('A' for Active; 'I' for Inactive)
REMARK    1  A    between atoms: C_1  and  O_2
REMARK    2  A    between atoms: O_2  and  C_3
REMARK    3  A    between atoms: C_11  and  O_13
REMARK    4  A    between atoms: O_13  and  C_14
REMARK    5  A    between atoms: C_14  and  C_15
REMARK    6  A    between atoms: C_14  and  C_16
REMARK    7  A    between atoms: C_14  and  C_17
REMARK    8  A    between atoms: N_22  and  C_23
REMARK    9  A    between atoms: N_22  and  C_24
REMARK   10  A    between atoms: C_28  and  O_29
REMARK   11  A    between atoms: O_29  and  C_30
REMARK   12  A    between atoms: C_30  and  C_31
REMARK                            x       y       z     vdW  Elec       q    Type
REMARK                         _______ _______ _______ _____ _____    ______ ____
ROOT
ATOM      1  C   UNL     1       0.685   9.994  20.487  0.00  0.00    +0.000 A 
ATOM      2  C   UNL     1      -0.390  10.878  20.392  0.00  0.00    +0.000 A 
ATOM      3  C   UNL     1      -1.173  11.005  19.223  0.00  0.00    +0.000 A 
ATOM      4  C   UNL     1      -2.307  11.817  19.063  0.00  0.00    +0.000 A 
ATOM      5  N   UNL     1      -2.752  12.615  20.102  0.00  0.00    +0.000 N 
ATOM      6  C   UNL     1      -4.188  12.808  20.300  0.00  0.00    +0.000 C 
ATOM      7  C   UNL     1      -4.473  12.702  21.814  0.00  0.00    +0.000 C 
ATOM      8  N   UNL     1      -3.597  13.580  22.609  0.00  0.00    +0.000 N 
ATOM      9  C   UNL     1      -4.118  14.220  23.708  0.00  0.00    +0.000 C 
ATOM     10  O   UNL     1      -5.299  14.136  24.026  0.00  0.00    +0.000 OA
ATOM     11  C   UNL     1      -2.166  13.505  22.306  0.00  0.00    +0.000 C 
ATOM     12  C   UNL     1      -1.912  13.612  20.784  0.00  0.00    +0.000 C 
ATOM     13  N   UNL     1      -3.056  11.745  17.939  0.00  0.00    +0.000 NA
ATOM     14  C   UNL     1      -2.669  10.932  16.939  0.00  0.00    +0.000 A 
ATOM     15  N   UNL     1      -3.416  10.813  15.792  0.00  0.00    +0.000 N 
ATOM     16  C   UNL     1      -4.656  11.537  15.627  0.00  0.00    +0.000 C 
ATOM     17  C   UNL     1      -2.928  10.035  14.668  0.00  0.00    +0.000 C 
ATOM     18  N   UNL     1      -1.573  10.177  17.023  0.00  0.00    +0.000 NA
ATOM     19  C   UNL     1      -0.867  10.198  18.142  0.00  0.00    +0.000 A 
ATOM     20  C   UNL     1       0.211   9.340  18.221  0.00  0.00    +0.000 A 
ATOM     21  C   UNL     1       1.028   9.261  19.353  0.00  0.00    +0.000 A 
ENDROOT
BRANCH   1  23
ATOM     22  C   UNL     1       0.641   9.474  22.799  0.00  0.00    +0.000 C 
ATOM     23  O   UNL     1       1.404   9.834  21.642  0.00  0.00    +0.000 OA
ENDBRANCH   1  23
BRANCH   9  24
ATOM     24  O   UNL     1      -3.204  15.007  24.352  0.00  0.00    +0.000 OA
BRANCH  24  25
ATOM     25  C   UNL     1      -3.271  16.450  24.191  0.00  0.00    +0.000 C 
ATOM     26  C   UNL     1      -4.181  17.087  25.249  0.00  0.00    +0.000 C 
ATOM     27  C   UNL     1      -1.842  16.973  24.414  0.00  0.00    +0.000 C 
ATOM     28  C   UNL     1      -3.684  16.820  22.759  0.00  0.00    +0.000 C 
ENDBRANCH  24  25
ENDBRANCH   9  24
BRANCH  21  29
ATOM     29  O   UNL     1       2.160   8.478  19.403  0.00  0.00    +0.000 OA
BRANCH  29  30
ATOM     30  C   UNL     1       2.742   8.217  18.120  0.00  0.00    +0.000 C 
BRANCH  30  31
ATOM     31  C   UNL     1       3.053   6.766  17.875  0.00  0.00    +0.000 A 
ATOM     32  C   UNL     1       2.174   5.736  18.219  0.00  0.00    +0.000 A 
ATOM     33  C   UNL     1       2.538   4.409  18.002  0.00  0.00    +0.000 A 
ATOM     34  C   UNL     1       3.775   4.103  17.434  0.00  0.00    +0.000 A 
ATOM     35  C   UNL     1       4.646   5.123  17.061  0.00  0.00    +0.000 A 
ATOM     36  C   UNL     1       4.284   6.450  17.274  0.00  0.00    +0.000 A 
ENDBRANCH  30  31
ENDBRANCH  29  30
ENDBRANCH  21  29
TORSDOF 6
ENDMDL
MODEL 4
REMARK VINA RESULT:      -7.4      0.653      1.143
REMARK  Name = 
REMARK  12 active torsions:
REMARK  status: ('A' for Active; 'I' for Inactive)
REMARK    1  A    between atoms: C_1  and  O_2
REMARK    2  A    between atoms: O_2  and  C_3
REMARK    3  A    between atoms: C_11  and  O_13
REMARK    4  A    between atoms: O_13  and  C_14
REMARK    5  A    between atoms: C_14  and  C_15
REMARK    6  A    between atoms: C_14  and  C_16
REMARK    7  A    between atoms: C_14  and  C_17
REMARK    8  A    between atoms: N_22  and  C_23
REMARK    9  A    between atoms: N_22  and  C_24
REMARK   10  A    between atoms: C_28  and  O_29
REMARK   11  A    between atoms: O_29  and  C_30
REMARK   12  A    between atoms: C_30  and  C_31
REMARK                            x       y       z     vdW  Elec       q    Type
REMARK                         _______ _______ _______ _____ _____    ______ ____
ROOT
ATOM      1  C   UNL     1       0.305  10.288  21.285  0.00  0.00    +0.000 A 
ATOM      2  C   UNL     1      -0.752  11.161  21.031  0.00  0.00    +0.000 A 
ATOM      3  C   UNL     1      -1.415  11.214  19.783  0.00  0.00    +0.000 A 
ATOM      4  C   UNL     1      -2.525  12.011  19.463  0.00  0.00    +0.000 A 
ATOM      5  N   UNL     1      -3.067  12.870  20.401  0.00  0.00    +0.000 N 
ATOM      6  C   UNL     1      -4.516  13.072  20.444  0.00  0.00    +0.000 C 
ATOM      7  C   UNL     1      -4.949  13.058  21.926  0.00  0.00    +0.000 C 
ATOM      8  N   UNL     1      -4.154  13.985  22.748  0.00  0.00    +0.000 N 
ATOM      9  C   UNL     1      -4.779  14.690  23.749  0.00  0.00    +0.000 C 
ATOM     10  O   UNL     1      -5.987  14.623  23.953  0.00  0.00    +0.000 OA
ATOM     11  C   UNL     1      -2.700  13.896  22.594  0.00  0.00    +0.000 C 
ATOM     12  C   UNL     1      -2.297  13.910  21.101  0.00  0.00    +0.000 C 
ATOM     13  N   UNL     1      -3.158  11.869  18.277  0.00  0.00    +0.000 NA
ATOM     14  C   UNL     1      -2.678  10.997  17.372  0.00  0.00    +0.000 A 
ATOM     15  N   UNL     1      -3.308  10.805  16.165  0.00  0.00    +0.000 N 
ATOM     16  C   UNL     1      -4.522  11.514  15.835  0.00  0.00    +0.000 C 
ATOM     17  C   UNL     1      -2.713   9.961  15.146  0.00  0.00    +0.000 C 
ATOM     18  N   UNL     1      -1.598  10.251  17.610  0.00  0.00    +0.000 NA
ATOM     19  C   UNL     1      -1.006  10.343  18.790  0.00  0.00    +0.000 A 
ATOM     20  C   UNL     1       0.056   9.494  19.028  0.00  0.00    +0.000 A 
ATOM     21  C   UNL     1       0.757   9.487  20.239  0.00  0.00    +0.000 A 
ENDROOT
BRANCH   1  23
ATOM     22  C   UNL     1       0.170   9.484  23.511  0.00  0.00    +0.000 C 
ATOM     23  O   UNL     1       0.906  10.201  22.514  0.00  0.00    +0.000 OA
ENDBRANCH   1  23
BRANCH   9  24
ATOM     24  O   UNL     1      -3.930  15.519  24.431  0.00  0.00    +0.000 OA
BRANCH  24  25
ATOM     25  C   UNL     1      -3.989  16.950  24.188  0.00  0.00    +0.000 C 
ATOM     26  C   UNL     1      -4.535  17.256  22.788  0.00  0.00    +0.000 C 
ATOM     27  C   UNL     1      -4.977  17.520  25.221  0.00  0.00    +0.000 C 
ATOM     28  C   UNL     1      -2.622  17.602  24.442  0.00  0.00    +0.000 C 
ENDBRANCH  24  25
ENDBRANCH   9  24
BRANCH  21  29
ATOM     29  O   UNL     1       1.875   8.712  20.448  0.00  0.00    +0.000 OA
BRANCH  29  30
ATOM     30  C   UNL     1       1.584   7.344  20.756  0.00  0.00    +0.000 C 
BRANCH  30  31
ATOM     31  C   UNL     1       2.142   6.362  19.762  0.00  0.00    +0.000 A 
ATOM     32  C   UNL     1       2.877   6.758  18.642  0.00  0.00    +0.000 A 
ATOM     33  C   UNL     1       3.333   5.802  17.736  0.00  0.00    +0.000 A 
ATOM     34  C   UNL     1       3.068   4.449  17.948  0.00  0.00    +0.000 A 
ATOM     35  C   UNL     1       2.363   4.042  19.078  0.00  0.00    +0.000 A 
ATOM     36  C   UNL     1       1.907   4.995  19.985  0.00  0.00    +0.000 A 
ENDBRANCH  30  31
ENDBRANCH  29  30
ENDBRANCH  21  29
TORSDOF 6
ENDMDL
MODEL 5
REMARK VINA RESULT:      -7.4      0.857      1.396
REMARK  Name = 
REMARK  12 active torsions:
REMARK  status: ('A' for Active; 'I' for Inactive)
REMARK    1  A    between atoms: C_1  and  O_2
REMARK    2  A    between atoms: O_2  and  C_3
REMARK    3  A    between atoms: C_11  and  O_13
REMARK    4  A    between atoms: O_13  and  C_14
REMARK    5  A    between atoms: C_14  and  C_15
REMARK    6  A    between atoms: C_14  and  C_16
REMARK    7  A    between atoms: C_14  and  C_17
REMARK    8  A    between atoms: N_22  and  C_23
REMARK    9  A    between atoms: N_22  and  C_24
REMARK   10  A    between atoms: C_28  and  O_29
REMARK   11  A    between atoms: O_29  and  C_30
REMARK   12  A    between atoms: C_30  and  C_31
REMARK                            x       y       z     vdW  Elec       q    Type
REMARK                         _______ _______ _______ _____ _____    ______ ____
ROOT
ATOM      1  C   UNL     1       0.635  10.098  20.527  0.00  0.00    +0.000 A 
ATOM      2  C   UNL     1      -0.444  10.976  20.443  0.00  0.00    +0.000 A 
ATOM      3  C   UNL     1      -1.243  11.095  19.283  0.00  0.00    +0.000 A 
ATOM      4  C   UNL     1      -2.382  11.902  19.135  0.00  0.00    +0.000 A 
ATOM      5  N   UNL     1      -2.818  12.701  20.176  0.00  0.00    +0.000 N 
ATOM      6  C   UNL     1      -4.253  12.889  20.392  0.00  0.00    +0.000 C 
ATOM      7  C   UNL     1      -4.518  12.786  21.909  0.00  0.00    +0.000 C 
ATOM      8  N   UNL     1      -3.636  13.671  22.691  0.00  0.00    +0.000 N 
ATOM      9  C   UNL     1      -4.147  14.312  23.794  0.00  0.00    +0.000 C 
ATOM     10  O   UNL     1      -5.324  14.224  24.127  0.00  0.00    +0.000 OA
ATOM     11  C   UNL     1      -2.209  13.601  22.370  0.00  0.00    +0.000 C 
ATOM     12  C   UNL     1      -1.975  13.704  20.845  0.00  0.00    +0.000 C 
ATOM     13  N   UNL     1      -3.144  11.823  18.020  0.00  0.00    +0.000 NA
ATOM     14  C   UNL     1      -2.767  11.008  17.018  0.00  0.00    +0.000 A 
ATOM     15  N   UNL     1      -3.527  10.882  15.881  0.00  0.00    +0.000 N 
ATOM     16  C   UNL     1      -4.772  11.600  15.729  0.00  0.00    +0.000 C 
ATOM     17  C   UNL     1      -3.049  10.102  14.754  0.00  0.00    +0.000 C 
ATOM     18  N   UNL     1      -1.666  10.258  17.091  0.00  0.00    +0.000 NA
ATOM     19  C   UNL     1      -0.947  10.287  18.201  0.00  0.00    +0.000 A 
ATOM     20  C   UNL     1       0.136   9.434  18.270  0.00  0.00    +0.000 A 
ATOM     21  C   UNL     1       0.968   9.362  19.392  0.00  0.00    +0.000 A 
ENDROOT
BRANCH   1  23
ATOM     22  C   UNL     1       0.671   9.360  22.780  0.00  0.00    +0.000 C 
ATOM     23  O   UNL     1       1.369   9.944  21.674  0.00  0.00    +0.000 OA
ENDBRANCH   1  23
BRANCH   9  24
ATOM     24  O   UNL     1      -3.228  15.106  24.424  0.00  0.00    +0.000 OA
BRANCH  24  25
ATOM     25  C   UNL     1      -3.322  16.549  24.282  0.00  0.00    +0.000 C 
ATOM     26  C   UNL     1      -3.553  16.951  22.820  0.00  0.00    +0.000 C 
ATOM     27  C   UNL     1      -4.553  16.981  25.096  0.00  0.00    +0.000 C 
ATOM     28  C   UNL     1      -2.093  17.237  24.895  0.00  0.00    +0.000 C 
ENDBRANCH  24  25
ENDBRANCH   9  24
BRANCH  21  29
ATOM     29  O   UNL     1       2.104   8.585  19.431  0.00  0.00    +0.000 OA
BRANCH  29  30
ATOM     30  C   UNL     1       2.717   8.390  18.151  0.00  0.00    +0.000 C 
BRANCH  30  31
ATOM     31  C   UNL     1       3.123   6.967  17.879  0.00  0.00    +0.000 A 
ATOM     32  C   UNL     1       4.365   6.626  17.336  0.00  0.00    +0.000 A 
ATOM     33  C   UNL     1       4.666   5.292  17.070  0.00  0.00    +0.000 A 
ATOM     34  C   UNL     1       3.735   4.292  17.353  0.00  0.00    +0.000 A 
ATOM     35  C   UNL     1       2.506   4.618  17.921  0.00  0.00    +0.000 A 
ATOM     36  C   UNL     1       2.204   5.951  18.190  0.00  0.00    +0.000 A 
ENDBRANCH  30  31
ENDBRANCH  29  30
ENDBRANCH  21  29
TORSDOF 6
ENDMDL
MODEL 6
REMARK VINA RESULT:      -7.1      1.026      1.303
REMARK  Name = 
REMARK  12 active torsions:
REMARK  status: ('A' for Active; 'I' for Inactive)
REMARK    1  A    between atoms: C_1  and  O_2
REMARK    2  A    between atoms: O_2  and  C_3
REMARK    3  A    between atoms: C_11  and  O_13
REMARK    4  A    between atoms: O_13  and  C_14
REMARK    5  A    between atoms: C_14  and  C_15
REMARK    6  A    between atoms: C_14  and  C_16
REMARK    7  A    between atoms: C_14  and  C_17
REMARK    8  A    between atoms: N_22  and  C_23
REMARK    9  A    between atoms: N_22  and  C_24
REMARK   10  A    between atoms: C_28  and  O_29
REMARK   11  A    between atoms: O_29  and  C_30
REMARK   12  A    between atoms: C_30  and  C_31
REMARK                            x       y       z     vdW  Elec       q    Type
REMARK                         _______ _______ _______ _____ _____    ______ ____
ROOT
ATOM      1  C   UNL     1       1.118   9.581  20.400  0.00  0.00    +0.000 A 
ATOM      2  C   UNL     1       0.131  10.566  20.436  0.00  0.00    +0.000 A 
ATOM      3  C   UNL     1      -0.765  10.787  19.365  0.00  0.00    +0.000 A 
ATOM      4  C   UNL     1      -1.825  11.707  19.343  0.00  0.00    +0.000 A 
ATOM      5  N   UNL     1      -2.067  12.527  20.431  0.00  0.00    +0.000 N 
ATOM      6  C   UNL     1      -3.446  12.855  20.796  0.00  0.00    +0.000 C 
ATOM      7  C   UNL     1      -3.563  12.751  22.332  0.00  0.00    +0.000 C 
ATOM      8  N   UNL     1      -2.520  13.527  23.024  0.00  0.00    +0.000 N 
ATOM      9  C   UNL     1      -2.846  14.196  24.180  0.00  0.00    +0.000 C 
ATOM     10  O   UNL     1      -3.986  14.221  24.633  0.00  0.00    +0.000 OA
ATOM     11  C   UNL     1      -1.147  13.319  22.557  0.00  0.00    +0.000 C 
ATOM     12  C   UNL     1      -1.062  13.427  21.016  0.00  0.00    +0.000 C 
ATOM     13  N   UNL     1      -2.702  11.727  18.314  0.00  0.00    +0.000 NA
ATOM     14  C   UNL     1      -2.514  10.897  17.271  0.00  0.00    +0.000 A 
ATOM     15  N   UNL     1      -3.397  10.870  16.218  0.00  0.00    +0.000 N 
ATOM     16  C   UNL     1      -4.570  11.712  16.202  0.00  0.00    +0.000 C 
ATOM     17  C   UNL     1      -3.119  10.067  15.041  0.00  0.00    +0.000 C 
ATOM     18  N   UNL     1      -1.495  10.038  17.223  0.00  0.00    +0.000 NA
ATOM     19  C   UNL     1      -0.666   9.973  18.252  0.00  0.00    +0.000 A 
ATOM     20  C   UNL     1       0.325   9.014  18.201  0.00  0.00    +0.000 A 
ATOM     21  C   UNL     1       1.256   8.837  19.230  0.00  0.00    +0.000 A 
ENDROOT
BRANCH   1  23
ATOM     22  C   UNL     1       1.303   9.245  22.739  0.00  0.00    +0.000 C 
ATOM     23  O   UNL     1       1.946   9.333  21.463  0.00  0.00    +0.000 OA
ENDBRANCH   1  23
BRANCH   9  24
ATOM     24  O   UNL     1      -1.791  14.881  24.718  0.00  0.00    +0.000 OA
BRANCH  24  25
ATOM     25  C   UNL     1      -1.644  16.298  24.430  0.00  0.00    +0.000 C 
ATOM     26  C   UNL     1      -2.537  16.723  23.257  0.00  0.00    +0.000 C 
ATOM     27  C   UNL     1      -2.121  17.043  25.688  0.00  0.00    +0.000 C 
ATOM     28  C   UNL     1      -0.168  16.657  24.206  0.00  0.00    +0.000 C 
ENDBRANCH  24  25
ENDBRANCH   9  24
BRANCH  21  29
ATOM     29  O   UNL     1       2.303   7.948  19.144  0.00  0.00    +0.000 OA
BRANCH  29  30
ATOM     30  C   UNL     1       2.245   6.887  20.105  0.00  0.00    +0.000 C 
BRANCH  30  31
ATOM     31  C   UNL     1       1.924   5.543  19.511  0.00  0.00    +0.000 A 
ATOM     32  C   UNL     1       2.184   5.226  18.175  0.00  0.00    +0.000 A 
ATOM     33  C   UNL     1       1.826   3.976  17.675  0.00  0.00    +0.000 A 
ATOM     34  C   UNL     1       1.216   3.035  18.504  0.00  0.00    +0.000 A 
ATOM     35  C   UNL     1       0.979   3.331  19.844  0.00  0.00    +0.000 A 
ATOM     36  C   UNL     1       1.338   4.578  20.348  0.00  0.00    +0.000 A 
ENDBRANCH  30  31
ENDBRANCH  29  30
ENDBRANCH  21  29
TORSDOF 6
ENDMDL
MODEL 7
REMARK VINA RESULT:      -7.0      3.313      4.423
REMARK  Name = 
REMARK  12 active torsions:
REMARK  status: ('A' for Active; 'I' for Inactive)
REMARK    1  A    between atoms: C_1  and  O_2
REMARK    2  A    between atoms: O_2  and  C_3
REMARK    3  A    between atoms: C_11  and  O_13
REMARK    4  A    between atoms: O_13  and  C_14
REMARK    5  A    between atoms: C_14  and  C_15
REMARK    6  A    between atoms: C_14  and  C_16
REMARK    7  A    between atoms: C_14  and  C_17
REMARK    8  A    between atoms: N_22  and  C_23
REMARK    9  A    between atoms: N_22  and  C_24
REMARK   10  A    between atoms: C_28  and  O_29
REMARK   11  A    between atoms: O_29  and  C_30
REMARK   12  A    between atoms: C_30  and  C_31
REMARK                            x       y       z     vdW  Elec       q    Type
REMARK                         _______ _______ _______ _____ _____    ______ ____
ROOT
ATOM      1  C   UNL     1       0.055  10.726  18.964  0.00  0.00    +0.000 A 
ATOM      2  C   UNL     1       0.049  11.963  19.606  0.00  0.00    +0.000 A 
ATOM      3  C   UNL     1       1.116  12.885  19.496  0.00  0.00    +0.000 A 
ATOM      4  C   UNL     1       1.165  14.173  20.053  0.00  0.00    +0.000 A 
ATOM      5  N   UNL     1       0.112  14.651  20.812  0.00  0.00    +0.000 N 
ATOM      6  C   UNL     1      -0.257  16.064  20.726  0.00  0.00    +0.000 C 
ATOM      7  C   UNL     1      -1.798  16.145  20.664  0.00  0.00    +0.000 C 
ATOM      8  N   UNL     1      -2.440  15.384  21.750  0.00  0.00    +0.000 N 
ATOM      9  C   UNL     1      -3.569  15.897  22.343  0.00  0.00    +0.000 C 
ATOM     10  O   UNL     1      -4.036  16.992  22.045  0.00  0.00    +0.000 OA
ATOM     11  C   UNL     1      -1.964  14.013  21.943  0.00  0.00    +0.000 C 
ATOM     12  C   UNL     1      -0.419  13.963  21.999  0.00  0.00    +0.000 C 
ATOM     13  N   UNL     1       2.182  15.014  19.759  0.00  0.00    +0.000 NA
ATOM     14  C   UNL     1       3.189  14.585  18.976  0.00  0.00    +0.000 A 
ATOM     15  N   UNL     1       4.228  15.417  18.635  0.00  0.00    +0.000 N 
ATOM     16  C   UNL     1       4.264  16.790  19.084  0.00  0.00    +0.000 C 
ATOM     17  C   UNL     1       5.371  14.910  17.899  0.00  0.00    +0.000 C 
ATOM     18  N   UNL     1       3.212  13.354  18.463  0.00  0.00    +0.000 NA
ATOM     19  C   UNL     1       2.193  12.544  18.699  0.00  0.00    +0.000 A 
ATOM     20  C   UNL     1       2.215  11.310  18.081  0.00  0.00    +0.000 A 
ATOM     21  C   UNL     1       1.192  10.370  18.241  0.00  0.00    +0.000 A 
ENDROOT
BRANCH   1  23
ATOM     22  C   UNL     1      -2.095  10.155  18.143  0.00  0.00    +0.000 C 
ATOM     23  O   UNL     1      -1.007   9.861  19.026  0.00  0.00    +0.000 OA
ENDBRANCH   1  23
BRANCH   9  24
ATOM     24  O   UNL     1      -4.061  15.098  23.338  0.00  0.00    +0.000 OA
BRANCH  24  25
ATOM     25  C   UNL     1      -5.378  14.502  23.185  0.00  0.00    +0.000 C 
ATOM     26  C   UNL     1      -5.693  14.223  21.710  0.00  0.00    +0.000 C 
ATOM     27  C   UNL     1      -5.328  13.155  23.925  0.00  0.00    +0.000 C 
ATOM     28  C   UNL     1      -6.449  15.368  23.862  0.00  0.00    +0.000 C 
ENDBRANCH  24  25
ENDBRANCH   9  24
BRANCH  21  29
ATOM     29  O   UNL     1       1.252   9.103  17.706  0.00  0.00    +0.000 OA
BRANCH  29  30
ATOM     30  C   UNL     1       2.511   8.449  17.905  0.00  0.00    +0.000 C 
BRANCH  30  31
ATOM     31  C   UNL     1       2.407   7.128  18.617  0.00  0.00    +0.000 A 
ATOM     32  C   UNL     1       2.685   5.909  17.993  0.00  0.00    +0.000 A 
ATOM     33  C   UNL     1       2.531   4.716  18.696  0.00  0.00    +0.000 A 
ATOM     34  C   UNL     1       2.109   4.733  20.025  0.00  0.00    +0.000 A 
ATOM     35  C   UNL     1       1.858   5.944  20.665  0.00  0.00    +0.000 A 
ATOM     36  C   UNL     1       2.013   7.138  19.966  0.00  0.00    +0.000 A 
ENDBRANCH  30  31
ENDBRANCH  29  30
ENDBRANCH  21  29
TORSDOF 6
ENDMDL
MODEL 8
REMARK VINA RESULT:      -7.0      2.953      9.248
REMARK  Name = 
REMARK  12 active torsions:
REMARK  status: ('A' for Active; 'I' for Inactive)
REMARK    1  A    between atoms: C_1  and  O_2
REMARK    2  A    between atoms: O_2  and  C_3
REMARK    3  A    between atoms: C_11  and  O_13
REMARK    4  A    between atoms: O_13  and  C_14
REMARK    5  A    between atoms: C_14  and  C_15
REMARK    6  A    between atoms: C_14  and  C_16
REMARK    7  A    between atoms: C_14  and  C_17
REMARK    8  A    between atoms: N_22  and  C_23
REMARK    9  A    between atoms: N_22  and  C_24
REMARK   10  A    between atoms: C_28  and  O_29
REMARK   11  A    between atoms: O_29  and  C_30
REMARK   12  A    between atoms: C_30  and  C_31
REMARK                            x       y       z     vdW  Elec       q    Type
REMARK                         _______ _______ _______ _____ _____    ______ ____
ROOT
ATOM      1  C   UNL     1      -3.202  10.495  17.227  0.00  0.00    +0.000 A 
ATOM      2  C   UNL     1      -2.034  10.467  17.988  0.00  0.00    +0.000 A 
ATOM      3  C   UNL     1      -1.819  11.327  19.089  0.00  0.00    +0.000 A 
ATOM      4  C   UNL     1      -0.707  11.321  19.946  0.00  0.00    +0.000 A 
ATOM      5  N   UNL     1       0.331  10.429  19.745  0.00  0.00    +0.000 N 
ATOM      6  C   UNL     1       1.017   9.847  20.899  0.00  0.00    +0.000 C 
ATOM      7  C   UNL     1       1.225   8.344  20.614  0.00  0.00    +0.000 C 
ATOM      8  N   UNL     1       1.863   8.107  19.308  0.00  0.00    +0.000 N 
ATOM      9  C   UNL     1       2.788   7.097  19.193  0.00  0.00    +0.000 C 
ATOM     10  O   UNL     1       3.147   6.415  20.148  0.00  0.00    +0.000 OA
ATOM     11  C   UNL     1       1.275   8.813  18.167  0.00  0.00    +0.000 C 
ATOM     12  C   UNL     1       1.077  10.314  18.483  0.00  0.00    +0.000 C 
ATOM     13  N   UNL     1      -0.682  12.100  21.051  0.00  0.00    +0.000 NA
ATOM     14  C   UNL     1      -1.709  12.935  21.293  0.00  0.00    +0.000 A 
ATOM     15  N   UNL     1      -1.733  13.724  22.418  0.00  0.00    +0.000 N 
ATOM     16  C   UNL     1      -0.668  13.669  23.394  0.00  0.00    +0.000 C 
ATOM     17  C   UNL     1      -2.779  14.713  22.607  0.00  0.00    +0.000 C 
ATOM     18  N   UNL     1      -2.767  13.012  20.484  0.00  0.00    +0.000 NA
ATOM     19  C   UNL     1      -2.825  12.212  19.432  0.00  0.00    +0.000 A 
ATOM     20  C   UNL     1      -3.973  12.262  18.667  0.00  0.00    +0.000 A 
ATOM     21  C   UNL     1      -4.160  11.459  17.537  0.00  0.00    +0.000 A 
ENDROOT
BRANCH   1  23
ATOM     22  C   UNL     1      -2.963  10.046  14.912  0.00  0.00    +0.000 C 
ATOM     23  O   UNL     1      -3.429   9.620  16.197  0.00  0.00    +0.000 OA
ENDBRANCH   1  23
BRANCH   9  24
ATOM     24  O   UNL     1       3.308   6.987  17.933  0.00  0.00    +0.000 OA
BRANCH  24  25
ATOM     25  C   UNL     1       4.161   5.855  17.613  0.00  0.00    +0.000 C 
ATOM     26  C   UNL     1       3.337   4.575  17.421  0.00  0.00    +0.000 C 
ATOM     27  C   UNL     1       4.837   6.192  16.274  0.00  0.00    +0.000 C 
ATOM     28  C   UNL     1       5.266   5.690  18.666  0.00  0.00    +0.000 C 
ENDBRANCH  24  25
ENDBRANCH   9  24
BRANCH  21  29
ATOM     29  O   UNL     1      -5.259  11.571  16.716  0.00  0.00    +0.000 OA
BRANCH  29  30
ATOM     30  C   UNL     1      -6.418  12.106  17.367  0.00  0.00    +0.000 C 
BRANCH  30  31
ATOM     31  C   UNL     1      -6.854  11.323  18.575  0.00  0.00    +0.000 A 
ATOM     32  C   UNL     1      -6.782   9.929  18.639  0.00  0.00    +0.000 A 
ATOM     33  C   UNL     1      -7.240   9.260  19.772  0.00  0.00    +0.000 A 
ATOM     34  C   UNL     1      -7.761   9.977  20.849  0.00  0.00    +0.000 A 
ATOM     35  C   UNL     1      -7.810  11.367  20.808  0.00  0.00    +0.000 A 
ATOM     36  C   UNL     1      -7.351  12.039  19.678  0.00  0.00    +0.000 A 
ENDBRANCH  30  31
ENDBRANCH  29  30
ENDBRANCH  21  29
TORSDOF 6
ENDMDL
MODEL 9
REMARK VINA RESULT:      -6.9      3.394      4.576
REMARK  Name = 
REMARK  12 active torsions:
REMARK  status: ('A' for Active; 'I' for Inactive)
REMARK    1  A    between atoms: C_1  and  O_2
REMARK    2  A    between atoms: O_2  and  C_3
REMARK    3  A    between atoms: C_11  and  O_13
REMARK    4  A    between atoms: O_13  and  C_14
REMARK    5  A    between atoms: C_14  and  C_15
REMARK    6  A    between atoms: C_14  and  C_16
REMARK    7  A    between atoms: C_14  and  C_17
REMARK    8  A    between atoms: N_22  and  C_23
REMARK    9  A    between atoms: N_22  and  C_24
REMARK   10  A    between atoms: C_28  and  O_29
REMARK   11  A    between atoms: O_29  and  C_30
REMARK   12  A    between atoms: C_30  and  C_31
REMARK                            x       y       z     vdW  Elec       q    Type
REMARK                         _______ _______ _______ _____ _____    ______ ____
ROOT
ATOM      1  C   UNL     1       0.146  10.652  19.012  0.00  0.00    +0.000 A 
ATOM      2  C   UNL     1       0.108  11.914  19.601  0.00  0.00    +0.000 A 
ATOM      3  C   UNL     1       1.154  12.854  19.461  0.00  0.00    +0.000 A 
ATOM      4  C   UNL     1       1.170  14.165  19.963  0.00  0.00    +0.000 A 
ATOM      5  N   UNL     1       0.101  14.650  20.694  0.00  0.00    +0.000 N 
ATOM      6  C   UNL     1      -0.299  16.050  20.547  0.00  0.00    +0.000 C 
ATOM      7  C   UNL     1      -1.841  16.094  20.471  0.00  0.00    +0.000 C 
ATOM      8  N   UNL     1      -2.474  15.365  21.583  0.00  0.00    +0.000 N 
ATOM      9  C   UNL     1      -3.619  15.876  22.147  0.00  0.00    +0.000 C 
ATOM     10  O   UNL     1      -4.108  16.946  21.799  0.00  0.00    +0.000 OA
ATOM     11  C   UNL     1      -1.969  14.014  21.837  0.00  0.00    +0.000 C 
ATOM     12  C   UNL     1      -0.424  14.001  21.906  0.00  0.00    +0.000 C 
ATOM     13  N   UNL     1       2.170  15.016  19.642  0.00  0.00    +0.000 NA
ATOM     14  C   UNL     1       3.193  14.578  18.884  0.00  0.00    +0.000 A 
ATOM     15  N   UNL     1       4.215  15.419  18.516  0.00  0.00    +0.000 N 
ATOM     16  C   UNL     1       4.218  16.810  18.907  0.00  0.00    +0.000 C 
ATOM     17  C   UNL     1       5.375  14.907  17.809  0.00  0.00    +0.000 C 
ATOM     18  N   UNL     1       3.248  13.327  18.423  0.00  0.00    +0.000 NA
ATOM     19  C   UNL     1       2.245  12.506  18.685  0.00  0.00    +0.000 A 
ATOM     20  C   UNL     1       2.299  11.247  18.120  0.00  0.00    +0.000 A 
ATOM     21  C   UNL     1       1.296  10.292  18.313  0.00  0.00    +0.000 A 
ENDROOT
BRANCH   1  23
ATOM     22  C   UNL     1      -2.034  10.066  18.286  0.00  0.00    +0.000 C 
ATOM     23  O   UNL     1      -0.897   9.767  19.103  0.00  0.00    +0.000 OA
ENDBRANCH   1  23
BRANCH   9  24
ATOM     24  O   UNL     1      -4.101  15.108  23.171  0.00  0.00    +0.000 OA
BRANCH  24  25
ATOM     25  C   UNL     1      -5.415  14.502  23.045  0.00  0.00    +0.000 C 
ATOM     26  C   UNL     1      -5.732  14.158  21.584  0.00  0.00    +0.000 C 
ATOM     27  C   UNL     1      -5.359  13.188  23.843  0.00  0.00    +0.000 C 
ATOM     28  C   UNL     1      -6.490  15.391  23.687  0.00  0.00    +0.000 C 
ENDBRANCH  24  25
ENDBRANCH   9  24
BRANCH  21  29
ATOM     29  O   UNL     1       1.389   9.005  17.831  0.00  0.00    +0.000 OA
BRANCH  29  30
ATOM     30  C   UNL     1       1.956   8.077  18.763  0.00  0.00    +0.000 C 
BRANCH  30  31
ATOM     31  C   UNL     1       2.752   6.975  18.119  0.00  0.00    +0.000 A 
ATOM     32  C   UNL     1       2.384   5.630  18.200  0.00  0.00    +0.000 A 
ATOM     33  C   UNL     1       3.186   4.652  17.615  0.00  0.00    +0.000 A 
ATOM     34  C   UNL     1       4.352   5.011  16.939  0.00  0.00    +0.000 A 
ATOM     35  C   UNL     1       4.712   6.352  16.827  0.00  0.00    +0.000 A 
ATOM     36  C   UNL     1       3.912   7.331  17.408  0.00  0.00    +0.000 A 
ENDBRANCH  30  31
ENDBRANCH  29  30
ENDBRANCH  21  29
TORSDOF 6
ENDMDL
