MODEL 1
REMARK VINA RESULT:      -7.6      0.000      0.000
REMARK  Name = 
REMARK  5 active torsions:
REMARK  status: ('A' for Active; 'I' for Inactive)
REMARK    1  A    between atoms: C_1  and  C_2
REMARK    2  A    between atoms: C_8  and  C_9
REMARK    3  A    between atoms: C_16  and  C_17
REMARK    4  A    between atoms: C_17  and  C_18
REMARK    5  A    between atoms: C_18  and  N_19
REMARK                            x       y       z     vdW  Elec       q    Type
REMARK                         _______ _______ _______ _____ _____    ______ ____
ROOT
ATOM      1  C   UNL     1       4.084   3.974  17.419  0.00  0.00    +0.000 C 
ATOM      2  O   UNL     1       3.514   3.808  16.350  0.00  0.00    +0.000 OA
ATOM      3  N   UNL     1       5.444   4.375  17.535  0.00  0.00    +0.000 N 
ATOM      4  C   UNL     1       6.213   4.316  18.789  0.00  0.00    +0.000 C 
ATOM      5  C   UNL     1       6.656   5.724  19.186  0.00  0.00    +0.000 C 
ATOM      6  C   UNL     1       7.580   6.279  18.114  0.00  0.00    +0.000 C 
ATOM      7  C   UNL     1       6.904   6.226  16.743  0.00  0.00    +0.000 C 
ATOM      8  C   UNL     1       6.286   4.842  16.389  0.00  0.00    +0.000 C 
ENDROOT
BRANCH   1  16
ATOM      9  C   UNL     1       2.884   6.280  19.087  0.00  0.00    +0.000 C 
ATOM     10  C   UNL     1       2.647   4.826  19.386  0.00  0.00    +0.000 A 
ATOM     11  C   UNL     1       1.831   4.515  20.498  0.00  0.00    +0.000 A 
ATOM     12  C   UNL     1       1.597   3.196  20.864  0.00  0.00    +0.000 A 
ATOM     13  F   UNL     1       0.772   2.921  21.881  0.00  0.00    +0.000 F 
ATOM     14  C   UNL     1       2.237   2.162  20.212  0.00  0.00    +0.000 A 
ATOM     15  C   UNL     1       3.111   2.465  19.169  0.00  0.00    +0.000 A 
ATOM     16  C   UNL     1       3.246   3.768  18.662  0.00  0.00    +0.000 A 
ENDBRANCH   1  16
BRANCH   8  17
ATOM     17  C   UNL     1       5.621   4.891  14.996  0.00  0.00    +0.000 C 
BRANCH  17  18
ATOM     18  C   UNL     1       6.097   3.768  14.053  0.00  0.00    +0.000 C 
BRANCH  18  19
ATOM     19  N   UNL     1       5.985   4.099  12.622  0.00  0.00    +0.000 NA
ATOM     20  C   UNL     1       4.991   3.228  11.965  0.00  0.00    +0.000 C 
ATOM     21  C   UNL     1       5.749   1.960  11.620  0.00  0.00    +0.000 C 
ATOM     22  C   UNL     1       7.117   2.480  11.215  0.00  0.00    +0.000 C 
ATOM     23  C   UNL     1       7.241   3.842  11.890  0.00  0.00    +0.000 C 
ENDBRANCH  18  19
ENDBRANCH  17  18
ENDBRANCH   8  17
TORSDOF 4
ENDMDL
MODEL 2
REMARK VINA RESULT:      -7.4      2.473      4.154
REMARK  Name = 
REMARK  5 active torsions:
REMARK  status: ('A' for Active; 'I' for Inactive)
REMARK    1  A    between atoms: C_1  and  C_2
REMARK    2  A    between atoms: C_8  and  C_9
REMARK    3  A    between atoms: C_16  and  C_17
REMARK    4  A    between atoms: C_17  and  C_18
REMARK    5  A    between atoms: C_18  and  N_19
REMARK                            x       y       z     vdW  Elec       q    Type
REMARK                         _______ _______ _______ _____ _____    ______ ____
ROOT
ATOM      1  C   UNL     1       3.585   6.177  17.864  0.00  0.00    +0.000 C 
ATOM      2  O   UNL     1       4.733   6.549  17.669  0.00  0.00    +0.000 OA
ATOM      3  N   UNL     1       3.096   4.892  17.498  0.00  0.00    +0.000 N 
ATOM      4  C   UNL     1       1.670   4.532  17.477  0.00  0.00    +0.000 C 
ATOM      5  C   UNL     1       1.412   3.400  18.472  0.00  0.00    +0.000 C 
ATOM      6  C   UNL     1       2.196   2.170  18.045  0.00  0.00    +0.000 C 
ATOM      7  C   UNL     1       3.680   2.507  17.889  0.00  0.00    +0.000 C 
ATOM      8  C   UNL     1       3.961   3.767  17.020  0.00  0.00    +0.000 C 
ENDROOT
BRANCH   1  16
ATOM      9  C   UNL     1       2.527   5.770  20.739  0.00  0.00    +0.000 C 
ATOM     10  C   UNL     1       2.247   6.996  19.914  0.00  0.00    +0.000 A 
ATOM     11  C   UNL     1       1.451   8.007  20.501  0.00  0.00    +0.000 A 
ATOM     12  C   UNL     1       1.115   9.152  19.790  0.00  0.00    +0.000 A 
ATOM     13  F   UNL     1       0.413  10.124  20.384  0.00  0.00    +0.000 F 
ATOM     14  C   UNL     1       1.465   9.282  18.462  0.00  0.00    +0.000 A 
ATOM     15  C   UNL     1       2.176   8.252  17.851  0.00  0.00    +0.000 A 
ATOM     16  C   UNL     1       2.678   7.157  18.576  0.00  0.00    +0.000 A 
ENDBRANCH   1  16
BRANCH   8  17
ATOM     17  C   UNL     1       5.480   4.030  16.930  0.00  0.00    +0.000 C 
BRANCH  17  18
ATOM     18  C   UNL     1       6.086   3.642  15.566  0.00  0.00    +0.000 C 
BRANCH  18  19
ATOM     19  N   UNL     1       5.882   4.650  14.511  0.00  0.00    +0.000 NA
ATOM     20  C   UNL     1       5.073   4.090  13.410  0.00  0.00    +0.000 C 
ATOM     21  C   UNL     1       6.066   3.357  12.529  0.00  0.00    +0.000 C 
ATOM     22  C   UNL     1       7.292   4.252  12.579  0.00  0.00    +0.000 C 
ATOM     23  C   UNL     1       7.148   5.052  13.870  0.00  0.00    +0.000 C 
ENDBRANCH  18  19
ENDBRANCH  17  18
ENDBRANCH   8  17
TORSDOF 4
ENDMDL
MODEL 3
REMARK VINA RESULT:      -7.3      0.377      1.487
REMARK  Name = 
REMARK  5 active torsions:
REMARK  status: ('A' for Active; 'I' for Inactive)
REMARK    1  A    between atoms: C_1  and  C_2
REMARK    2  A    between atoms: C_8  and  C_9
REMARK    3  A    between atoms: C_16  and  C_17
REMARK    4  A    between atoms: C_17  and  C_18
REMARK    5  A    between atoms: C_18  and  N_19
REMARK                            x       y       z     vdW  Elec       q    Type
REMARK                         _______ _______ _______ _____ _____    ______ ____
ROOT
ATOM      1  C   UNL     1       4.112   3.958  17.297  0.00  0.00    +0.000 C 
ATOM      2  O   UNL     1       3.590   3.838  16.199  0.00  0.00    +0.000 OA
ATOM      3  N   UNL     1       5.464   4.358  17.491  0.00  0.00    +0.000 N 
ATOM      4  C   UNL     1       6.178   4.245  18.773  0.00  0.00    +0.000 C 
ATOM      5  C   UNL     1       6.597   5.635  19.251  0.00  0.00    +0.000 C 
ATOM      6  C   UNL     1       7.565   6.239  18.245  0.00  0.00    +0.000 C 
ATOM      7  C   UNL     1       6.949   6.245  16.845  0.00  0.00    +0.000 C 
ATOM      8  C   UNL     1       6.353   4.876  16.404  0.00  0.00    +0.000 C 
ENDROOT
BRANCH   1  16
ATOM      9  C   UNL     1       3.650   1.159  18.521  0.00  0.00    +0.000 C 
ATOM     10  C   UNL     1       3.063   2.422  19.087  0.00  0.00    +0.000 A 
ATOM     11  C   UNL     1       2.255   2.303  20.241  0.00  0.00    +0.000 A 
ATOM     12  C   UNL     1       1.644   3.418  20.801  0.00  0.00    +0.000 A 
ATOM     13  F   UNL     1       0.933   3.294  21.929  0.00  0.00    +0.000 F 
ATOM     14  C   UNL     1       1.730   4.649  20.186  0.00  0.00    +0.000 A 
ATOM     15  C   UNL     1       2.455   4.759  19.001  0.00  0.00    +0.000 A 
ATOM     16  C   UNL     1       3.222   3.696  18.493  0.00  0.00    +0.000 A 
ENDBRANCH   1  16
BRANCH   8  17
ATOM     17  C   UNL     1       5.748   4.986  14.987  0.00  0.00    +0.000 C 
BRANCH  17  18
ATOM     18  C   UNL     1       6.158   3.824  14.059  0.00  0.00    +0.000 C 
BRANCH  18  19
ATOM     19  N   UNL     1       6.041   4.136  12.623  0.00  0.00    +0.000 NA
ATOM     20  C   UNL     1       5.020   3.279  11.989  0.00  0.00    +0.000 C 
ATOM     21  C   UNL     1       5.744   1.987  11.658  0.00  0.00    +0.000 C 
ATOM     22  C   UNL     1       7.120   2.466  11.233  0.00  0.00    +0.000 C 
ATOM     23  C   UNL     1       7.283   3.836  11.884  0.00  0.00    +0.000 C 
ENDBRANCH  18  19
ENDBRANCH  17  18
ENDBRANCH   8  17
TORSDOF 4
ENDMDL
MODEL 4
REMARK VINA RESULT:      -7.1      1.279      1.479
REMARK  Name = 
REMARK  5 active torsions:
REMARK  status: ('A' for Active; 'I' for Inactive)
REMARK    1  A    between atoms: C_1  and  C_2
REMARK    2  A    between atoms: C_8  and  C_9
REMARK    3  A    between atoms: C_16  and  C_17
REMARK    4  A    between atoms: C_17  and  C_18
REMARK    5  A    between atoms: C_18  and  N_19
REMARK                            x       y       z     vdW  Elec       q    Type
REMARK                         _______ _______ _______ _____ _____    ______ ____
ROOT
ATOM      1  C   UNL     1       4.140   3.284  17.912  0.00  0.00    +0.000 C 
ATOM      2  O   UNL     1       4.241   2.291  17.207  0.00  0.00    +0.000 OA
ATOM      3  N   UNL     1       4.829   4.504  17.663  0.00  0.00    +0.000 N 
ATOM      4  C   UNL     1       4.930   5.602  18.638  0.00  0.00    +0.000 C 
ATOM      5  C   UNL     1       4.266   6.856  18.068  0.00  0.00    +0.000 C 
ATOM      6  C   UNL     1       5.012   7.291  16.816  0.00  0.00    +0.000 C 
ATOM      7  C   UNL     1       5.087   6.141  15.810  0.00  0.00    +0.000 C 
ATOM      8  C   UNL     1       5.595   4.798  16.412  0.00  0.00    +0.000 C 
ENDROOT
BRANCH   1  16
ATOM      9  C   UNL     1       1.233   4.330  17.863  0.00  0.00    +0.000 C 
ATOM     10  C   UNL     1       1.836   3.602  19.032  0.00  0.00    +0.000 A 
ATOM     11  C   UNL     1       1.016   3.398  20.165  0.00  0.00    +0.000 A 
ATOM     12  C   UNL     1       1.510   2.769  21.300  0.00  0.00    +0.000 A 
ATOM     13  F   UNL     1       0.700   2.529  22.338  0.00  0.00    +0.000 F 
ATOM     14  C   UNL     1       2.843   2.421  21.386  0.00  0.00    +0.000 A 
ATOM     15  C   UNL     1       3.679   2.697  20.306  0.00  0.00    +0.000 A 
ATOM     16  C   UNL     1       3.185   3.178  19.081  0.00  0.00    +0.000 A 
ENDBRANCH   1  16
BRANCH   8  17
ATOM     17  C   UNL     1       5.627   3.701  15.326  0.00  0.00    +0.000 C 
BRANCH  17  18
ATOM     18  C   UNL     1       6.759   3.895  14.297  0.00  0.00    +0.000 C 
BRANCH  18  19
ATOM     19  N   UNL     1       6.290   4.294  12.958  0.00  0.00    +0.000 NA
ATOM     20  C   UNL     1       5.194   3.413  12.510  0.00  0.00    +0.000 C 
ATOM     21  C   UNL     1       5.885   2.201  11.915  0.00  0.00    +0.000 C 
ATOM     22  C   UNL     1       7.095   2.804  11.223  0.00  0.00    +0.000 C 
ATOM     23  C   UNL     1       7.336   4.134  11.930  0.00  0.00    +0.000 C 
ENDBRANCH  18  19
ENDBRANCH  17  18
ENDBRANCH   8  17
TORSDOF 4
ENDMDL
MODEL 5
REMARK VINA RESULT:      -7.1      3.196      5.127
REMARK  Name = 
REMARK  5 active torsions:
REMARK  status: ('A' for Active; 'I' for Inactive)
REMARK    1  A    between atoms: C_1  and  C_2
REMARK    2  A    between atoms: C_8  and  C_9
REMARK    3  A    between atoms: C_16  and  C_17
REMARK    4  A    between atoms: C_17  and  C_18
REMARK    5  A    between atoms: C_18  and  N_19
REMARK                            x       y       z     vdW  Elec       q    Type
REMARK                         _______ _______ _______ _____ _____    ______ ____
ROOT
ATOM      1  C   UNL     1       3.040   6.416  18.121  0.00  0.00    +0.000 C 
ATOM      2  O   UNL     1       4.060   6.923  17.679  0.00  0.00    +0.000 OA
ATOM      3  N   UNL     1       2.591   5.110  17.775  0.00  0.00    +0.000 N 
ATOM      4  C   UNL     1       1.246   4.598  18.080  0.00  0.00    +0.000 C 
ATOM      5  C   UNL     1       1.356   3.384  19.003  0.00  0.00    +0.000 C 
ATOM      6  C   UNL     1       2.111   2.277  18.285  0.00  0.00    +0.000 C 
ATOM      7  C   UNL     1       3.468   2.784  17.793  0.00  0.00    +0.000 C 
ATOM      8  C   UNL     1       3.400   4.120  16.998  0.00  0.00    +0.000 C 
ENDROOT
BRANCH   1  16
ATOM      9  C   UNL     1       2.046   9.290  17.579  0.00  0.00    +0.000 C 
ATOM     10  C   UNL     1       1.756   8.535  18.846  0.00  0.00    +0.000 A 
ATOM     11  C   UNL     1       0.989   9.193  19.834  0.00  0.00    +0.000 A 
ATOM     12  C   UNL     1       0.712   8.578  21.048  0.00  0.00    +0.000 A 
ATOM     13  F   UNL     1      -0.068   9.192  21.946  0.00  0.00    +0.000 F 
ATOM     14  C   UNL     1       1.265   7.352  21.357  0.00  0.00    +0.000 A 
ATOM     15  C   UNL     1       2.093   6.734  20.422  0.00  0.00    +0.000 A 
ATOM     16  C   UNL     1       2.263   7.243  19.122  0.00  0.00    +0.000 A 
ENDBRANCH   1  16
BRANCH   8  17
ATOM     17  C   UNL     1       4.815   4.554  16.555  0.00  0.00    +0.000 C 
BRANCH  17  18
ATOM     18  C   UNL     1       5.918   4.137  17.549  0.00  0.00    +0.000 C 
BRANCH  18  19
ATOM     19  N   UNL     1       7.264   4.616  17.185  0.00  0.00    +0.000 NA
ATOM     20  C   UNL     1       8.095   4.788  18.393  0.00  0.00    +0.000 C 
ATOM     21  C   UNL     1       7.740   6.165  18.920  0.00  0.00    +0.000 C 
ATOM     22  C   UNL     1       7.553   6.978  17.651  0.00  0.00    +0.000 C 
ATOM     23  C   UNL     1       7.232   5.955  16.566  0.00  0.00    +0.000 C 
ENDBRANCH  18  19
ENDBRANCH  17  18
ENDBRANCH   8  17
TORSDOF 4
ENDMDL
MODEL 6
REMARK VINA RESULT:      -7.1      3.423      5.546
REMARK  Name = 
REMARK  5 active torsions:
REMARK  status: ('A' for Active; 'I' for Inactive)
REMARK    1  A    between atoms: C_1  and  C_2
REMARK    2  A    between atoms: C_8  and  C_9
REMARK    3  A    between atoms: C_16  and  C_17
REMARK    4  A    between atoms: C_17  and  C_18
REMARK    5  A    between atoms: C_18  and  N_19
REMARK                            x       y       z     vdW  Elec       q    Type
REMARK                         _______ _______ _______ _____ _____    ______ ____
ROOT
ATOM      1  C   UNL     1       2.832   6.480  18.917  0.00  0.00    +0.000 C 
ATOM      2  O   UNL     1       3.790   6.842  18.251  0.00  0.00    +0.000 OA
ATOM      3  N   UNL     1       2.473   5.116  19.110  0.00  0.00    +0.000 N 
ATOM      4  C   UNL     1       1.186   4.678  19.672  0.00  0.00    +0.000 C 
ATOM      5  C   UNL     1       1.429   3.908  20.970  0.00  0.00    +0.000 C 
ATOM      6  C   UNL     1       2.239   2.658  20.666  0.00  0.00    +0.000 C 
ATOM      7  C   UNL     1       3.531   3.022  19.932  0.00  0.00    +0.000 C 
ATOM      8  C   UNL     1       3.326   3.956  18.704  0.00  0.00    +0.000 C 
ENDROOT
BRANCH   1  16
ATOM      9  C   UNL     1       1.897   9.054  17.487  0.00  0.00    +0.000 C 
ATOM     10  C   UNL     1       1.554   8.722  18.913  0.00  0.00    +0.000 A 
ATOM     11  C   UNL     1       0.763   9.653  19.624  0.00  0.00    +0.000 A 
ATOM     12  C   UNL     1       0.436   9.439  20.957  0.00  0.00    +0.000 A 
ATOM     13  F   UNL     1      -0.365  10.301  21.595  0.00  0.00    +0.000 F 
ATOM     14  C   UNL     1       0.961   8.364  21.645  0.00  0.00    +0.000 A 
ATOM     15  C   UNL     1       1.812   7.489  20.974  0.00  0.00    +0.000 A 
ATOM     16  C   UNL     1       2.033   7.575  19.588  0.00  0.00    +0.000 A 
ENDBRANCH   1  16
BRANCH   8  17
ATOM     17  C   UNL     1       4.683   4.273  18.039  0.00  0.00    +0.000 C 
BRANCH  17  18
ATOM     18  C   UNL     1       5.830   4.459  19.053  0.00  0.00    +0.000 C 
BRANCH  18  19
ATOM     19  N   UNL     1       7.168   4.523  18.439  0.00  0.00    +0.000 NA
ATOM     20  C   UNL     1       7.926   5.674  18.970  0.00  0.00    +0.000 C 
ATOM     21  C   UNL     1       7.478   6.857  18.134  0.00  0.00    +0.000 C 
ATOM     22  C   UNL     1       7.319   6.255  16.749  0.00  0.00    +0.000 C 
ATOM     23  C   UNL     1       7.105   4.764  16.985  0.00  0.00    +0.000 C 
ENDBRANCH  18  19
ENDBRANCH  17  18
ENDBRANCH   8  17
TORSDOF 4
ENDMDL
MODEL 7
REMARK VINA RESULT:      -7.0      3.217      5.278
REMARK  Name = 
REMARK  5 active torsions:
REMARK  status: ('A' for Active; 'I' for Inactive)
REMARK    1  A    between atoms: C_1  and  C_2
REMARK    2  A    between atoms: C_8  and  C_9
REMARK    3  A    between atoms: C_16  and  C_17
REMARK    4  A    between atoms: C_17  and  C_18
REMARK    5  A    between atoms: C_18  and  N_19
REMARK                            x       y       z     vdW  Elec       q    Type
REMARK                         _______ _______ _______ _____ _____    ______ ____
ROOT
ATOM      1  C   UNL     1       3.225   6.335  17.689  0.00  0.00    +0.000 C 
ATOM      2  O   UNL     1       4.280   6.772  17.256  0.00  0.00    +0.000 OA
ATOM      3  N   UNL     1       2.766   5.007  17.462  0.00  0.00    +0.000 N 
ATOM      4  C   UNL     1       1.394   4.555  17.740  0.00  0.00    +0.000 C 
ATOM      5  C   UNL     1       1.423   3.449  18.795  0.00  0.00    +0.000 C 
ATOM      6  C   UNL     1       2.191   2.256  18.249  0.00  0.00    +0.000 C 
ATOM      7  C   UNL     1       3.585   2.682  17.786  0.00  0.00    +0.000 C 
ATOM      8  C   UNL     1       3.594   3.924  16.846  0.00  0.00    +0.000 C 
ENDROOT
BRANCH   1  16
ATOM      9  C   UNL     1       2.609   5.854  20.678  0.00  0.00    +0.000 C 
ATOM     10  C   UNL     1       2.185   7.087  19.929  0.00  0.00    +0.000 A 
ATOM     11  C   UNL     1       1.463   8.068  20.646  0.00  0.00    +0.000 A 
ATOM     12  C   UNL     1       1.002   9.217  20.016  0.00  0.00    +0.000 A 
ATOM     13  F   UNL     1       0.374  10.162  20.726  0.00  0.00    +0.000 F 
ATOM     14  C   UNL     1       1.151   9.378  18.654  0.00  0.00    +0.000 A 
ATOM     15  C   UNL     1       1.786   8.375  17.925  0.00  0.00    +0.000 A 
ATOM     16  C   UNL     1       2.412   7.281  18.546  0.00  0.00    +0.000 A 
ENDBRANCH   1  16
BRANCH   8  17
ATOM     17  C   UNL     1       5.042   4.281  16.444  0.00  0.00    +0.000 C 
BRANCH  17  18
ATOM     18  C   UNL     1       6.052   4.121  17.598  0.00  0.00    +0.000 C 
BRANCH  18  19
ATOM     19  N   UNL     1       7.404   4.616  17.283  0.00  0.00    +0.000 NA
ATOM     20  C   UNL     1       8.181   4.822  18.522  0.00  0.00    +0.000 C 
ATOM     21  C   UNL     1       7.781   6.201  19.009  0.00  0.00    +0.000 C 
ATOM     22  C   UNL     1       7.636   6.990  17.720  0.00  0.00    +0.000 C 
ATOM     23  C   UNL     1       7.377   5.944  16.640  0.00  0.00    +0.000 C 
ENDBRANCH  18  19
ENDBRANCH  17  18
ENDBRANCH   8  17
TORSDOF 4
ENDMDL
MODEL 8
REMARK VINA RESULT:      -7.0      3.408      7.576
REMARK  Name = 
REMARK  5 active torsions:
REMARK  status: ('A' for Active; 'I' for Inactive)
REMARK    1  A    between atoms: C_1  and  C_2
REMARK    2  A    between atoms: C_8  and  C_9
REMARK    3  A    between atoms: C_16  and  C_17
REMARK    4  A    between atoms: C_17  and  C_18
REMARK    5  A    between atoms: C_18  and  N_19
REMARK                            x       y       z     vdW  Elec       q    Type
REMARK                         _______ _______ _______ _____ _____    ______ ____
ROOT
ATOM      1  C   UNL     1       4.423   4.976  18.867  0.00  0.00    +0.000 C 
ATOM      2  O   UNL     1       4.581   5.995  19.523  0.00  0.00    +0.000 OA
ATOM      3  N   UNL     1       3.495   3.952  19.208  0.00  0.00    +0.000 N 
ATOM      4  C   UNL     1       3.486   2.616  18.593  0.00  0.00    +0.000 C 
ATOM      5  C   UNL     1       2.157   2.393  17.870  0.00  0.00    +0.000 C 
ATOM      6  C   UNL     1       1.024   2.433  18.883  0.00  0.00    +0.000 C 
ATOM      7  C   UNL     1       1.064   3.739  19.680  0.00  0.00    +0.000 C 
ATOM      8  C   UNL     1       2.459   4.078  20.280  0.00  0.00    +0.000 C 
ENDROOT
BRANCH   1  16
ATOM      9  C   UNL     1       7.507   5.162  18.812  0.00  0.00    +0.000 C 
ATOM     10  C   UNL     1       6.668   4.880  17.596  0.00  0.00    +0.000 A 
ATOM     11  C   UNL     1       7.344   4.697  16.368  0.00  0.00    +0.000 A 
ATOM     12  C   UNL     1       6.638   4.472  15.193  0.00  0.00    +0.000 A 
ATOM     13  F   UNL     1       7.298   4.239  14.052  0.00  0.00    +0.000 F 
ATOM     14  C   UNL     1       5.260   4.524  15.181  0.00  0.00    +0.000 A 
ATOM     15  C   UNL     1       4.587   4.790  16.372  0.00  0.00    +0.000 A 
ATOM     16  C   UNL     1       5.253   4.857  17.607  0.00  0.00    +0.000 A 
ENDBRANCH   1  16
BRANCH   8  17
ATOM     17  C   UNL     1       2.400   5.413  21.055  0.00  0.00    +0.000 C 
BRANCH  17  18
ATOM     18  C   UNL     1       1.450   6.446  20.416  0.00  0.00    +0.000 C 
BRANCH  18  19
ATOM     19  N   UNL     1       1.932   7.837  20.502  0.00  0.00    +0.000 NA
ATOM     20  C   UNL     1       1.317   8.526  21.654  0.00  0.00    +0.000 C 
ATOM     21  C   UNL     1      -0.026   9.014  21.146  0.00  0.00    +0.000 C 
ATOM     22  C   UNL     1       0.279   9.429  19.717  0.00  0.00    +0.000 C 
ATOM     23  C   UNL     1       1.528   8.641  19.333  0.00  0.00    +0.000 C 
ENDBRANCH  18  19
ENDBRANCH  17  18
ENDBRANCH   8  17
TORSDOF 4
ENDMDL
MODEL 9
REMARK VINA RESULT:      -6.9      3.584      5.650
REMARK  Name = 
REMARK  5 active torsions:
REMARK  status: ('A' for Active; 'I' for Inactive)
REMARK    1  A    between atoms: C_1  and  C_2
REMARK    2  A    between atoms: C_8  and  C_9
REMARK    3  A    between atoms: C_16  and  C_17
REMARK    4  A    between atoms: C_17  and  C_18
REMARK    5  A    between atoms: C_18  and  N_19
REMARK                            x       y       z     vdW  Elec       q    Type
REMARK                         _______ _______ _______ _____ _____    ______ ____
ROOT
ATOM      1  C   UNL     1       2.097   8.136  19.080  0.00  0.00    +0.000 C 
ATOM      2  O   UNL     1       2.652   8.859  18.265  0.00  0.00    +0.000 OA
ATOM      3  N   UNL     1       2.243   6.721  19.110  0.00  0.00    +0.000 N 
ATOM      4  C   UNL     1       1.383   5.824  19.898  0.00  0.00    +0.000 C 
ATOM      5  C   UNL     1       2.229   5.075  20.927  0.00  0.00    +0.000 C 
ATOM      6  C   UNL     1       3.245   4.207  20.203  0.00  0.00    +0.000 C 
ATOM      7  C   UNL     1       4.080   5.051  19.238  0.00  0.00    +0.000 C 
ATOM      8  C   UNL     1       3.240   5.960  18.294  0.00  0.00    +0.000 C 
ENDROOT
BRANCH   1  16
ATOM      9  C   UNL     1      -0.185  10.108  18.407  0.00  0.00    +0.000 C 
ATOM     10  C   UNL     1       0.165   9.686  19.807  0.00  0.00    +0.000 A 
ATOM     11  C   UNL     1      -0.600  10.234  20.862  0.00  0.00    +0.000 A 
ATOM     12  C   UNL     1      -0.314   9.925  22.186  0.00  0.00    +0.000 A 
ATOM     13  F   UNL     1      -1.088  10.405  23.166  0.00  0.00    +0.000 F 
ATOM     14  C   UNL     1       0.787   9.157  22.505  0.00  0.00    +0.000 A 
ATOM     15  C   UNL     1       1.596   8.683  21.475  0.00  0.00    +0.000 A 
ATOM     16  C   UNL     1       1.249   8.832  20.122  0.00  0.00    +0.000 A 
ENDBRANCH   1  16
BRANCH   8  17
ATOM     17  C   UNL     1       4.169   6.776  17.368  0.00  0.00    +0.000 C 
BRANCH  17  18
ATOM     18  C   UNL     1       4.957   5.901  16.372  0.00  0.00    +0.000 C 
BRANCH  18  19
ATOM     19  N   UNL     1       6.378   6.272  16.244  0.00  0.00    +0.000 NA
ATOM     20  C   UNL     1       7.221   5.065  16.148  0.00  0.00    +0.000 C 
ATOM     21  C   UNL     1       7.455   4.636  17.584  0.00  0.00    +0.000 C 
ATOM     22  C   UNL     1       7.598   5.959  18.316  0.00  0.00    +0.000 C 
ATOM     23  C   UNL     1       6.881   6.979  17.437  0.00  0.00    +0.000 C 
ENDBRANCH  18  19
ENDBRANCH  17  18
ENDBRANCH   8  17
TORSDOF 4
ENDMDL
