MODEL 1
REMARK VINA RESULT:      -7.0      0.000      0.000
REMARK  Name = 
REMARK  8 active torsions:
REMARK  status: ('A' for Active; 'I' for Inactive)
REMARK    1  A    between atoms: C_1  and  N_2
REMARK    2  A    between atoms: C_4  and  C_5
REMARK    3  A    between atoms: C_5  and  C_6
REMARK    4  A    between atoms: C_6  and  N_7
REMARK    5  A    between atoms: C_6  and  C_8
REMARK    6  A    between atoms: C_8  and  O_10
REMARK    7  A    between atoms: O_10  and  C_11
REMARK    8  A    between atoms: C_11  and  C_12
REMARK                            x       y       z     vdW  Elec       q    Type
REMARK                         _______ _______ _______ _____ _____    ______ ____
ROOT
ATOM      1  C   UNL     1       2.493   7.622  19.065  0.00  0.00    +0.000 C 
ENDROOT
BRANCH   1   2
ATOM      2  N   UNL     1       1.675   8.678  18.392  0.00  0.00    +0.000 NA
ATOM      3  H   UNL     1       1.231   8.238  17.572  0.00  0.00    +0.000 HD
ATOM      4  H   UNL     1       2.330   9.356  17.996  0.00  0.00    +0.000 HD
ENDBRANCH   1   2
BRANCH   1   5
ATOM      5  C   UNL     1       1.675   7.177  20.318  0.00  0.00    +0.000 C 
ATOM      6  O   UNL     1       1.469   7.919  21.268  0.00  0.00    +0.000 OA
BRANCH   5   7
ATOM      7  O   UNL     1       1.356   5.849  20.292  0.00  0.00    +0.000 OA
BRANCH   7   8
ATOM      8  C   UNL     1       2.127   4.989  21.149  0.00  0.00    +0.000 C 
BRANCH   8   9
ATOM      9  C   UNL     1       1.640   3.525  21.130  0.00  0.00    +0.000 C 
ATOM     10  C   UNL     1       2.764   2.504  21.384  0.00  0.00    +0.000 C 
ATOM     11  C   UNL     1       3.705   2.365  20.187  0.00  0.00    +0.000 C 
ATOM     12  N   UNL     1       2.975   1.989  18.975  0.00  0.00    +0.000 NA
ATOM     13  C   UNL     1       1.950   2.975  18.643  0.00  0.00    +0.000 C 
ATOM     14  C   UNL     1       0.956   3.182  19.789  0.00  0.00    +0.000 C 
ATOM     15  H   UNL     1       2.534   1.079  19.121  0.00  0.00    +0.000 HD
ENDBRANCH   8   9
ENDBRANCH   7   8
ENDBRANCH   5   7
ENDBRANCH   1   5
BRANCH   1  16
ATOM     16  C   UNL     1       2.816   6.452  18.126  0.00  0.00    +0.000 C 
BRANCH  16  20
ATOM     17  C   UNL     1       7.467   5.610  19.577  0.00  0.00    +0.000 C 
ATOM     18  N   UNL     1       6.277   5.420  18.777  0.00  0.00    +0.000 N 
ATOM     19  C   UNL     1       5.010   5.735  19.169  0.00  0.00    +0.000 A 
ATOM     20  C   UNL     1       4.197   5.825  18.045  0.00  0.00    +0.000 A 
ATOM     21  C   UNL     1       4.993   5.308  16.954  0.00  0.00    +0.000 A 
ATOM     22  C   UNL     1       4.778   5.032  15.586  0.00  0.00    +0.000 A 
ATOM     23  C   UNL     1       5.827   4.557  14.780  0.00  0.00    +0.000 A 
ATOM     24  C   UNL     1       7.097   4.355  15.305  0.00  0.00    +0.000 A 
ATOM     25  C   UNL     1       7.344   4.597  16.653  0.00  0.00    +0.000 A 
ATOM     26  C   UNL     1       6.285   5.065  17.451  0.00  0.00    +0.000 A 
ENDBRANCH  16  20
ENDBRANCH   1  16
TORSDOF 7
ENDMDL
MODEL 2
REMARK VINA RESULT:      -6.9      4.540      7.664
REMARK  Name = 
REMARK  8 active torsions:
REMARK  status: ('A' for Active; 'I' for Inactive)
REMARK    1  A    between atoms: C_1  and  N_2
REMARK    2  A    between atoms: C_4  and  C_5
REMARK    3  A    between atoms: C_5  and  C_6
REMARK    4  A    between atoms: C_6  and  N_7
REMARK    5  A    between atoms: C_6  and  C_8
REMARK    6  A    between atoms: C_8  and  O_10
REMARK    7  A    between atoms: O_10  and  C_11
REMARK    8  A    between atoms: C_11  and  C_12
REMARK                            x       y       z     vdW  Elec       q    Type
REMARK                         _______ _______ _______ _____ _____    ______ ____
ROOT
ATOM      1  C   UNL     1       1.064   9.290  18.407  0.00  0.00    +0.000 C 
ENDROOT
BRANCH   1   2
ATOM      2  N   UNL     1       2.015  10.073  17.560  0.00  0.00    +0.000 NA
ATOM      3  H   UNL     1       1.911  11.064  17.827  0.00  0.00    +0.000 HD
ATOM      4  H   UNL     1       1.667  10.028  16.600  0.00  0.00    +0.000 HD
ENDBRANCH   1   2
BRANCH   1   5
ATOM      5  C   UNL     1       1.920   8.194  19.116  0.00  0.00    +0.000 C 
ATOM      6  O   UNL     1       1.859   7.987  20.320  0.00  0.00    +0.000 OA
BRANCH   5   7
ATOM      7  O   UNL     1       2.828   7.613  18.278  0.00  0.00    +0.000 OA
BRANCH   7   8
ATOM      8  C   UNL     1       2.817   6.176  18.219  0.00  0.00    +0.000 C 
BRANCH   8   9
ATOM      9  C   UNL     1       3.959   5.599  17.356  0.00  0.00    +0.000 C 
ATOM     10  C   UNL     1       3.878   4.072  17.179  0.00  0.00    +0.000 C 
ATOM     11  C   UNL     1       4.257   3.318  18.454  0.00  0.00    +0.000 C 
ATOM     12  N   UNL     1       5.601   3.681  18.909  0.00  0.00    +0.000 NA
ATOM     13  C   UNL     1       5.703   5.115  19.174  0.00  0.00    +0.000 C 
ATOM     14  C   UNL     1       5.340   5.955  17.948  0.00  0.00    +0.000 C 
ATOM     15  H   UNL     1       6.278   3.421  18.191  0.00  0.00    +0.000 HD
ENDBRANCH   8   9
ENDBRANCH   7   8
ENDBRANCH   5   7
ENDBRANCH   1   5
BRANCH   1  16
ATOM     16  C   UNL     1       0.305  10.179  19.401  0.00  0.00    +0.000 C 
BRANCH  16  20
ATOM     17  C   UNL     1      -3.793  12.793  20.304  0.00  0.00    +0.000 C 
ATOM     18  N   UNL     1      -2.796  12.140  19.485  0.00  0.00    +0.000 N 
ATOM     19  C   UNL     1      -1.515  11.878  19.871  0.00  0.00    +0.000 A 
ATOM     20  C   UNL     1      -0.984  10.897  19.040  0.00  0.00    +0.000 A 
ATOM     21  C   UNL     1      -1.941  10.745  17.966  0.00  0.00    +0.000 A 
ATOM     22  C   UNL     1      -2.004  10.008  16.763  0.00  0.00    +0.000 A 
ATOM     23  C   UNL     1      -3.148  10.069  15.949  0.00  0.00    +0.000 A 
ATOM     24  C   UNL     1      -4.241  10.846  16.308  0.00  0.00    +0.000 A 
ATOM     25  C   UNL     1      -4.210  11.602  17.476  0.00  0.00    +0.000 A 
ATOM     26  C   UNL     1      -3.058  11.539  18.279  0.00  0.00    +0.000 A 
ENDBRANCH  16  20
ENDBRANCH   1  16
TORSDOF 7
ENDMDL
MODEL 3
REMARK VINA RESULT:      -6.7      2.240      6.399
REMARK  Name = 
REMARK  8 active torsions:
REMARK  status: ('A' for Active; 'I' for Inactive)
REMARK    1  A    between atoms: C_1  and  N_2
REMARK    2  A    between atoms: C_4  and  C_5
REMARK    3  A    between atoms: C_5  and  C_6
REMARK    4  A    between atoms: C_6  and  N_7
REMARK    5  A    between atoms: C_6  and  C_8
REMARK    6  A    between atoms: C_8  and  O_10
REMARK    7  A    between atoms: O_10  and  C_11
REMARK    8  A    between atoms: C_11  and  C_12
REMARK                            x       y       z     vdW  Elec       q    Type
REMARK                         _______ _______ _______ _____ _____    ______ ____
ROOT
ATOM      1  C   UNL     1       2.417   4.736  19.581  0.00  0.00    +0.000 C 
ENDROOT
BRANCH   1   2
ATOM      2  N   UNL     1       1.138   4.565  20.335  0.00  0.00    +0.000 NA
ATOM      3  H   UNL     1       0.409   4.332  19.643  0.00  0.00    +0.000 HD
ATOM      4  H   UNL     1       0.872   5.487  20.688  0.00  0.00    +0.000 HD
ENDBRANCH   1   2
BRANCH   1   5
ATOM      5  C   UNL     1       2.084   4.421  18.089  0.00  0.00    +0.000 C 
ATOM      6  O   UNL     1       1.162   3.687  17.761  0.00  0.00    +0.000 OA
BRANCH   5   7
ATOM      7  O   UNL     1       3.012   4.928  17.224  0.00  0.00    +0.000 OA
BRANCH   7   8
ATOM      8  C   UNL     1       4.182   4.123  16.999  0.00  0.00    +0.000 C 
BRANCH   8   9
ATOM      9  C   UNL     1       5.104   4.693  15.900  0.00  0.00    +0.000 C 
ATOM     10  C   UNL     1       6.522   4.095  15.922  0.00  0.00    +0.000 C 
ATOM     11  C   UNL     1       7.353   4.610  17.097  0.00  0.00    +0.000 C 
ATOM     12  N   UNL     1       7.445   6.071  17.086  0.00  0.00    +0.000 NA
ATOM     13  C   UNL     1       6.122   6.688  17.151  0.00  0.00    +0.000 C 
ATOM     14  C   UNL     1       5.215   6.229  16.007  0.00  0.00    +0.000 C 
ATOM     15  H   UNL     1       7.915   6.369  16.229  0.00  0.00    +0.000 HD
ENDBRANCH   8   9
ENDBRANCH   7   8
ENDBRANCH   5   7
ENDBRANCH   1   5
BRANCH   1  16
ATOM     16  C   UNL     1       3.017   6.137  19.766  0.00  0.00    +0.000 C 
BRANCH  16  20
ATOM     17  C   UNL     1       1.979  10.556  17.808  0.00  0.00    +0.000 C 
ATOM     18  N   UNL     1       1.739   9.377  18.610  0.00  0.00    +0.000 N 
ATOM     19  C   UNL     1       2.324   8.162  18.411  0.00  0.00    +0.000 A 
ATOM     20  C   UNL     1       2.207   7.407  19.573  0.00  0.00    +0.000 A 
ATOM     21  C   UNL     1       1.300   8.148  20.421  0.00  0.00    +0.000 A 
ATOM     22  C   UNL     1       0.684   7.935  21.674  0.00  0.00    +0.000 A 
ATOM     23  C   UNL     1      -0.139   8.924  22.242  0.00  0.00    +0.000 A 
ATOM     24  C   UNL     1      -0.360  10.131  21.592  0.00  0.00    +0.000 A 
ATOM     25  C   UNL     1       0.214  10.371  20.346  0.00  0.00    +0.000 A 
ATOM     26  C   UNL     1       1.029   9.371  19.785  0.00  0.00    +0.000 A 
ENDBRANCH  16  20
ENDBRANCH   1  16
TORSDOF 7
ENDMDL
MODEL 4
REMARK VINA RESULT:      -6.7      2.069      5.693
REMARK  Name = 
REMARK  8 active torsions:
REMARK  status: ('A' for Active; 'I' for Inactive)
REMARK    1  A    between atoms: C_1  and  N_2
REMARK    2  A    between atoms: C_4  and  C_5
REMARK    3  A    between atoms: C_5  and  C_6
REMARK    4  A    between atoms: C_6  and  N_7
REMARK    5  A    between atoms: C_6  and  C_8
REMARK    6  A    between atoms: C_8  and  O_10
REMARK    7  A    between atoms: O_10  and  C_11
REMARK    8  A    between atoms: C_11  and  C_12
REMARK                            x       y       z     vdW  Elec       q    Type
REMARK                         _______ _______ _______ _____ _____    ______ ____
ROOT
ATOM      1  C   UNL     1       1.979   3.839  19.758  0.00  0.00    +0.000 C 
ENDROOT
BRANCH   1   2
ATOM      2  N   UNL     1       0.505   3.905  19.998  0.00  0.00    +0.000 NA
ATOM      3  H   UNL     1       0.349   4.626  20.720  0.00  0.00    +0.000 HD
ATOM      4  H   UNL     1       0.235   3.028  20.449  0.00  0.00    +0.000 HD
ENDBRANCH   1   2
BRANCH   1   5
ATOM      5  C   UNL     1       2.161   3.770  18.209  0.00  0.00    +0.000 C 
ATOM      6  O   UNL     1       1.320   4.191  17.428  0.00  0.00    +0.000 OA
BRANCH   5   7
ATOM      7  O   UNL     1       3.274   3.069  17.842  0.00  0.00    +0.000 OA
BRANCH   7   8
ATOM      8  C   UNL     1       4.074   3.642  16.793  0.00  0.00    +0.000 C 
BRANCH   8   9
ATOM      9  C   UNL     1       4.608   5.047  17.141  0.00  0.00    +0.000 C 
ATOM     10  C   UNL     1       5.128   5.823  15.918  0.00  0.00    +0.000 C 
ATOM     11  C   UNL     1       6.461   5.279  15.406  0.00  0.00    +0.000 C 
ATOM     12  N   UNL     1       7.482   5.293  16.457  0.00  0.00    +0.000 NA
ATOM     13  C   UNL     1       7.069   4.495  17.609  0.00  0.00    +0.000 C 
ATOM     14  C   UNL     1       5.737   4.970  18.192  0.00  0.00    +0.000 C 
ATOM     15  H   UNL     1       7.642   6.257  16.753  0.00  0.00    +0.000 HD
ENDBRANCH   8   9
ENDBRANCH   7   8
ENDBRANCH   5   7
ENDBRANCH   1   5
BRANCH   1  16
ATOM     16  C   UNL     1       2.724   5.024  20.387  0.00  0.00    +0.000 C 
BRANCH  16  20
ATOM     17  C   UNL     1      -0.355   8.657  21.715  0.00  0.00    +0.000 C 
ATOM     18  N   UNL     1       0.792   8.071  21.058  0.00  0.00    +0.000 N 
ATOM     19  C   UNL     1       1.408   6.916  21.438  0.00  0.00    +0.000 A 
ATOM     20  C   UNL     1       2.169   6.438  20.377  0.00  0.00    +0.000 A 
ATOM     21  C   UNL     1       2.171   7.502  19.398  0.00  0.00    +0.000 A 
ATOM     22  C   UNL     1       2.798   7.730  18.153  0.00  0.00    +0.000 A 
ATOM     23  C   UNL     1       2.532   8.902  17.424  0.00  0.00    +0.000 A 
ATOM     24  C   UNL     1       1.645   9.857  17.905  0.00  0.00    +0.000 A 
ATOM     25  C   UNL     1       1.022   9.678  19.137  0.00  0.00    +0.000 A 
ATOM     26  C   UNL     1       1.302   8.505  19.860  0.00  0.00    +0.000 A 
ENDBRANCH  16  20
ENDBRANCH   1  16
TORSDOF 7
ENDMDL
MODEL 5
REMARK VINA RESULT:      -6.7      4.252      7.756
REMARK  Name = 
REMARK  8 active torsions:
REMARK  status: ('A' for Active; 'I' for Inactive)
REMARK    1  A    between atoms: C_1  and  N_2
REMARK    2  A    between atoms: C_4  and  C_5
REMARK    3  A    between atoms: C_5  and  C_6
REMARK    4  A    between atoms: C_6  and  N_7
REMARK    5  A    between atoms: C_6  and  C_8
REMARK    6  A    between atoms: C_8  and  O_10
REMARK    7  A    between atoms: O_10  and  C_11
REMARK    8  A    between atoms: C_11  and  C_12
REMARK                            x       y       z     vdW  Elec       q    Type
REMARK                         _______ _______ _______ _____ _____    ______ ____
ROOT
ATOM      1  C   UNL     1       6.995   6.082  18.643  0.00  0.00    +0.000 C 
ENDROOT
BRANCH   1   2
ATOM      2  N   UNL     1       8.002   4.997  18.849  0.00  0.00    +0.000 NA
ATOM      3  H   UNL     1       7.528   4.238  19.362  0.00  0.00    +0.000 HD
ATOM      4  H   UNL     1       8.699   5.356  19.506  0.00  0.00    +0.000 HD
ENDBRANCH   1   2
BRANCH   1   5
ATOM      5  C   UNL     1       7.727   7.203  17.839  0.00  0.00    +0.000 C 
ATOM      6  O   UNL     1       7.737   7.237  16.617  0.00  0.00    +0.000 OA
BRANCH   5   7
ATOM      7  O   UNL     1       8.458   8.032  18.641  0.00  0.00    +0.000 OA
BRANCH   7   8
ATOM      8  C   UNL     1       8.441   9.430  18.301  0.00  0.00    +0.000 C 
BRANCH   8   9
ATOM      9  C   UNL     1       9.709  10.179  18.762  0.00  0.00    +0.000 C 
ATOM     10  C   UNL     1       9.626  10.685  20.213  0.00  0.00    +0.000 C 
ATOM     11  C   UNL     1       8.684  11.880  20.360  0.00  0.00    +0.000 C 
ATOM     12  N   UNL     1       9.084  12.984  19.485  0.00  0.00    +0.000 NA
ATOM     13  C   UNL     1       9.095  12.575  18.082  0.00  0.00    +0.000 C 
ATOM     14  C   UNL     1      10.016  11.377  17.838  0.00  0.00    +0.000 C 
ATOM     15  H   UNL     1      10.018  13.300  19.752  0.00  0.00    +0.000 HD
ENDBRANCH   8   9
ENDBRANCH   7   8
ENDBRANCH   5   7
ENDBRANCH   1   5
BRANCH   1  16
ATOM     16  C   UNL     1       5.733   5.576  17.932  0.00  0.00    +0.000 C 
BRANCH  16  20
ATOM     17  C   UNL     1       1.801   7.826  19.912  0.00  0.00    +0.000 C 
ATOM     18  N   UNL     1       2.565   6.713  19.393  0.00  0.00    +0.000 N 
ATOM     19  C   UNL     1       3.602   6.815  18.515  0.00  0.00    +0.000 A 
ATOM     20  C   UNL     1       4.354   5.646  18.563  0.00  0.00    +0.000 A 
ATOM     21  C   UNL     1       3.572   4.721  19.354  0.00  0.00    +0.000 A 
ATOM     22  C   UNL     1       3.682   3.363  19.726  0.00  0.00    +0.000 A 
ATOM     23  C   UNL     1       2.725   2.775  20.570  0.00  0.00    +0.000 A 
ATOM     24  C   UNL     1       1.657   3.512  21.063  0.00  0.00    +0.000 A 
ATOM     25  C   UNL     1       1.502   4.848  20.704  0.00  0.00    +0.000 A 
ATOM     26  C   UNL     1       2.462   5.423  19.853  0.00  0.00    +0.000 A 
ENDBRANCH  16  20
ENDBRANCH   1  16
TORSDOF 7
ENDMDL
MODEL 6
REMARK VINA RESULT:      -6.6      3.684      7.059
REMARK  Name = 
REMARK  8 active torsions:
REMARK  status: ('A' for Active; 'I' for Inactive)
REMARK    1  A    between atoms: C_1  and  N_2
REMARK    2  A    between atoms: C_4  and  C_5
REMARK    3  A    between atoms: C_5  and  C_6
REMARK    4  A    between atoms: C_6  and  N_7
REMARK    5  A    between atoms: C_6  and  C_8
REMARK    6  A    between atoms: C_8  and  O_10
REMARK    7  A    between atoms: O_10  and  C_11
REMARK    8  A    between atoms: C_11  and  C_12
REMARK                            x       y       z     vdW  Elec       q    Type
REMARK                         _______ _______ _______ _____ _____    ______ ____
ROOT
ATOM      1  C   UNL     1       5.511   5.240  16.181  0.00  0.00    +0.000 C 
ENDROOT
BRANCH   1   2
ATOM      2  N   UNL     1       5.416   6.621  15.618  0.00  0.00    +0.000 NA
ATOM      3  H   UNL     1       6.080   7.208  16.147  0.00  0.00    +0.000 HD
ATOM      4  H   UNL     1       4.495   6.985  15.871  0.00  0.00    +0.000 HD
ENDBRANCH   1   2
BRANCH   1   5
ATOM      5  C   UNL     1       6.886   4.673  15.705  0.00  0.00    +0.000 C 
ATOM      6  O   UNL     1       7.842   4.548  16.457  0.00  0.00    +0.000 OA
BRANCH   5   7
ATOM      7  O   UNL     1       6.935   4.481  14.354  0.00  0.00    +0.000 OA
BRANCH   7   8
ATOM      8  C   UNL     1       5.855   3.728  13.775  0.00  0.00    +0.000 C 
BRANCH   8   9
ATOM      9  C   UNL     1       5.755   3.898  12.244  0.00  0.00    +0.000 C 
ATOM     10  C   UNL     1       4.884   2.824  11.567  0.00  0.00    +0.000 C 
ATOM     11  C   UNL     1       5.571   1.460  11.523  0.00  0.00    +0.000 C 
ATOM     12  N   UNL     1       6.864   1.536  10.838  0.00  0.00    +0.000 NA
ATOM     13  C   UNL     1       7.760   2.482  11.498  0.00  0.00    +0.000 C 
ATOM     14  C   UNL     1       7.153   3.884  11.589  0.00  0.00    +0.000 C 
ATOM     15  H   UNL     1       6.713   1.830   9.872  0.00  0.00    +0.000 HD
ENDBRANCH   8   9
ENDBRANCH   7   8
ENDBRANCH   5   7
ENDBRANCH   1   5
BRANCH   1  16
ATOM     16  C   UNL     1       5.364   5.224  17.709  0.00  0.00    +0.000 C 
BRANCH  16  20
ATOM     17  C   UNL     1       1.821   7.577  20.230  0.00  0.00    +0.000 C 
ATOM     18  N   UNL     1       2.413   6.485  19.489  0.00  0.00    +0.000 N 
ATOM     19  C   UNL     1       3.436   6.607  18.597  0.00  0.00    +0.000 A 
ATOM     20  C   UNL     1       4.021   5.360  18.404  0.00  0.00    +0.000 A 
ATOM     21  C   UNL     1       3.136   4.418  19.054  0.00  0.00    +0.000 A 
ATOM     22  C   UNL     1       3.067   3.013  19.176  0.00  0.00    +0.000 A 
ATOM     23  C   UNL     1       2.056   2.412  19.946  0.00  0.00    +0.000 A 
ATOM     24  C   UNL     1       1.109   3.182  20.609  0.00  0.00    +0.000 A 
ATOM     25  C   UNL     1       1.132   4.570  20.498  0.00  0.00    +0.000 A 
ATOM     26  C   UNL     1       2.144   5.158  19.719  0.00  0.00    +0.000 A 
ENDBRANCH  16  20
ENDBRANCH   1  16
TORSDOF 7
ENDMDL
MODEL 7
REMARK VINA RESULT:      -6.6      4.272      7.529
REMARK  Name = 
REMARK  8 active torsions:
REMARK  status: ('A' for Active; 'I' for Inactive)
REMARK    1  A    between atoms: C_1  and  N_2
REMARK    2  A    between atoms: C_4  and  C_5
REMARK    3  A    between atoms: C_5  and  C_6
REMARK    4  A    between atoms: C_6  and  N_7
REMARK    5  A    between atoms: C_6  and  C_8
REMARK    6  A    between atoms: C_8  and  O_10
REMARK    7  A    between atoms: O_10  and  C_11
REMARK    8  A    between atoms: C_11  and  C_12
REMARK                            x       y       z     vdW  Elec       q    Type
REMARK                         _______ _______ _______ _____ _____    ______ ____
ROOT
ATOM      1  C   UNL     1       6.602   6.342  18.494  0.00  0.00    +0.000 C 
ENDROOT
BRANCH   1   2
ATOM      2  N   UNL     1       7.376   5.205  19.079  0.00  0.00    +0.000 NA
ATOM      3  H   UNL     1       6.906   4.336  18.783  0.00  0.00    +0.000 HD
ATOM      4  H   UNL     1       7.239   5.239  20.092  0.00  0.00    +0.000 HD
ENDBRANCH   1   2
BRANCH   1   5
ATOM      5  C   UNL     1       7.638   7.213  17.715  0.00  0.00    +0.000 C 
ATOM      6  O   UNL     1       7.838   7.085  16.516  0.00  0.00    +0.000 OA
BRANCH   5   7
ATOM      7  O   UNL     1       8.380   8.010  18.541  0.00  0.00    +0.000 OA
BRANCH   7   8
ATOM      8  C   UNL     1       8.368   9.418  18.250  0.00  0.00    +0.000 C 
BRANCH   8   9
ATOM      9  C   UNL     1       9.663  10.135  18.689  0.00  0.00    +0.000 C 
ATOM     10  C   UNL     1       9.664  10.536  20.175  0.00  0.00    +0.000 C 
ATOM     11  C   UNL     1       8.735  11.716  20.461  0.00  0.00    +0.000 C 
ATOM     12  N   UNL     1       9.085  12.881  19.646  0.00  0.00    +0.000 NA
ATOM     13  C   UNL     1       9.014  12.573  18.219  0.00  0.00    +0.000 C 
ATOM     14  C   UNL     1       9.917  11.398  17.837  0.00  0.00    +0.000 C 
ATOM     15  H   UNL     1      10.034  13.179  19.881  0.00  0.00    +0.000 HD
ENDBRANCH   8   9
ENDBRANCH   7   8
ENDBRANCH   5   7
ENDBRANCH   1   5
BRANCH   1  16
ATOM     16  C   UNL     1       5.449   5.861  17.602  0.00  0.00    +0.000 C 
BRANCH  16  20
ATOM     17  C   UNL     1       1.598   6.280  20.673  0.00  0.00    +0.000 C 
ATOM     18  N   UNL     1       2.326   5.783  19.527  0.00  0.00    +0.000 N 
ATOM     19  C   UNL     1       3.358   6.429  18.915  0.00  0.00    +0.000 A 
ATOM     20  C   UNL     1       4.078   5.514  18.153  0.00  0.00    +0.000 A 
ATOM     21  C   UNL     1       3.277   4.309  18.147  0.00  0.00    +0.000 A 
ATOM     22  C   UNL     1       3.354   3.047  17.518  0.00  0.00    +0.000 A 
ATOM     23  C   UNL     1       2.388   2.060  17.780  0.00  0.00    +0.000 A 
ATOM     24  C   UNL     1       1.344   2.297  18.664  0.00  0.00    +0.000 A 
ATOM     25  C   UNL     1       1.223   3.535  19.290  0.00  0.00    +0.000 A 
ATOM     26  C   UNL     1       2.191   4.517  19.014  0.00  0.00    +0.000 A 
ENDBRANCH  16  20
ENDBRANCH   1  16
TORSDOF 7
ENDMDL
MODEL 8
REMARK VINA RESULT:      -6.6      1.574      4.390
REMARK  Name = 
REMARK  8 active torsions:
REMARK  status: ('A' for Active; 'I' for Inactive)
REMARK    1  A    between atoms: C_1  and  N_2
REMARK    2  A    between atoms: C_4  and  C_5
REMARK    3  A    between atoms: C_5  and  C_6
REMARK    4  A    between atoms: C_6  and  N_7
REMARK    5  A    between atoms: C_6  and  C_8
REMARK    6  A    between atoms: C_8  and  O_10
REMARK    7  A    between atoms: O_10  and  C_11
REMARK    8  A    between atoms: C_11  and  C_12
REMARK                            x       y       z     vdW  Elec       q    Type
REMARK                         _______ _______ _______ _____ _____    ______ ____
ROOT
ATOM      1  C   UNL     1       2.280   2.950  18.632  0.00  0.00    +0.000 C 
ENDROOT
BRANCH   1   2
ATOM      2  N   UNL     1       1.340   1.788  18.623  0.00  0.00    +0.000 NA
ATOM      3  H   UNL     1       1.721   1.097  17.958  0.00  0.00    +0.000 HD
ATOM      4  H   UNL     1       0.471   2.108  18.189  0.00  0.00    +0.000 HD
ENDBRANCH   1   2
BRANCH   1   5
ATOM      5  C   UNL     1       2.450   3.355  20.131  0.00  0.00    +0.000 C 
ATOM      6  O   UNL     1       3.104   2.691  20.922  0.00  0.00    +0.000 OA
BRANCH   5   7
ATOM      7  O   UNL     1       1.678   4.428  20.476  0.00  0.00    +0.000 OA
BRANCH   7   8
ATOM      8  C   UNL     1       1.575   5.481  19.501  0.00  0.00    +0.000 C 
BRANCH   8   9
ATOM      9  C   UNL     1       2.591   6.620  19.733  0.00  0.00    +0.000 C 
ATOM     10  C   UNL     1       2.056   7.737  20.647  0.00  0.00    +0.000 C 
ATOM     11  C   UNL     1       1.010   8.608  19.951  0.00  0.00    +0.000 C 
ATOM     12  N   UNL     1       1.542   9.201  18.723  0.00  0.00    +0.000 NA
ATOM     13  C   UNL     1       1.985   8.174  17.784  0.00  0.00    +0.000 C 
ATOM     14  C   UNL     1       3.039   7.248  18.396  0.00  0.00    +0.000 C 
ATOM     15  H   UNL     1       2.331   9.806  18.959  0.00  0.00    +0.000 HD
ENDBRANCH   8   9
ENDBRANCH   7   8
ENDBRANCH   5   7
ENDBRANCH   1   5
BRANCH   1  16
ATOM     16  C   UNL     1       3.617   2.621  17.956  0.00  0.00    +0.000 C 
BRANCH  16  20
ATOM     17  C   UNL     1       6.288   4.867  14.455  0.00  0.00    +0.000 C 
ATOM     18  N   UNL     1       5.679   4.714  15.757  0.00  0.00    +0.000 N 
ATOM     19  C   UNL     1       4.587   3.943  16.025  0.00  0.00    +0.000 A 
ATOM     20  C   UNL     1       4.535   3.691  17.392  0.00  0.00    +0.000 A 
ATOM     21  C   UNL     1       5.534   4.557  17.979  0.00  0.00    +0.000 A 
ATOM     22  C   UNL     1       5.952   4.877  19.290  0.00  0.00    +0.000 A 
ATOM     23  C   UNL     1       7.022   5.763  19.501  0.00  0.00    +0.000 A 
ATOM     24  C   UNL     1       7.697   6.338  18.432  0.00  0.00    +0.000 A 
ATOM     25  C   UNL     1       7.303   6.062  17.125  0.00  0.00    +0.000 A 
ATOM     26  C   UNL     1       6.226   5.180  16.927  0.00  0.00    +0.000 A 
ENDBRANCH  16  20
ENDBRANCH   1  16
TORSDOF 7
ENDMDL
MODEL 9
REMARK VINA RESULT:      -6.5      3.837      6.330
REMARK  Name = 
REMARK  8 active torsions:
REMARK  status: ('A' for Active; 'I' for Inactive)
REMARK    1  A    between atoms: C_1  and  N_2
REMARK    2  A    between atoms: C_4  and  C_5
REMARK    3  A    between atoms: C_5  and  C_6
REMARK    4  A    between atoms: C_6  and  N_7
REMARK    5  A    between atoms: C_6  and  C_8
REMARK    6  A    between atoms: C_8  and  O_10
REMARK    7  A    between atoms: O_10  and  C_11
REMARK    8  A    between atoms: C_11  and  C_12
REMARK                            x       y       z     vdW  Elec       q    Type
REMARK                         _______ _______ _______ _____ _____    ______ ____
ROOT
ATOM      1  C   UNL     1       1.746   8.261  18.730  0.00  0.00    +0.000 C 
ENDROOT
BRANCH   1   2
ATOM      2  N   UNL     1       2.013   7.963  20.170  0.00  0.00    +0.000 NA
ATOM      3  H   UNL     1       1.310   7.270  20.470  0.00  0.00    +0.000 HD
ATOM      4  H   UNL     1       1.782   8.808  20.699  0.00  0.00    +0.000 HD
ENDBRANCH   1   2
BRANCH   1   5
ATOM      5  C   UNL     1       1.397   9.782  18.662  0.00  0.00    +0.000 C 
ATOM      6  O   UNL     1       2.099  10.593  18.075  0.00  0.00    +0.000 OA
BRANCH   5   7
ATOM      7  O   UNL     1       0.325  10.110  19.442  0.00  0.00    +0.000 OA
BRANCH   7   8
ATOM      8  C   UNL     1      -0.956  10.139  18.789  0.00  0.00    +0.000 C 
BRANCH   8   9
ATOM      9  C   UNL     1      -1.290  11.516  18.176  0.00  0.00    +0.000 C 
ATOM     10  C   UNL     1      -1.361  12.646  19.218  0.00  0.00    +0.000 C 
ATOM     11  C   UNL     1      -2.617  12.560  20.086  0.00  0.00    +0.000 C 
ATOM     12  N   UNL     1      -3.832  12.578  19.269  0.00  0.00    +0.000 NA
ATOM     13  C   UNL     1      -3.851  11.468  18.319  0.00  0.00    +0.000 C 
ATOM     14  C   UNL     1      -2.625  11.473  17.402  0.00  0.00    +0.000 C 
ATOM     15  H   UNL     1      -3.878  13.461  18.758  0.00  0.00    +0.000 HD
ENDBRANCH   8   9
ENDBRANCH   7   8
ENDBRANCH   5   7
ENDBRANCH   1   5
BRANCH   1  16
ATOM     16  C   UNL     1       2.932   7.889  17.830  0.00  0.00    +0.000 C 
BRANCH  16  20
ATOM     17  C   UNL     1       6.320   4.476  16.686  0.00  0.00    +0.000 C 
ATOM     18  N   UNL     1       5.135   4.997  17.329  0.00  0.00    +0.000 N 
ATOM     19  C   UNL     1       4.901   6.313  17.594  0.00  0.00    +0.000 A 
ATOM     20  C   UNL     1       3.540   6.498  17.813  0.00  0.00    +0.000 A 
ATOM     21  C   UNL     1       2.983   5.165  17.901  0.00  0.00    +0.000 A 
ATOM     22  C   UNL     1       1.714   4.616  18.189  0.00  0.00    +0.000 A 
ATOM     23  C   UNL     1       1.512   3.226  18.145  0.00  0.00    +0.000 A 
ATOM     24  C   UNL     1       2.548   2.363  17.812  0.00  0.00    +0.000 A 
ATOM     25  C   UNL     1       3.818   2.864  17.541  0.00  0.00    +0.000 A 
ATOM     26  C   UNL     1       4.010   4.256  17.596  0.00  0.00    +0.000 A 
ENDBRANCH  16  20
ENDBRANCH   1  16
TORSDOF 7
ENDMDL
