MODEL 1
REMARK VINA RESULT:      -7.5      0.000      0.000
REMARK  Name = 
REMARK  16 active torsions:
REMARK  status: ('A' for Active; 'I' for Inactive)
REMARK    1  A    between atoms: C_1  and  C_2
REMARK    2  A    between atoms: C_2  and  O_3
REMARK    3  A    between atoms: O_3  and  C_4
REMARK    4  A    between atoms: C_4  and  C_6
REMARK    5  A    between atoms: C_15  and  C_16
REMARK    6  A    between atoms: C_16  and  N_17
REMARK    7  A    between atoms: C_16  and  C_26
REMARK    8  A    between atoms: N_17  and  C_18
REMARK    9  A    between atoms: C_18  and  C_19
REMARK   10  A    between atoms: C_18  and  C_23
REMARK   11  A    between atoms: C_19  and  O_21
REMARK   12  A    between atoms: O_21  and  C_22
REMARK   13  A    between atoms: C_23  and  C_24
REMARK   14  A    between atoms: C_23  and  C_25
REMARK   15  A    between atoms: N_28  and  C_29
REMARK   16  A    between atoms: C_29  and  C_30
REMARK                            x       y       z     vdW  Elec       q    Type
REMARK                         _______ _______ _______ _____ _____    ______ ____
ROOT
ATOM      1  C   UNL     1       4.300   5.155  17.262  0.00  0.00    +0.000 C 
ENDROOT
BRANCH   1  11
ATOM      2  C   UNL     1       6.824   6.016  16.567  0.00  0.00    +0.000 A 
ATOM      3  N   UNL     1       7.508   5.878  15.364  0.00  0.00    +0.000 N 
ATOM      4  C   UNL     1       6.913   5.010  14.510  0.00  0.00    +0.000 A 
ATOM      5  C   UNL     1       7.421   4.407  13.350  0.00  0.00    +0.000 A 
ATOM      6  C   UNL     1       6.568   3.569  12.640  0.00  0.00    +0.000 A 
ATOM      7 CL   UNL     1       7.175   2.688  11.293  0.00  0.00    +0.000 Cl
ATOM      8  C   UNL     1       5.237   3.437  13.015  0.00  0.00    +0.000 A 
ATOM      9  C   UNL     1       4.748   4.091  14.159  0.00  0.00    +0.000 A 
ATOM     10  C   UNL     1       5.629   4.825  14.997  0.00  0.00    +0.000 A 
ATOM     11  C   UNL     1       5.570   5.374  16.386  0.00  0.00    +0.000 A 
ATOM     12  H   UNL     1       8.432   6.273  15.224  0.00  0.00    +0.000 HD
BRANCH   2  13
ATOM     13  C   UNL     1       7.640   6.726  17.558  0.00  0.00    +0.000 C 
ATOM     14  O   UNL     1       7.629   6.378  18.748  0.00  0.00    +0.000 OA
BRANCH  13  15
ATOM     15  O   UNL     1       8.167   7.899  17.143  0.00  0.00    +0.000 OA
BRANCH  15  17
ATOM     16  C   UNL     1       8.903   9.774  18.661  0.00  0.00    +0.000 C 
ATOM     17  C   UNL     1       7.779   9.042  17.939  0.00  0.00    +0.000 C 
ENDBRANCH  15  17
ENDBRANCH  13  15
ENDBRANCH   2  13
ENDBRANCH   1  11
BRANCH   1  18
ATOM     18  C   UNL     1       4.037   5.864  18.632  0.00  0.00    +0.000 C 
ATOM     19  O   UNL     1       4.826   5.865  19.567  0.00  0.00    +0.000 OA
ATOM     20  N   UNL     1       2.848   6.613  18.657  0.00  0.00    +0.000 N 
ATOM     21  H   UNL     1       2.344   6.688  17.776  0.00  0.00    +0.000 HD
BRANCH  20  22
ATOM     22  C   UNL     1       2.382   7.326  19.827  0.00  0.00    +0.000 C 
BRANCH  22  23
ATOM     23  C   UNL     1       1.517   8.537  19.519  0.00  0.00    +0.000 A 
ATOM     24  C   UNL     1       1.398   9.030  18.210  0.00  0.00    +0.000 A 
ATOM     25  C   UNL     1       0.528  10.089  17.911  0.00  0.00    +0.000 A 
ATOM     26  C   UNL     1      -0.237  10.675  18.917  0.00  0.00    +0.000 A 
ATOM     27  C   UNL     1      -0.133  10.197  20.221  0.00  0.00    +0.000 A 
ATOM     28  C   UNL     1       0.735   9.139  20.519  0.00  0.00    +0.000 A 
ENDBRANCH  22  23
ENDBRANCH  20  22
ENDBRANCH   1  18
BRANCH   1  29
ATOM     29  N   UNL     1       3.879   3.713  17.389  0.00  0.00    +0.000 NA
ATOM     30  H   UNL     1       4.700   3.151  17.163  0.00  0.00    +0.000 HD
BRANCH  29  31
ATOM     31  C   UNL     1       3.348   3.225  18.683  0.00  0.00    +0.000 C 
BRANCH  31  32
ATOM     32  C   UNL     1       1.819   2.990  18.869  0.00  0.00    +0.000 C 
ATOM     33  C   UNL     1       1.412   3.519  20.257  0.00  0.00    +0.000 C 
ATOM     34  C   UNL     1       0.895   3.665  17.863  0.00  0.00    +0.000 C 
ENDBRANCH  31  32
BRANCH  31  35
ATOM     35  C   UNL     1       4.087   1.881  18.979  0.00  0.00    +0.000 C 
ATOM     36  O   UNL     1       3.815   0.822  18.429  0.00  0.00    +0.000 OA
BRANCH  35  37
ATOM     37  O   UNL     1       5.022   2.035  19.961  0.00  0.00    +0.000 OA
ATOM     38  C   UNL     1       4.690   1.532  21.260  0.00  0.00    +0.000 C 
ENDBRANCH  35  37
ENDBRANCH  31  35
ENDBRANCH  29  31
ENDBRANCH   1  29
TORSDOF 12
ENDMDL
MODEL 2
REMARK VINA RESULT:      -7.4      5.360      8.466
REMARK  Name = 
REMARK  16 active torsions:
REMARK  status: ('A' for Active; 'I' for Inactive)
REMARK    1  A    between atoms: C_1  and  C_2
REMARK    2  A    between atoms: C_2  and  O_3
REMARK    3  A    between atoms: O_3  and  C_4
REMARK    4  A    between atoms: C_4  and  C_6
REMARK    5  A    between atoms: C_15  and  C_16
REMARK    6  A    between atoms: C_16  and  N_17
REMARK    7  A    between atoms: C_16  and  C_26
REMARK    8  A    between atoms: N_17  and  C_18
REMARK    9  A    between atoms: C_18  and  C_19
REMARK   10  A    between atoms: C_18  and  C_23
REMARK   11  A    between atoms: C_19  and  O_21
REMARK   12  A    between atoms: O_21  and  C_22
REMARK   13  A    between atoms: C_23  and  C_24
REMARK   14  A    between atoms: C_23  and  C_25
REMARK   15  A    between atoms: N_28  and  C_29
REMARK   16  A    between atoms: C_29  and  C_30
REMARK                            x       y       z     vdW  Elec       q    Type
REMARK                         _______ _______ _______ _____ _____    ______ ____
ROOT
ATOM      1  C   UNL     1       1.371  10.181  18.612  0.00  0.00    +0.000 C 
ENDROOT
BRANCH   1  11
ATOM      2  C   UNL     1       1.072   9.034  21.099  0.00  0.00    +0.000 A 
ATOM      3  N   UNL     1       1.405   7.754  21.532  0.00  0.00    +0.000 N 
ATOM      4  C   UNL     1       1.715   6.913  20.516  0.00  0.00    +0.000 A 
ATOM      5  C   UNL     1       1.830   5.516  20.516  0.00  0.00    +0.000 A 
ATOM      6  C   UNL     1       2.197   4.906  19.321  0.00  0.00    +0.000 A 
ATOM      7 CL   UNL     1       2.213   3.188  19.218  0.00  0.00    +0.000 Cl
ATOM      8  C   UNL     1       2.543   5.671  18.215  0.00  0.00    +0.000 A 
ATOM      9  C   UNL     1       2.459   7.074  18.262  0.00  0.00    +0.000 A 
ATOM     10  C   UNL     1       1.936   7.723  19.413  0.00  0.00    +0.000 A 
ATOM     11  C   UNL     1       1.423   9.091  19.724  0.00  0.00    +0.000 A 
ATOM     12  H   UNL     1       1.270   7.461  22.494  0.00  0.00    +0.000 HD
BRANCH   2  13
ATOM     13  C   UNL     1       0.470   9.816  22.185  0.00  0.00    +0.000 C 
ATOM     14  O   UNL     1       0.814   9.628  23.361  0.00  0.00    +0.000 OA
BRANCH  13  15
ATOM     15  O   UNL     1      -0.628  10.527  21.848  0.00  0.00    +0.000 OA
BRANCH  15  17
ATOM     16  C   UNL     1      -2.341  11.944  23.039  0.00  0.00    +0.000 C 
ATOM     17  C   UNL     1      -0.882  11.669  22.697  0.00  0.00    +0.000 C 
ENDBRANCH  15  17
ENDBRANCH  13  15
ENDBRANCH   2  13
ENDBRANCH   1  11
BRANCH   1  18
ATOM     18  C   UNL     1       1.837  11.662  18.802  0.00  0.00    +0.000 C 
ATOM     19  O   UNL     1       2.360  12.335  17.924  0.00  0.00    +0.000 OA
ATOM     20  N   UNL     1       1.490  12.204  20.052  0.00  0.00    +0.000 N 
ATOM     21  H   UNL     1       0.908  11.621  20.649  0.00  0.00    +0.000 HD
BRANCH  20  22
ATOM     22  C   UNL     1       1.846  13.545  20.464  0.00  0.00    +0.000 C 
BRANCH  22  23
ATOM     23  C   UNL     1       0.832  14.608  20.075  0.00  0.00    +0.000 A 
ATOM     24  C   UNL     1      -0.309  14.845  20.859  0.00  0.00    +0.000 A 
ATOM     25  C   UNL     1      -1.196  15.888  20.551  0.00  0.00    +0.000 A 
ATOM     26  C   UNL     1      -0.957  16.711  19.454  0.00  0.00    +0.000 A 
ATOM     27  C   UNL     1       0.171  16.494  18.667  0.00  0.00    +0.000 A 
ATOM     28  C   UNL     1       1.056  15.452  18.974  0.00  0.00    +0.000 A 
ENDBRANCH  22  23
ENDBRANCH  20  22
ENDBRANCH   1  18
BRANCH   1  29
ATOM     29  N   UNL     1       0.092  10.187  17.813  0.00  0.00    +0.000 NA
ATOM     30  H   UNL     1       0.037   9.281  17.349  0.00  0.00    +0.000 HD
BRANCH  29  31
ATOM     31  C   UNL     1      -1.196  10.409  18.510  0.00  0.00    +0.000 C 
BRANCH  31  32
ATOM     32  C   UNL     1      -1.598  11.837  18.986  0.00  0.00    +0.000 C 
ATOM     33  C   UNL     1      -1.232  12.839  17.874  0.00  0.00    +0.000 C 
ATOM     34  C   UNL     1      -3.072  12.065  19.302  0.00  0.00    +0.000 C 
ENDBRANCH  31  32
BRANCH  31  35
ATOM     35  C   UNL     1      -2.309   9.885  17.546  0.00  0.00    +0.000 C 
ATOM     36  O   UNL     1      -3.300   9.275  17.923  0.00  0.00    +0.000 OA
BRANCH  35  37
ATOM     37  O   UNL     1      -1.997  10.145  16.243  0.00  0.00    +0.000 OA
ATOM     38  C   UNL     1      -3.056  10.618  15.403  0.00  0.00    +0.000 C 
ENDBRANCH  35  37
ENDBRANCH  31  35
ENDBRANCH  29  31
ENDBRANCH   1  29
TORSDOF 12
ENDMDL
MODEL 3
REMARK VINA RESULT:      -7.3      5.635      9.778
REMARK  Name = 
REMARK  16 active torsions:
REMARK  status: ('A' for Active; 'I' for Inactive)
REMARK    1  A    between atoms: C_1  and  C_2
REMARK    2  A    between atoms: C_2  and  O_3
REMARK    3  A    between atoms: O_3  and  C_4
REMARK    4  A    between atoms: C_4  and  C_6
REMARK    5  A    between atoms: C_15  and  C_16
REMARK    6  A    between atoms: C_16  and  N_17
REMARK    7  A    between atoms: C_16  and  C_26
REMARK    8  A    between atoms: N_17  and  C_18
REMARK    9  A    between atoms: C_18  and  C_19
REMARK   10  A    between atoms: C_18  and  C_23
REMARK   11  A    between atoms: C_19  and  O_21
REMARK   12  A    between atoms: O_21  and  C_22
REMARK   13  A    between atoms: C_23  and  C_24
REMARK   14  A    between atoms: C_23  and  C_25
REMARK   15  A    between atoms: N_28  and  C_29
REMARK   16  A    between atoms: C_29  and  C_30
REMARK                            x       y       z     vdW  Elec       q    Type
REMARK                         _______ _______ _______ _____ _____    ______ ____
ROOT
ATOM      1  C   UNL     1       0.588  10.061  18.961  0.00  0.00    +0.000 C 
ENDROOT
BRANCH   1  11
ATOM      2  C   UNL     1       1.678  12.559  19.362  0.00  0.00    +0.000 A 
ATOM      3  N   UNL     1       1.536  13.426  20.440  0.00  0.00    +0.000 N 
ATOM      4  C   UNL     1       0.551  13.057  21.294  0.00  0.00    +0.000 A 
ATOM      5  C   UNL     1      -0.069  13.791  22.315  0.00  0.00    +0.000 A 
ATOM      6  C   UNL     1      -1.043  13.142  23.066  0.00  0.00    +0.000 A 
ATOM      7 CL   UNL     1      -1.941  14.030  24.235  0.00  0.00    +0.000 Cl
ATOM      8  C   UNL     1      -1.299  11.791  22.874  0.00  0.00    +0.000 A 
ATOM      9  C   UNL     1      -0.628  11.072  21.868  0.00  0.00    +0.000 A 
ATOM     10  C   UNL     1       0.256  11.739  20.979  0.00  0.00    +0.000 A 
ATOM     11  C   UNL     1       0.888  11.418  19.664  0.00  0.00    +0.000 A 
ATOM     12  H   UNL     1       2.022  14.316  20.480  0.00  0.00    +0.000 HD
BRANCH   2  13
ATOM     13  C   UNL     1       2.541  13.142  18.328  0.00  0.00    +0.000 C 
ATOM     14  O   UNL     1       3.548  12.535  17.933  0.00  0.00    +0.000 OA
BRANCH  13  15
ATOM     15  O   UNL     1       2.317  14.446  18.052  0.00  0.00    +0.000 OA
BRANCH  15  17
ATOM     16  C   UNL     1       3.311  16.651  17.340  0.00  0.00    +0.000 C 
ATOM     17  C   UNL     1       3.515  15.223  17.832  0.00  0.00    +0.000 C 
ENDBRANCH  15  17
ENDBRANCH  13  15
ENDBRANCH   2  13
ENDBRANCH   1  11
BRANCH   1  18
ATOM     18  C   UNL     1       1.683   9.048  18.487  0.00  0.00    +0.000 C 
ATOM     19  O   UNL     1       2.376   9.202  17.490  0.00  0.00    +0.000 OA
ATOM     20  N   UNL     1       1.889   7.985  19.383  0.00  0.00    +0.000 N 
ATOM     21  H   UNL     1       1.384   8.035  20.265  0.00  0.00    +0.000 HD
BRANCH  20  22
ATOM     22  C   UNL     1       2.827   6.909  19.138  0.00  0.00    +0.000 C 
BRANCH  22  23
ATOM     23  C   UNL     1       2.230   5.518  19.266  0.00  0.00    +0.000 A 
ATOM     24  C   UNL     1       1.759   5.040  20.500  0.00  0.00    +0.000 A 
ATOM     25  C   UNL     1       1.123   3.793  20.599  0.00  0.00    +0.000 A 
ATOM     26  C   UNL     1       0.950   3.001  19.466  0.00  0.00    +0.000 A 
ATOM     27  C   UNL     1       1.409   3.460  18.234  0.00  0.00    +0.000 A 
ATOM     28  C   UNL     1       2.042   4.706  18.135  0.00  0.00    +0.000 A 
ENDBRANCH  22  23
ENDBRANCH  20  22
ENDBRANCH   1  18
BRANCH   1  29
ATOM     29  N   UNL     1      -0.474  10.140  17.893  0.00  0.00    +0.000 NA
ATOM     30  H   UNL     1      -0.518   9.218  17.459  0.00  0.00    +0.000 HD
BRANCH  29  31
ATOM     31  C   UNL     1      -1.855  10.519  18.272  0.00  0.00    +0.000 C 
BRANCH  31  32
ATOM     32  C   UNL     1      -2.309  12.008  18.209  0.00  0.00    +0.000 C 
ATOM     33  C   UNL     1      -2.989  12.365  19.545  0.00  0.00    +0.000 C 
ATOM     34  C   UNL     1      -1.217  13.049  17.991  0.00  0.00    +0.000 C 
ENDBRANCH  31  32
BRANCH  31  35
ATOM     35  C   UNL     1      -2.804   9.681  17.356  0.00  0.00    +0.000 C 
ATOM     36  O   UNL     1      -3.800   9.098  17.764  0.00  0.00    +0.000 OA
BRANCH  35  37
ATOM     37  O   UNL     1      -2.343   9.640  16.072  0.00  0.00    +0.000 OA
ATOM     38  C   UNL     1      -3.138  10.288  15.074  0.00  0.00    +0.000 C 
ENDBRANCH  35  37
ENDBRANCH  31  35
ENDBRANCH  29  31
ENDBRANCH   1  29
TORSDOF 12
ENDMDL
MODEL 4
REMARK VINA RESULT:      -7.2      5.180      9.606
REMARK  Name = 
REMARK  16 active torsions:
REMARK  status: ('A' for Active; 'I' for Inactive)
REMARK    1  A    between atoms: C_1  and  C_2
REMARK    2  A    between atoms: C_2  and  O_3
REMARK    3  A    between atoms: O_3  and  C_4
REMARK    4  A    between atoms: C_4  and  C_6
REMARK    5  A    between atoms: C_15  and  C_16
REMARK    6  A    between atoms: C_16  and  N_17
REMARK    7  A    between atoms: C_16  and  C_26
REMARK    8  A    between atoms: N_17  and  C_18
REMARK    9  A    between atoms: C_18  and  C_19
REMARK   10  A    between atoms: C_18  and  C_23
REMARK   11  A    between atoms: C_19  and  O_21
REMARK   12  A    between atoms: O_21  and  C_22
REMARK   13  A    between atoms: C_23  and  C_24
REMARK   14  A    between atoms: C_23  and  C_25
REMARK   15  A    between atoms: N_28  and  C_29
REMARK   16  A    between atoms: C_29  and  C_30
REMARK                            x       y       z     vdW  Elec       q    Type
REMARK                         _______ _______ _______ _____ _____    ______ ____
ROOT
ATOM      1  C   UNL     1       0.523   9.947  18.911  0.00  0.00    +0.000 C 
ENDROOT
BRANCH   1  11
ATOM      2  C   UNL     1       0.515  11.440  21.226  0.00  0.00    +0.000 A 
ATOM      3  N   UNL     1       1.102  12.674  21.487  0.00  0.00    +0.000 N 
ATOM      4  C   UNL     1       1.968  13.067  20.522  0.00  0.00    +0.000 A 
ATOM      5  C   UNL     1       2.935  14.081  20.548  0.00  0.00    +0.000 A 
ATOM      6  C   UNL     1       3.674  14.289  19.387  0.00  0.00    +0.000 A 
ATOM      7 CL   UNL     1       4.972  15.418  19.402  0.00  0.00    +0.000 Cl
ATOM      8  C   UNL     1       3.374  13.589  18.226  0.00  0.00    +0.000 A 
ATOM      9  C   UNL     1       2.367  12.608  18.223  0.00  0.00    +0.000 A 
ATOM     10  C   UNL     1       1.702  12.258  19.428  0.00  0.00    +0.000 A 
ATOM     11  C   UNL     1       0.845  11.122  19.881  0.00  0.00    +0.000 A 
ATOM     12  H   UNL     1       0.997  13.139  22.383  0.00  0.00    +0.000 HD
BRANCH   2  13
ATOM     13  C   UNL     1      -0.178  10.926  22.412  0.00  0.00    +0.000 C 
ATOM     14  O   UNL     1       0.398  10.153  23.193  0.00  0.00    +0.000 OA
BRANCH  13  15
ATOM     15  O   UNL     1      -1.513  11.134  22.439  0.00  0.00    +0.000 OA
BRANCH  15  17
ATOM     16  C   UNL     1      -3.426  12.488  23.371  0.00  0.00    +0.000 C 
ATOM     17  C   UNL     1      -1.939  12.156  23.369  0.00  0.00    +0.000 C 
ENDBRANCH  15  17
ENDBRANCH  13  15
ENDBRANCH   2  13
ENDBRANCH   1  11
BRANCH   1  18
ATOM     18  C   UNL     1       1.584   8.936  18.361  0.00  0.00    +0.000 C 
ATOM     19  O   UNL     1       2.193   9.085  17.310  0.00  0.00    +0.000 OA
ATOM     20  N   UNL     1       1.870   7.884  19.248  0.00  0.00    +0.000 N 
ATOM     21  H   UNL     1       1.437   7.940  20.167  0.00  0.00    +0.000 HD
BRANCH  20  22
ATOM     22  C   UNL     1       2.794   6.813  18.939  0.00  0.00    +0.000 C 
BRANCH  22  23
ATOM     23  C   UNL     1       2.192   5.421  19.038  0.00  0.00    +0.000 A 
ATOM     24  C   UNL     1       2.219   4.539  17.946  0.00  0.00    +0.000 A 
ATOM     25  C   UNL     1       1.747   3.222  18.067  0.00  0.00    +0.000 A 
ATOM     26  C   UNL     1       1.240   2.767  19.280  0.00  0.00    +0.000 A 
ATOM     27  C   UNL     1       1.209   3.627  20.375  0.00  0.00    +0.000 A 
ATOM     28  C   UNL     1       1.679   4.941  20.255  0.00  0.00    +0.000 A 
ENDBRANCH  22  23
ENDBRANCH  20  22
ENDBRANCH   1  18
BRANCH   1  29
ATOM     29  N   UNL     1      -0.407  10.315  17.783  0.00  0.00    +0.000 NA
ATOM     30  H   UNL     1      -0.457   9.500  17.172  0.00  0.00    +0.000 HD
BRANCH  29  31
ATOM     31  C   UNL     1      -1.797  10.724  18.093  0.00  0.00    +0.000 C 
BRANCH  31  32
ATOM     32  C   UNL     1      -2.156  12.230  18.260  0.00  0.00    +0.000 C 
ATOM     33  C   UNL     1      -2.773  12.429  19.658  0.00  0.00    +0.000 C 
ATOM     34  C   UNL     1      -1.006  13.225  18.153  0.00  0.00    +0.000 C 
ENDBRANCH  31  32
BRANCH  31  35
ATOM     35  C   UNL     1      -2.689  10.133  16.955  0.00  0.00    +0.000 C 
ATOM     36  O   UNL     1      -3.446   9.184  17.109  0.00  0.00    +0.000 OA
BRANCH  35  37
ATOM     37  O   UNL     1      -2.467  10.773  15.769  0.00  0.00    +0.000 OA
ATOM     38  C   UNL     1      -2.957  10.136  14.585  0.00  0.00    +0.000 C 
ENDBRANCH  35  37
ENDBRANCH  31  35
ENDBRANCH  29  31
ENDBRANCH   1  29
TORSDOF 12
ENDMDL
MODEL 5
REMARK VINA RESULT:      -7.2      5.909     10.715
REMARK  Name = 
REMARK  16 active torsions:
REMARK  status: ('A' for Active; 'I' for Inactive)
REMARK    1  A    between atoms: C_1  and  C_2
REMARK    2  A    between atoms: C_2  and  O_3
REMARK    3  A    between atoms: O_3  and  C_4
REMARK    4  A    between atoms: C_4  and  C_6
REMARK    5  A    between atoms: C_15  and  C_16
REMARK    6  A    between atoms: C_16  and  N_17
REMARK    7  A    between atoms: C_16  and  C_26
REMARK    8  A    between atoms: N_17  and  C_18
REMARK    9  A    between atoms: C_18  and  C_19
REMARK   10  A    between atoms: C_18  and  C_23
REMARK   11  A    between atoms: C_19  and  O_21
REMARK   12  A    between atoms: O_21  and  C_22
REMARK   13  A    between atoms: C_23  and  C_24
REMARK   14  A    between atoms: C_23  and  C_25
REMARK   15  A    between atoms: N_28  and  C_29
REMARK   16  A    between atoms: C_29  and  C_30
REMARK                            x       y       z     vdW  Elec       q    Type
REMARK                         _______ _______ _______ _____ _____    ______ ____
ROOT
ATOM      1  C   UNL     1       0.052  11.793  20.651  0.00  0.00    +0.000 C 
ENDROOT
BRANCH   1  11
ATOM      2  C   UNL     1      -2.453  12.903  20.367  0.00  0.00    +0.000 A 
ATOM      3  N   UNL     1      -3.470  12.581  19.473  0.00  0.00    +0.000 N 
ATOM      4  C   UNL     1      -3.063  11.754  18.480  0.00  0.00    +0.000 A 
ATOM      5  C   UNL     1      -3.694  11.432  17.270  0.00  0.00    +0.000 A 
ATOM      6  C   UNL     1      -3.055  10.517  16.440  0.00  0.00    +0.000 A 
ATOM      7 CL   UNL     1      -3.705  10.192  14.880  0.00  0.00    +0.000 Cl
ATOM      8  C   UNL     1      -1.899   9.872  16.860  0.00  0.00    +0.000 A 
ATOM      9  C   UNL     1      -1.315  10.186  18.100  0.00  0.00    +0.000 A 
ATOM     10  C   UNL     1      -1.851  11.229  18.901  0.00  0.00    +0.000 A 
ATOM     11  C   UNL     1      -1.372  12.032  20.066  0.00  0.00    +0.000 A 
ATOM     12  H   UNL     1      -4.369  13.050  19.492  0.00  0.00    +0.000 HD
BRANCH   2  13
ATOM     13  C   UNL     1      -2.853  14.011  21.241  0.00  0.00    +0.000 C 
ATOM     14  O   UNL     1      -2.000  14.778  21.714  0.00  0.00    +0.000 OA
BRANCH  13  15
ATOM     15  O   UNL     1      -4.127  13.968  21.687  0.00  0.00    +0.000 OA
BRANCH  15  17
ATOM     16  C   UNL     1      -3.388  12.488  23.591  0.00  0.00    +0.000 C 
ATOM     17  C   UNL     1      -4.258  13.634  23.088  0.00  0.00    +0.000 C 
ENDBRANCH  15  17
ENDBRANCH  13  15
ENDBRANCH   2  13
ENDBRANCH   1  11
BRANCH   1  18
ATOM     18  C   UNL     1       0.461  10.547  21.506  0.00  0.00    +0.000 C 
ATOM     19  O   UNL     1       0.308  10.467  22.718  0.00  0.00    +0.000 OA
ATOM     20  N   UNL     1       0.917   9.463  20.737  0.00  0.00    +0.000 N 
ATOM     21  H   UNL     1       0.849   9.567  19.727  0.00  0.00    +0.000 HD
BRANCH  20  22
ATOM     22  C   UNL     1       1.381   8.219  21.314  0.00  0.00    +0.000 C 
BRANCH  22  23
ATOM     23  C   UNL     1       1.842   7.191  20.294  0.00  0.00    +0.000 A 
ATOM     24  C   UNL     1       1.722   5.814  20.545  0.00  0.00    +0.000 A 
ATOM     25  C   UNL     1       2.061   4.867  19.566  0.00  0.00    +0.000 A 
ATOM     26  C   UNL     1       2.528   5.281  18.321  0.00  0.00    +0.000 A 
ATOM     27  C   UNL     1       2.652   6.642  18.054  0.00  0.00    +0.000 A 
ATOM     28  C   UNL     1       2.313   7.587  19.031  0.00  0.00    +0.000 A 
ENDBRANCH  22  23
ENDBRANCH  20  22
ENDBRANCH   1  18
BRANCH   1  29
ATOM     29  N   UNL     1       0.679  13.016  21.270  0.00  0.00    +0.000 NA
ATOM     30  H   UNL     1       0.944  12.756  22.220  0.00  0.00    +0.000 HD
BRANCH  29  31
ATOM     31  C   UNL     1       1.868  13.625  20.627  0.00  0.00    +0.000 C 
BRANCH  31  32
ATOM     32  C   UNL     1       1.734  14.363  19.262  0.00  0.00    +0.000 C 
ATOM     33  C   UNL     1       2.172  13.398  18.144  0.00  0.00    +0.000 C 
ATOM     34  C   UNL     1       0.343  14.857  18.884  0.00  0.00    +0.000 C 
ENDBRANCH  31  32
BRANCH  31  35
ATOM     35  C   UNL     1       2.460  14.628  21.669  0.00  0.00    +0.000 C 
ATOM     36  O   UNL     1       1.836  15.052  22.632  0.00  0.00    +0.000 OA
BRANCH  35  37
ATOM     37  O   UNL     1       3.725  15.008  21.327  0.00  0.00    +0.000 OA
ATOM     38  C   UNL     1       4.667  15.167  22.394  0.00  0.00    +0.000 C 
ENDBRANCH  35  37
ENDBRANCH  31  35
ENDBRANCH  29  31
ENDBRANCH   1  29
TORSDOF 12
ENDMDL
MODEL 6
REMARK VINA RESULT:      -7.2      5.791     10.708
REMARK  Name = 
REMARK  16 active torsions:
REMARK  status: ('A' for Active; 'I' for Inactive)
REMARK    1  A    between atoms: C_1  and  C_2
REMARK    2  A    between atoms: C_2  and  O_3
REMARK    3  A    between atoms: O_3  and  C_4
REMARK    4  A    between atoms: C_4  and  C_6
REMARK    5  A    between atoms: C_15  and  C_16
REMARK    6  A    between atoms: C_16  and  N_17
REMARK    7  A    between atoms: C_16  and  C_26
REMARK    8  A    between atoms: N_17  and  C_18
REMARK    9  A    between atoms: C_18  and  C_19
REMARK   10  A    between atoms: C_18  and  C_23
REMARK   11  A    between atoms: C_19  and  O_21
REMARK   12  A    between atoms: O_21  and  C_22
REMARK   13  A    between atoms: C_23  and  C_24
REMARK   14  A    between atoms: C_23  and  C_25
REMARK   15  A    between atoms: N_28  and  C_29
REMARK   16  A    between atoms: C_29  and  C_30
REMARK                            x       y       z     vdW  Elec       q    Type
REMARK                         _______ _______ _______ _____ _____    ______ ____
ROOT
ATOM      1  C   UNL     1       0.159  11.660  20.600  0.00  0.00    +0.000 C 
ENDROOT
BRANCH   1  11
ATOM      2  C   UNL     1      -2.372  12.739  20.448  0.00  0.00    +0.000 A 
ATOM      3  N   UNL     1      -3.408  12.449  19.566  0.00  0.00    +0.000 N 
ATOM      4  C   UNL     1      -3.016  11.686  18.517  0.00  0.00    +0.000 A 
ATOM      5  C   UNL     1      -3.676  11.421  17.309  0.00  0.00    +0.000 A 
ATOM      6  C   UNL     1      -3.046  10.564  16.412  0.00  0.00    +0.000 A 
ATOM      7 CL   UNL     1      -3.734  10.315  14.855  0.00  0.00    +0.000 Cl
ATOM      8  C   UNL     1      -1.868   9.918  16.763  0.00  0.00    +0.000 A 
ATOM      9  C   UNL     1      -1.254  10.174  18.002  0.00  0.00    +0.000 A 
ATOM     10  C   UNL     1      -1.784  11.161  18.875  0.00  0.00    +0.000 A 
ATOM     11  C   UNL     1      -1.285  11.906  20.070  0.00  0.00    +0.000 A 
ATOM     12  H   UNL     1      -4.314  12.901  19.636  0.00  0.00    +0.000 HD
BRANCH   2  13
ATOM     13  C   UNL     1      -2.764  13.790  21.394  0.00  0.00    +0.000 C 
ATOM     14  O   UNL     1      -3.238  14.860  20.984  0.00  0.00    +0.000 OA
BRANCH  13  15
ATOM     15  O   UNL     1      -2.338  13.617  22.664  0.00  0.00    +0.000 OA
BRANCH  15  17
ATOM     16  C   UNL     1      -3.985  12.742  24.362  0.00  0.00    +0.000 C 
ATOM     17  C   UNL     1      -3.325  13.930  23.672  0.00  0.00    +0.000 C 
ENDBRANCH  15  17
ENDBRANCH  13  15
ENDBRANCH   2  13
ENDBRANCH   1  11
BRANCH   1  18
ATOM     18  C   UNL     1       0.584  10.434  21.474  0.00  0.00    +0.000 C 
ATOM     19  O   UNL     1       0.597  10.435  22.698  0.00  0.00    +0.000 OA
ATOM     20  N   UNL     1       0.842   9.273  20.725  0.00  0.00    +0.000 N 
ATOM     21  H   UNL     1       0.641   9.326  19.729  0.00  0.00    +0.000 HD
BRANCH  20  22
ATOM     22  C   UNL     1       1.283   8.027  21.316  0.00  0.00    +0.000 C 
BRANCH  22  23
ATOM     23  C   UNL     1       1.851   7.029  20.321  0.00  0.00    +0.000 A 
ATOM     24  C   UNL     1       1.823   5.649  20.578  0.00  0.00    +0.000 A 
ATOM     25  C   UNL     1       2.262   4.724  19.619  0.00  0.00    +0.000 A 
ATOM     26  C   UNL     1       2.739   5.163  18.387  0.00  0.00    +0.000 A 
ATOM     27  C   UNL     1       2.773   6.529  18.113  0.00  0.00    +0.000 A 
ATOM     28  C   UNL     1       2.334   7.452  19.070  0.00  0.00    +0.000 A 
ENDBRANCH  22  23
ENDBRANCH  20  22
ENDBRANCH   1  18
BRANCH   1  29
ATOM     29  N   UNL     1       0.830  12.890  21.156  0.00  0.00    +0.000 NA
ATOM     30  H   UNL     1       1.534  12.562  21.817  0.00  0.00    +0.000 HD
BRANCH  29  31
ATOM     31  C   UNL     1       1.497  13.834  20.227  0.00  0.00    +0.000 C 
BRANCH  31  32
ATOM     32  C   UNL     1       0.921  15.264  20.009  0.00  0.00    +0.000 C 
ATOM     33  C   UNL     1      -0.127  15.197  18.881  0.00  0.00    +0.000 C 
ATOM     34  C   UNL     1       0.229  15.913  21.202  0.00  0.00    +0.000 C 
ENDBRANCH  31  32
BRANCH  31  35
ATOM     35  C   UNL     1       2.970  13.973  20.732  0.00  0.00    +0.000 C 
ATOM     36  O   UNL     1       3.376  13.491  21.781  0.00  0.00    +0.000 OA
BRANCH  35  37
ATOM     37  O   UNL     1       3.712  14.744  19.886  0.00  0.00    +0.000 OA
ATOM     38  C   UNL     1       5.044  15.066  20.299  0.00  0.00    +0.000 C 
ENDBRANCH  35  37
ENDBRANCH  31  35
ENDBRANCH  29  31
ENDBRANCH   1  29
TORSDOF 12
ENDMDL
MODEL 7
REMARK VINA RESULT:      -7.2      5.322      9.622
REMARK  Name = 
REMARK  16 active torsions:
REMARK  status: ('A' for Active; 'I' for Inactive)
REMARK    1  A    between atoms: C_1  and  C_2
REMARK    2  A    between atoms: C_2  and  O_3
REMARK    3  A    between atoms: O_3  and  C_4
REMARK    4  A    between atoms: C_4  and  C_6
REMARK    5  A    between atoms: C_15  and  C_16
REMARK    6  A    between atoms: C_16  and  N_17
REMARK    7  A    between atoms: C_16  and  C_26
REMARK    8  A    between atoms: N_17  and  C_18
REMARK    9  A    between atoms: C_18  and  C_19
REMARK   10  A    between atoms: C_18  and  C_23
REMARK   11  A    between atoms: C_19  and  O_21
REMARK   12  A    between atoms: O_21  and  C_22
REMARK   13  A    between atoms: C_23  and  C_24
REMARK   14  A    between atoms: C_23  and  C_25
REMARK   15  A    between atoms: N_28  and  C_29
REMARK   16  A    between atoms: C_29  and  C_30
REMARK                            x       y       z     vdW  Elec       q    Type
REMARK                         _______ _______ _______ _____ _____    ______ ____
ROOT
ATOM      1  C   UNL     1       0.372  10.047  18.787  0.00  0.00    +0.000 C 
ENDROOT
BRANCH   1  11
ATOM      2  C   UNL     1       0.322  11.476  21.142  0.00  0.00    +0.000 A 
ATOM      3  N   UNL     1       0.884  12.713  21.440  0.00  0.00    +0.000 N 
ATOM      4  C   UNL     1       1.748  13.148  20.492  0.00  0.00    +0.000 A 
ATOM      5  C   UNL     1       2.696  14.179  20.551  0.00  0.00    +0.000 A 
ATOM      6  C   UNL     1       3.438  14.432  19.402  0.00  0.00    +0.000 A 
ATOM      7 CL   UNL     1       4.715  15.584  19.456  0.00  0.00    +0.000 Cl
ATOM      8  C   UNL     1       3.158  13.759  18.220  0.00  0.00    +0.000 A 
ATOM      9  C   UNL     1       2.170  12.759  18.183  0.00  0.00    +0.000 A 
ATOM     10  C   UNL     1       1.504  12.365  19.374  0.00  0.00    +0.000 A 
ATOM     11  C   UNL     1       0.666  11.201  19.791  0.00  0.00    +0.000 A 
ATOM     12  H   UNL     1       0.765  13.151  22.348  0.00  0.00    +0.000 HD
BRANCH   2  13
ATOM     13  C   UNL     1      -0.369  10.917  22.308  0.00  0.00    +0.000 C 
ATOM     14  O   UNL     1      -0.720   9.728  22.322  0.00  0.00    +0.000 OA
BRANCH  13  15
ATOM     15  O   UNL     1      -0.814  11.822  23.208  0.00  0.00    +0.000 OA
BRANCH  15  17
ATOM     16  C   UNL     1      -3.074  12.586  22.390  0.00  0.00    +0.000 C 
ATOM     17  C   UNL     1      -2.246  11.810  23.407  0.00  0.00    +0.000 C 
ENDBRANCH  15  17
ENDBRANCH  13  15
ENDBRANCH   2  13
ENDBRANCH   1  11
BRANCH   1  18
ATOM     18  C   UNL     1       1.425   8.986  18.324  0.00  0.00    +0.000 C 
ATOM     19  O   UNL     1       1.993   9.010  17.240  0.00  0.00    +0.000 OA
ATOM     20  N   UNL     1       1.758   8.053  19.321  0.00  0.00    +0.000 N 
ATOM     21  H   UNL     1       1.358   8.217  20.242  0.00  0.00    +0.000 HD
BRANCH  20  22
ATOM     22  C   UNL     1       2.684   6.960  19.110  0.00  0.00    +0.000 C 
BRANCH  22  23
ATOM     23  C   UNL     1       2.057   5.580  19.219  0.00  0.00    +0.000 A 
ATOM     24  C   UNL     1       1.936   4.746  18.096  0.00  0.00    +0.000 A 
ATOM     25  C   UNL     1       1.444   3.437  18.215  0.00  0.00    +0.000 A 
ATOM     26  C   UNL     1       1.062   2.941  19.459  0.00  0.00    +0.000 A 
ATOM     27  C   UNL     1       1.177   3.753  20.584  0.00  0.00    +0.000 A 
ATOM     28  C   UNL     1       1.669   5.059  20.465  0.00  0.00    +0.000 A 
ENDBRANCH  22  23
ENDBRANCH  20  22
ENDBRANCH   1  18
BRANCH   1  29
ATOM     29  N   UNL     1      -0.435  10.465  17.584  0.00  0.00    +0.000 NA
ATOM     30  H   UNL     1       0.047  10.091  16.767  0.00  0.00    +0.000 HD
BRANCH  29  31
ATOM     31  C   UNL     1      -1.856  10.056  17.487  0.00  0.00    +0.000 C 
BRANCH  31  32
ATOM     32  C   UNL     1      -2.882  10.511  18.568  0.00  0.00    +0.000 C 
ATOM     33  C   UNL     1      -2.612  11.991  18.900  0.00  0.00    +0.000 C 
ATOM     34  C   UNL     1      -4.357  10.416  18.195  0.00  0.00    +0.000 C 
ENDBRANCH  31  32
BRANCH  31  35
ATOM     35  C   UNL     1      -2.360  10.556  16.095  0.00  0.00    +0.000 C 
ATOM     36  O   UNL     1      -2.460  11.739  15.795  0.00  0.00    +0.000 OA
BRANCH  35  37
ATOM     37  O   UNL     1      -2.724   9.512  15.296  0.00  0.00    +0.000 OA
ATOM     38  C   UNL     1      -3.313   9.836  14.032  0.00  0.00    +0.000 C 
ENDBRANCH  35  37
ENDBRANCH  31  35
ENDBRANCH  29  31
ENDBRANCH   1  29
TORSDOF 12
ENDMDL
MODEL 8
REMARK VINA RESULT:      -7.1      5.571     10.406
REMARK  Name = 
REMARK  16 active torsions:
REMARK  status: ('A' for Active; 'I' for Inactive)
REMARK    1  A    between atoms: C_1  and  C_2
REMARK    2  A    between atoms: C_2  and  O_3
REMARK    3  A    between atoms: O_3  and  C_4
REMARK    4  A    between atoms: C_4  and  C_6
REMARK    5  A    between atoms: C_15  and  C_16
REMARK    6  A    between atoms: C_16  and  N_17
REMARK    7  A    between atoms: C_16  and  C_26
REMARK    8  A    between atoms: N_17  and  C_18
REMARK    9  A    between atoms: C_18  and  C_19
REMARK   10  A    between atoms: C_18  and  C_23
REMARK   11  A    between atoms: C_19  and  O_21
REMARK   12  A    between atoms: O_21  and  C_22
REMARK   13  A    between atoms: C_23  and  C_24
REMARK   14  A    between atoms: C_23  and  C_25
REMARK   15  A    between atoms: N_28  and  C_29
REMARK   16  A    between atoms: C_29  and  C_30
REMARK                            x       y       z     vdW  Elec       q    Type
REMARK                         _______ _______ _______ _____ _____    ______ ____
ROOT
ATOM      1  C   UNL     1       0.369  11.515  20.158  0.00  0.00    +0.000 C 
ENDROOT
BRANCH   1  11
ATOM      2  C   UNL     1      -2.086  12.764  20.099  0.00  0.00    +0.000 A 
ATOM      3  N   UNL     1      -3.191  12.509  19.293  0.00  0.00    +0.000 N 
ATOM      4  C   UNL     1      -2.917  11.674  18.262  0.00  0.00    +0.000 A 
ATOM      5  C   UNL     1      -3.665  11.402  17.108  0.00  0.00    +0.000 A 
ATOM      6  C   UNL     1      -3.151  10.464  16.220  0.00  0.00    +0.000 A 
ATOM      7 CL   UNL     1      -3.948  10.194  14.718  0.00  0.00    +0.000 Cl
ATOM      8  C   UNL     1      -2.001   9.752  16.534  0.00  0.00    +0.000 A 
ATOM      9  C   UNL     1      -1.297  10.018  17.721  0.00  0.00    +0.000 A 
ATOM     10  C   UNL     1      -1.704  11.078  18.574  0.00  0.00    +0.000 A 
ATOM     11  C   UNL     1      -1.083  11.839  19.700  0.00  0.00    +0.000 A 
ATOM     12  H   UNL     1      -4.058  13.027  19.393  0.00  0.00    +0.000 HD
BRANCH   2  13
ATOM     13  C   UNL     1      -2.347  13.881  21.012  0.00  0.00    +0.000 C 
ATOM     14  O   UNL     1      -3.043  14.842  20.649  0.00  0.00    +0.000 OA
BRANCH  13  15
ATOM     15  O   UNL     1      -1.585  13.910  22.128  0.00  0.00    +0.000 OA
BRANCH  15  17
ATOM     16  C   UNL     1      -2.290  11.814  23.340  0.00  0.00    +0.000 C 
ATOM     17  C   UNL     1      -2.215  13.335  23.295  0.00  0.00    +0.000 C 
ENDBRANCH  15  17
ENDBRANCH  13  15
ENDBRANCH   2  13
ENDBRANCH   1  11
BRANCH   1  18
ATOM     18  C   UNL     1       0.757  10.327  21.100  0.00  0.00    +0.000 C 
ATOM     19  O   UNL     1       0.704  10.374  22.322  0.00  0.00    +0.000 OA
ATOM     20  N   UNL     1       1.063   9.141  20.411  0.00  0.00    +0.000 N 
ATOM     21  H   UNL     1       0.915   9.154  19.405  0.00  0.00    +0.000 HD
BRANCH  20  22
ATOM     22  C   UNL     1       1.481   7.922  21.072  0.00  0.00    +0.000 C 
BRANCH  22  23
ATOM     23  C   UNL     1       1.912   6.814  20.126  0.00  0.00    +0.000 A 
ATOM     24  C   UNL     1       2.494   7.107  18.882  0.00  0.00    +0.000 A 
ATOM     25  C   UNL     1       2.977   6.085  18.050  0.00  0.00    +0.000 A 
ATOM     26  C   UNL     1       2.885   4.754  18.447  0.00  0.00    +0.000 A 
ATOM     27  C   UNL     1       2.314   4.445  19.679  0.00  0.00    +0.000 A 
ATOM     28  C   UNL     1       1.832   5.465  20.510  0.00  0.00    +0.000 A 
ENDBRANCH  22  23
ENDBRANCH  20  22
ENDBRANCH   1  18
BRANCH   1  29
ATOM     29  N   UNL     1       1.171  12.724  20.571  0.00  0.00    +0.000 NA
ATOM     30  H   UNL     1       2.094  12.382  20.836  0.00  0.00    +0.000 HD
BRANCH  29  31
ATOM     31  C   UNL     1       1.367  13.828  19.602  0.00  0.00    +0.000 C 
BRANCH  31  32
ATOM     32  C   UNL     1       1.474  15.301  20.097  0.00  0.00    +0.000 C 
ATOM     33  C   UNL     1       0.300  16.099  19.499  0.00  0.00    +0.000 C 
ATOM     34  C   UNL     1       1.422  15.522  21.604  0.00  0.00    +0.000 C 
ENDBRANCH  31  32
BRANCH  31  35
ATOM     35  C   UNL     1       2.669  13.484  18.808  0.00  0.00    +0.000 C 
ATOM     36  O   UNL     1       2.764  12.537  18.039  0.00  0.00    +0.000 OA
BRANCH  35  37
ATOM     37  O   UNL     1       3.686  14.335  19.133  0.00  0.00    +0.000 OA
ATOM     38  C   UNL     1       4.438  14.892  18.050  0.00  0.00    +0.000 C 
ENDBRANCH  35  37
ENDBRANCH  31  35
ENDBRANCH  29  31
ENDBRANCH   1  29
TORSDOF 12
ENDMDL
MODEL 9
REMARK VINA RESULT:      -7.1      5.609      9.200
REMARK  Name = 
REMARK  16 active torsions:
REMARK  status: ('A' for Active; 'I' for Inactive)
REMARK    1  A    between atoms: C_1  and  C_2
REMARK    2  A    between atoms: C_2  and  O_3
REMARK    3  A    between atoms: O_3  and  C_4
REMARK    4  A    between atoms: C_4  and  C_6
REMARK    5  A    between atoms: C_15  and  C_16
REMARK    6  A    between atoms: C_16  and  N_17
REMARK    7  A    between atoms: C_16  and  C_26
REMARK    8  A    between atoms: N_17  and  C_18
REMARK    9  A    between atoms: C_18  and  C_19
REMARK   10  A    between atoms: C_18  and  C_23
REMARK   11  A    between atoms: C_19  and  O_21
REMARK   12  A    between atoms: O_21  and  C_22
REMARK   13  A    between atoms: C_23  and  C_24
REMARK   14  A    between atoms: C_23  and  C_25
REMARK   15  A    between atoms: N_28  and  C_29
REMARK   16  A    between atoms: C_29  and  C_30
REMARK                            x       y       z     vdW  Elec       q    Type
REMARK                         _______ _______ _______ _____ _____    ______ ____
ROOT
ATOM      1  C   UNL     1       0.363  11.474  19.042  0.00  0.00    +0.000 C 
ENDROOT
BRANCH   1  11
ATOM      2  C   UNL     1       0.600   9.722  21.156  0.00  0.00    +0.000 A 
ATOM      3  N   UNL     1       1.301   8.523  21.239  0.00  0.00    +0.000 N 
ATOM      4  C   UNL     1       1.736   8.076  20.037  0.00  0.00    +0.000 A 
ATOM      5  C   UNL     1       2.220   6.811  19.675  0.00  0.00    +0.000 A 
ATOM      6  C   UNL     1       2.632   6.637  18.358  0.00  0.00    +0.000 A 
ATOM      7 CL   UNL     1       3.099   5.072  17.817  0.00  0.00    +0.000 Cl
ATOM      8  C   UNL     1       2.662   7.713  17.481  0.00  0.00    +0.000 A 
ATOM      9  C   UNL     1       2.209   8.980  17.888  0.00  0.00    +0.000 A 
ATOM     10  C   UNL     1       1.634   9.157  19.175  0.00  0.00    +0.000 A 
ATOM     11  C   UNL     1       0.802  10.207  19.835  0.00  0.00    +0.000 A 
ATOM     12  H   UNL     1       1.334   7.981  22.096  0.00  0.00    +0.000 HD
BRANCH   2  13
ATOM     13  C   UNL     1      -0.092  10.016  22.415  0.00  0.00    +0.000 C 
ATOM     14  O   UNL     1      -0.805   9.157  22.956  0.00  0.00    +0.000 OA
BRANCH  13  15
ATOM     15  O   UNL     1      -0.110  11.317  22.778  0.00  0.00    +0.000 OA
BRANCH  15  17
ATOM     16  C   UNL     1      -1.545  13.373  23.051  0.00  0.00    +0.000 C 
ATOM     17  C   UNL     1      -1.433  11.854  23.005  0.00  0.00    +0.000 C 
ENDBRANCH  15  17
ENDBRANCH  13  15
ENDBRANCH   2  13
ENDBRANCH   1  11
BRANCH   1  18
ATOM     18  C   UNL     1       1.224  12.773  18.901  0.00  0.00    +0.000 C 
ATOM     19  O   UNL     1       2.008  12.980  17.984  0.00  0.00    +0.000 OA
ATOM     20  N   UNL     1       0.931  13.749  19.868  0.00  0.00    +0.000 N 
ATOM     21  H   UNL     1       0.146  13.550  20.485  0.00  0.00    +0.000 HD
BRANCH  20  22
ATOM     22  C   UNL     1       1.625  15.017  19.954  0.00  0.00    +0.000 C 
BRANCH  22  23
ATOM     23  C   UNL     1       1.037  16.112  19.079  0.00  0.00    +0.000 A 
ATOM     24  C   UNL     1       1.851  16.877  18.228  0.00  0.00    +0.000 A 
ATOM     25  C   UNL     1       1.296  17.823  17.353  0.00  0.00    +0.000 A 
ATOM     26  C   UNL     1      -0.081  18.022  17.315  0.00  0.00    +0.000 A 
ATOM     27  C   UNL     1      -0.904  17.270  18.150  0.00  0.00    +0.000 A 
ATOM     28  C   UNL     1      -0.350  16.325  19.023  0.00  0.00    +0.000 A 
ENDBRANCH  22  23
ENDBRANCH  20  22
ENDBRANCH   1  18
BRANCH   1  29
ATOM     29  N   UNL     1      -1.070  11.882  19.273  0.00  0.00    +0.000 NA
ATOM     30  H   UNL     1      -1.045  12.837  19.630  0.00  0.00    +0.000 HD
BRANCH  29  31
ATOM     31  C   UNL     1      -2.023  11.855  18.138  0.00  0.00    +0.000 C 
BRANCH  31  32
ATOM     32  C   UNL     1      -2.074  10.627  17.182  0.00  0.00    +0.000 C 
ATOM     33  C   UNL     1      -2.934   9.533  17.843  0.00  0.00    +0.000 C 
ATOM     34  C   UNL     1      -2.665  10.861  15.797  0.00  0.00    +0.000 C 
ENDBRANCH  31  32
BRANCH  31  35
ATOM     35  C   UNL     1      -3.444  12.050  18.758  0.00  0.00    +0.000 C 
ATOM     36  O   UNL     1      -4.476  12.058  18.100  0.00  0.00    +0.000 OA
BRANCH  35  37
ATOM     37  O   UNL     1      -3.372  12.267  20.104  0.00  0.00    +0.000 OA
ATOM     38  C   UNL     1      -4.549  12.768  20.746  0.00  0.00    +0.000 C 
ENDBRANCH  35  37
ENDBRANCH  31  35
ENDBRANCH  29  31
ENDBRANCH   1  29
TORSDOF 12
ENDMDL
