MODEL 1
REMARK VINA RESULT:      -6.2      0.000      0.000
REMARK  Name = 
REMARK  18 active torsions:
REMARK  status: ('A' for Active; 'I' for Inactive)
REMARK    1  A    between atoms: C_1  and  C_2
REMARK    2  A    between atoms: C_2  and  C_3
REMARK    3  A    between atoms: C_3  and  C_4
REMARK    4  A    between atoms: C_4  and  C_5
REMARK    5  A    between atoms: C_5  and  C_6
REMARK    6  A    between atoms: C_6  and  C_7
REMARK    7  A    between atoms: C_7  and  C_8
REMARK    8  A    between atoms: C_8  and  C_9
REMARK    9  A    between atoms: C_9  and  C_10
REMARK   10  A    between atoms: C_10  and  C_11
REMARK   11  A    between atoms: C_11  and  C_12
REMARK   12  A    between atoms: C_12  and  C_13
REMARK   13  A    between atoms: C_13  and  C_14
REMARK   14  A    between atoms: C_14  and  C_15
REMARK   15  A    between atoms: C_15  and  N_16
REMARK   16  A    between atoms: C_19  and  C_20
REMARK   17  A    between atoms: C_20  and  C_21
REMARK   18  A    between atoms: C_21  and  C_22
REMARK                            x       y       z     vdW  Elec       q    Type
REMARK                         _______ _______ _______ _____ _____    ______ ____
ROOT
ATOM      1  C   UNL     1       8.166   7.173  18.573  0.00  0.00    +0.000 C 
ENDROOT
BRANCH   1   2
ATOM      2  N   UNL     1       7.223   6.280  17.886  0.00  0.00    +0.000 NA
ATOM      3  C   UNL     1       6.564   5.360  18.825  0.00  0.00    +0.000 C 
ATOM      4  C   UNL     1       5.594   4.434  18.104  0.00  0.00    +0.000 C 
ATOM      5  C   UNL     1       4.526   5.227  17.351  0.00  0.00    +0.000 C 
ATOM      6  C   UNL     1       5.242   6.186  16.389  0.00  0.00    +0.000 C 
ATOM      7  C   UNL     1       6.256   7.074  17.113  0.00  0.00    +0.000 C 
BRANCH   5   8
ATOM      8  C   UNL     1       3.565   6.005  18.273  0.00  0.00    +0.000 C 
BRANCH   8   9
ATOM      9  C   UNL     1       3.021   5.168  19.432  0.00  0.00    +0.000 C 
BRANCH   9  10
ATOM     10  C   UNL     1       1.573   4.678  19.211  0.00  0.00    +0.000 C 
ATOM     11  C   UNL     1       1.125   3.796  20.389  0.00  0.00    +0.000 C 
ATOM     12  C   UNL     1       1.804   2.423  20.370  0.00  0.00    +0.000 C 
ATOM     13  N   UNL     1       1.621   1.729  19.093  0.00  0.00    +0.000 NA
ATOM     14  C   UNL     1       2.089   2.537  17.965  0.00  0.00    +0.000 C 
ATOM     15  C   UNL     1       1.372   3.882  17.911  0.00  0.00    +0.000 C 
ATOM     16  H   UNL     1       0.625   1.541  18.967  0.00  0.00    +0.000 HD
ENDBRANCH   9  10
ENDBRANCH   8   9
ENDBRANCH   5   8
ENDBRANCH   1   2
BRANCH   1  17
ATOM     17  C   UNL     1       8.098   8.588  18.005  0.00  0.00    +0.000 C 
BRANCH  17  18
ATOM     18  C   UNL     1       8.878   9.572  18.858  0.00  0.00    +0.000 C 
BRANCH  18  19
ATOM     19  C   UNL     1       9.350  10.719  17.977  0.00  0.00    +0.000 C 
BRANCH  19  20
ATOM     20  C   UNL     1       9.234  12.035  18.718  0.00  0.00    +0.000 C 
BRANCH  20  21
ATOM     21  C   UNL     1       9.421  13.198  17.756  0.00  0.00    +0.000 C 
BRANCH  21  22
ATOM     22  C   UNL     1      10.879  13.626  17.746  0.00  0.00    +0.000 C 
BRANCH  22  23
ATOM     23  C   UNL     1      11.490  13.459  19.127  0.00  0.00    +0.000 C 
BRANCH  23  24
ATOM     24  C   UNL     1      12.080  14.778  19.601  0.00  0.00    +0.000 C 
BRANCH  24  25
ATOM     25  C   UNL     1      11.150  15.446  20.602  0.00  0.00    +0.000 C 
BRANCH  25  26
ATOM     26  C   UNL     1      10.300  14.403  21.317  0.00  0.00    +0.000 C 
BRANCH  26  27
ATOM     27  C   UNL     1       8.842  14.841  21.371  0.00  0.00    +0.000 C 
BRANCH  27  28
ATOM     28  C   UNL     1       8.692  16.267  20.850  0.00  0.00    +0.000 C 
BRANCH  28  30
ATOM     29  C   UNL     1       8.338  16.538  18.381  0.00  0.00    +0.000 C 
ATOM     30  C   UNL     1       7.663  16.334  19.726  0.00  0.00    +0.000 C 
ENDBRANCH  28  30
ENDBRANCH  27  28
ENDBRANCH  26  27
ENDBRANCH  25  26
ENDBRANCH  24  25
ENDBRANCH  23  24
ENDBRANCH  22  23
ENDBRANCH  21  22
ENDBRANCH  20  21
ENDBRANCH  19  20
ENDBRANCH  18  19
ENDBRANCH  17  18
ENDBRANCH   1  17
TORSDOF 17
ENDMDL
MODEL 2
REMARK VINA RESULT:      -6.1      5.748      9.841
REMARK  Name = 
REMARK  18 active torsions:
REMARK  status: ('A' for Active; 'I' for Inactive)
REMARK    1  A    between atoms: C_1  and  C_2
REMARK    2  A    between atoms: C_2  and  C_3
REMARK    3  A    between atoms: C_3  and  C_4
REMARK    4  A    between atoms: C_4  and  C_5
REMARK    5  A    between atoms: C_5  and  C_6
REMARK    6  A    between atoms: C_6  and  C_7
REMARK    7  A    between atoms: C_7  and  C_8
REMARK    8  A    between atoms: C_8  and  C_9
REMARK    9  A    between atoms: C_9  and  C_10
REMARK   10  A    between atoms: C_10  and  C_11
REMARK   11  A    between atoms: C_11  and  C_12
REMARK   12  A    between atoms: C_12  and  C_13
REMARK   13  A    between atoms: C_13  and  C_14
REMARK   14  A    between atoms: C_14  and  C_15
REMARK   15  A    between atoms: C_15  and  N_16
REMARK   16  A    between atoms: C_19  and  C_20
REMARK   17  A    between atoms: C_20  and  C_21
REMARK   18  A    between atoms: C_21  and  C_22
REMARK                            x       y       z     vdW  Elec       q    Type
REMARK                         _______ _______ _______ _____ _____    ______ ____
ROOT
ATOM      1  C   UNL     1       2.418   6.690  19.479  0.00  0.00    +0.000 C 
ENDROOT
BRANCH   1   2
ATOM      2  N   UNL     1       2.193   8.142  19.451  0.00  0.00    +0.000 NA
ATOM      3  C   UNL     1       1.747   8.597  18.126  0.00  0.00    +0.000 C 
ATOM      4  C   UNL     1       1.523  10.103  18.104  0.00  0.00    +0.000 C 
ATOM      5  C   UNL     1       0.489  10.525  19.149  0.00  0.00    +0.000 C 
ATOM      6  C   UNL     1       0.974  10.027  20.519  0.00  0.00    +0.000 C 
ATOM      7  C   UNL     1       1.252   8.522  20.516  0.00  0.00    +0.000 C 
BRANCH   5   8
ATOM      8  C   UNL     1      -0.934  10.007  18.859  0.00  0.00    +0.000 C 
BRANCH   8   9
ATOM      9  C   UNL     1      -1.453  10.391  17.472  0.00  0.00    +0.000 C 
BRANCH   9  10
ATOM     10  C   UNL     1      -2.635   9.521  16.995  0.00  0.00    +0.000 C 
ATOM     11  C   UNL     1      -3.046   9.920  15.567  0.00  0.00    +0.000 C 
ATOM     12  C   UNL     1      -3.768  11.270  15.533  0.00  0.00    +0.000 C 
ATOM     13  N   UNL     1      -4.916  11.311  16.441  0.00  0.00    +0.000 NA
ATOM     14  C   UNL     1      -4.532  10.982  17.816  0.00  0.00    +0.000 C 
ATOM     15  C   UNL     1      -3.880   9.605  17.894  0.00  0.00    +0.000 C 
ATOM     16  H   UNL     1      -5.605  10.627  16.123  0.00  0.00    +0.000 HD
ENDBRANCH   9  10
ENDBRANCH   8   9
ENDBRANCH   5   8
ENDBRANCH   1   2
BRANCH   1  17
ATOM     17  C   UNL     1       1.764   6.009  18.280  0.00  0.00    +0.000 C 
BRANCH  17  18
ATOM     18  C   UNL     1       1.295   4.606  18.622  0.00  0.00    +0.000 C 
BRANCH  18  19
ATOM     19  C   UNL     1       1.199   4.476  20.135  0.00  0.00    +0.000 C 
BRANCH  19  20
ATOM     20  C   UNL     1       2.008   3.288  20.614  0.00  0.00    +0.000 C 
BRANCH  20  21
ATOM     21  C   UNL     1       1.850   2.122  19.651  0.00  0.00    +0.000 C 
BRANCH  21  22
ATOM     22  C   UNL     1       3.098   1.991  18.795  0.00  0.00    +0.000 C 
BRANCH  22  23
ATOM     23  C   UNL     1       4.317   2.488  19.554  0.00  0.00    +0.000 C 
BRANCH  23  24
ATOM     24  C   UNL     1       4.929   3.682  18.837  0.00  0.00    +0.000 C 
BRANCH  24  25
ATOM     25  C   UNL     1       4.523   3.687  17.372  0.00  0.00    +0.000 C 
BRANCH  25  26
ATOM     26  C   UNL     1       5.358   4.695  16.591  0.00  0.00    +0.000 C 
BRANCH  26  27
ATOM     27  C   UNL     1       4.809   6.104  16.775  0.00  0.00    +0.000 C 
BRANCH  27  28
ATOM     28  C   UNL     1       5.852   7.005  17.427  0.00  0.00    +0.000 C 
BRANCH  28  30
ATOM     29  C   UNL     1       7.858   6.283  18.750  0.00  0.00    +0.000 C 
ATOM     30  C   UNL     1       7.238   6.371  17.366  0.00  0.00    +0.000 C 
ENDBRANCH  28  30
ENDBRANCH  27  28
ENDBRANCH  26  27
ENDBRANCH  25  26
ENDBRANCH  24  25
ENDBRANCH  23  24
ENDBRANCH  22  23
ENDBRANCH  21  22
ENDBRANCH  20  21
ENDBRANCH  19  20
ENDBRANCH  18  19
ENDBRANCH  17  18
ENDBRANCH   1  17
TORSDOF 17
ENDMDL
MODEL 3
REMARK VINA RESULT:      -6.0      1.456      2.276
REMARK  Name = 
REMARK  18 active torsions:
REMARK  status: ('A' for Active; 'I' for Inactive)
REMARK    1  A    between atoms: C_1  and  C_2
REMARK    2  A    between atoms: C_2  and  C_3
REMARK    3  A    between atoms: C_3  and  C_4
REMARK    4  A    between atoms: C_4  and  C_5
REMARK    5  A    between atoms: C_5  and  C_6
REMARK    6  A    between atoms: C_6  and  C_7
REMARK    7  A    between atoms: C_7  and  C_8
REMARK    8  A    between atoms: C_8  and  C_9
REMARK    9  A    between atoms: C_9  and  C_10
REMARK   10  A    between atoms: C_10  and  C_11
REMARK   11  A    between atoms: C_11  and  C_12
REMARK   12  A    between atoms: C_12  and  C_13
REMARK   13  A    between atoms: C_13  and  C_14
REMARK   14  A    between atoms: C_14  and  C_15
REMARK   15  A    between atoms: C_15  and  N_16
REMARK   16  A    between atoms: C_19  and  C_20
REMARK   17  A    between atoms: C_20  and  C_21
REMARK   18  A    between atoms: C_21  and  C_22
REMARK                            x       y       z     vdW  Elec       q    Type
REMARK                         _______ _______ _______ _____ _____    ______ ____
ROOT
ATOM      1  C   UNL     1       7.523   8.712  17.566  0.00  0.00    +0.000 C 
ENDROOT
BRANCH   1   2
ATOM      2  N   UNL     1       7.461   7.289  17.207  0.00  0.00    +0.000 NA
ATOM      3  C   UNL     1       7.597   6.424  18.389  0.00  0.00    +0.000 C 
ATOM      4  C   UNL     1       7.538   4.951  18.006  0.00  0.00    +0.000 C 
ATOM      5  C   UNL     1       6.229   4.615  17.291  0.00  0.00    +0.000 C 
ATOM      6  C   UNL     1       6.108   5.540  16.071  0.00  0.00    +0.000 C 
ATOM      7  C   UNL     1       6.226   7.016  16.457  0.00  0.00    +0.000 C 
BRANCH   5   8
ATOM      8  C   UNL     1       4.982   4.740  18.190  0.00  0.00    +0.000 C 
BRANCH   8   9
ATOM      9  C   UNL     1       4.198   3.434  18.330  0.00  0.00    +0.000 C 
BRANCH   9  10
ATOM     10  C   UNL     1       2.744   3.531  17.819  0.00  0.00    +0.000 C 
ATOM     11  C   UNL     1       2.077   4.811  18.355  0.00  0.00    +0.000 C 
ATOM     12  C   UNL     1       1.756   4.709  19.849  0.00  0.00    +0.000 C 
ATOM     13  N   UNL     1       0.953   3.525  20.167  0.00  0.00    +0.000 NA
ATOM     14  C   UNL     1       1.599   2.293  19.706  0.00  0.00    +0.000 C 
ATOM     15  C   UNL     1       1.861   2.333  18.204  0.00  0.00    +0.000 C 
ATOM     16  H   UNL     1       0.049   3.612  19.699  0.00  0.00    +0.000 HD
ENDBRANCH   9  10
ENDBRANCH   8   9
ENDBRANCH   5   8
ENDBRANCH   1   2
BRANCH   1  17
ATOM     17  C   UNL     1       8.801   9.030  18.338  0.00  0.00    +0.000 C 
BRANCH  17  18
ATOM     18  C   UNL     1       8.714  10.376  19.034  0.00  0.00    +0.000 C 
BRANCH  18  19
ATOM     19  C   UNL     1      10.102  10.998  19.072  0.00  0.00    +0.000 C 
BRANCH  19  20
ATOM     20  C   UNL     1      10.602  11.260  17.666  0.00  0.00    +0.000 C 
BRANCH  20  21
ATOM     21  C   UNL     1      11.694  12.318  17.685  0.00  0.00    +0.000 C 
BRANCH  21  22
ATOM     22  C   UNL     1      11.341  13.438  16.722  0.00  0.00    +0.000 C 
BRANCH  22  23
ATOM     23  C   UNL     1      11.931  14.754  17.199  0.00  0.00    +0.000 C 
BRANCH  23  24
ATOM     24  C   UNL     1      10.856  15.598  17.866  0.00  0.00    +0.000 C 
BRANCH  24  25
ATOM     25  C   UNL     1      11.335  16.095  19.221  0.00  0.00    +0.000 C 
BRANCH  25  26
ATOM     26  C   UNL     1      11.258  14.978  20.256  0.00  0.00    +0.000 C 
BRANCH  26  27
ATOM     27  C   UNL     1       9.822  14.501  20.426  0.00  0.00    +0.000 C 
BRANCH  27  28
ATOM     28  C   UNL     1       9.688  13.638  21.676  0.00  0.00    +0.000 C 
BRANCH  28  30
ATOM     29  C   UNL     1       8.340  11.770  22.671  0.00  0.00    +0.000 C 
ATOM     30  C   UNL     1       8.321  12.964  21.732  0.00  0.00    +0.000 C 
ENDBRANCH  28  30
ENDBRANCH  27  28
ENDBRANCH  26  27
ENDBRANCH  25  26
ENDBRANCH  24  25
ENDBRANCH  23  24
ENDBRANCH  22  23
ENDBRANCH  21  22
ENDBRANCH  20  21
ENDBRANCH  19  20
ENDBRANCH  18  19
ENDBRANCH  17  18
ENDBRANCH   1  17
TORSDOF 17
ENDMDL
MODEL 4
REMARK VINA RESULT:      -6.0      1.578      2.278
REMARK  Name = 
REMARK  18 active torsions:
REMARK  status: ('A' for Active; 'I' for Inactive)
REMARK    1  A    between atoms: C_1  and  C_2
REMARK    2  A    between atoms: C_2  and  C_3
REMARK    3  A    between atoms: C_3  and  C_4
REMARK    4  A    between atoms: C_4  and  C_5
REMARK    5  A    between atoms: C_5  and  C_6
REMARK    6  A    between atoms: C_6  and  C_7
REMARK    7  A    between atoms: C_7  and  C_8
REMARK    8  A    between atoms: C_8  and  C_9
REMARK    9  A    between atoms: C_9  and  C_10
REMARK   10  A    between atoms: C_10  and  C_11
REMARK   11  A    between atoms: C_11  and  C_12
REMARK   12  A    between atoms: C_12  and  C_13
REMARK   13  A    between atoms: C_13  and  C_14
REMARK   14  A    between atoms: C_14  and  C_15
REMARK   15  A    between atoms: C_15  and  N_16
REMARK   16  A    between atoms: C_19  and  C_20
REMARK   17  A    between atoms: C_20  and  C_21
REMARK   18  A    between atoms: C_21  and  C_22
REMARK                            x       y       z     vdW  Elec       q    Type
REMARK                         _______ _______ _______ _____ _____    ______ ____
ROOT
ATOM      1  C   UNL     1       7.235   8.093  17.971  0.00  0.00    +0.000 C 
ENDROOT
BRANCH   1   2
ATOM      2  N   UNL     1       6.978   6.977  17.051  0.00  0.00    +0.000 NA
ATOM      3  C   UNL     1       7.472   5.702  17.593  0.00  0.00    +0.000 C 
ATOM      4  C   UNL     1       7.208   4.552  16.630  0.00  0.00    +0.000 C 
ATOM      5  C   UNL     1       5.716   4.417  16.323  0.00  0.00    +0.000 C 
ATOM      6  C   UNL     1       5.225   5.764  15.772  0.00  0.00    +0.000 C 
ATOM      7  C   UNL     1       5.546   6.923  16.719  0.00  0.00    +0.000 C 
BRANCH   5   8
ATOM      8  C   UNL     1       4.868   3.990  17.539  0.00  0.00    +0.000 C 
BRANCH   8   9
ATOM      9  C   UNL     1       3.364   3.978  17.260  0.00  0.00    +0.000 C 
BRANCH   9  10
ATOM     10  C   UNL     1       2.669   2.668  17.690  0.00  0.00    +0.000 C 
ATOM     11  C   UNL     1       1.288   2.974  18.295  0.00  0.00    +0.000 C 
ATOM     12  C   UNL     1       1.396   3.606  19.686  0.00  0.00    +0.000 C 
ATOM     13  N   UNL     1       2.206   2.799  20.603  0.00  0.00    +0.000 NA
ATOM     14  C   UNL     1       3.543   2.541  20.061  0.00  0.00    +0.000 C 
ATOM     15  C   UNL     1       3.467   1.839  18.709  0.00  0.00    +0.000 C 
ATOM     16  H   UNL     1       1.735   1.904  20.747  0.00  0.00    +0.000 HD
ENDBRANCH   9  10
ENDBRANCH   8   9
ENDBRANCH   5   8
ENDBRANCH   1   2
BRANCH   1  17
ATOM     17  C   UNL     1       8.274   9.051  17.396  0.00  0.00    +0.000 C 
BRANCH  17  18
ATOM     18  C   UNL     1       8.395  10.313  18.232  0.00  0.00    +0.000 C 
BRANCH  18  19
ATOM     19  C   UNL     1       9.436  10.084  19.318  0.00  0.00    +0.000 C 
BRANCH  19  20
ATOM     20  C   UNL     1       9.418  11.226  20.314  0.00  0.00    +0.000 C 
BRANCH  20  21
ATOM     21  C   UNL     1      10.676  12.067  20.170  0.00  0.00    +0.000 C 
BRANCH  21  22
ATOM     22  C   UNL     1      11.620  11.414  19.175  0.00  0.00    +0.000 C 
BRANCH  22  23
ATOM     23  C   UNL     1      12.065  12.419  18.126  0.00  0.00    +0.000 C 
BRANCH  23  24
ATOM     24  C   UNL     1      10.856  13.127  17.533  0.00  0.00    +0.000 C 
BRANCH  24  25
ATOM     25  C   UNL     1      11.192  14.575  17.214  0.00  0.00    +0.000 C 
BRANCH  25  26
ATOM     26  C   UNL     1      10.015  15.482  17.551  0.00  0.00    +0.000 C 
BRANCH  26  27
ATOM     27  C   UNL     1       9.583  15.286  18.999  0.00  0.00    +0.000 C 
BRANCH  27  28
ATOM     28  C   UNL     1       8.062  15.291  19.110  0.00  0.00    +0.000 C 
BRANCH  28  30
ATOM     29  C   UNL     1       6.002  14.634  17.837  0.00  0.00    +0.000 C 
ATOM     30  C   UNL     1       7.441  14.270  18.161  0.00  0.00    +0.000 C 
ENDBRANCH  28  30
ENDBRANCH  27  28
ENDBRANCH  26  27
ENDBRANCH  25  26
ENDBRANCH  24  25
ENDBRANCH  23  24
ENDBRANCH  22  23
ENDBRANCH  21  22
ENDBRANCH  20  21
ENDBRANCH  19  20
ENDBRANCH  18  19
ENDBRANCH  17  18
ENDBRANCH   1  17
TORSDOF 17
ENDMDL
MODEL 5
REMARK VINA RESULT:      -5.8      1.261      2.031
REMARK  Name = 
REMARK  18 active torsions:
REMARK  status: ('A' for Active; 'I' for Inactive)
REMARK    1  A    between atoms: C_1  and  C_2
REMARK    2  A    between atoms: C_2  and  C_3
REMARK    3  A    between atoms: C_3  and  C_4
REMARK    4  A    between atoms: C_4  and  C_5
REMARK    5  A    between atoms: C_5  and  C_6
REMARK    6  A    between atoms: C_6  and  C_7
REMARK    7  A    between atoms: C_7  and  C_8
REMARK    8  A    between atoms: C_8  and  C_9
REMARK    9  A    between atoms: C_9  and  C_10
REMARK   10  A    between atoms: C_10  and  C_11
REMARK   11  A    between atoms: C_11  and  C_12
REMARK   12  A    between atoms: C_12  and  C_13
REMARK   13  A    between atoms: C_13  and  C_14
REMARK   14  A    between atoms: C_14  and  C_15
REMARK   15  A    between atoms: C_15  and  N_16
REMARK   16  A    between atoms: C_19  and  C_20
REMARK   17  A    between atoms: C_20  and  C_21
REMARK   18  A    between atoms: C_21  and  C_22
REMARK                            x       y       z     vdW  Elec       q    Type
REMARK                         _______ _______ _______ _____ _____    ______ ____
ROOT
ATOM      1  C   UNL     1       7.399   8.363  17.681  0.00  0.00    +0.000 C 
ENDROOT
BRANCH   1   2
ATOM      2  N   UNL     1       7.292   7.003  17.134  0.00  0.00    +0.000 NA
ATOM      3  C   UNL     1       7.666   5.987  18.129  0.00  0.00    +0.000 C 
ATOM      4  C   UNL     1       7.559   4.582  17.551  0.00  0.00    +0.000 C 
ATOM      5  C   UNL     1       6.143   4.293  17.052  0.00  0.00    +0.000 C 
ATOM      6  C   UNL     1       5.775   5.375  16.026  0.00  0.00    +0.000 C 
ATOM      7  C   UNL     1       5.941   6.786  16.596  0.00  0.00    +0.000 C 
BRANCH   5   8
ATOM      8  C   UNL     1       5.088   4.235  18.176  0.00  0.00    +0.000 C 
BRANCH   8   9
ATOM      9  C   UNL     1       3.713   3.762  17.699  0.00  0.00    +0.000 C 
BRANCH   9  10
ATOM     10  C   UNL     1       2.541   4.402  18.473  0.00  0.00    +0.000 C 
ATOM     11  C   UNL     1       2.829   4.383  19.984  0.00  0.00    +0.000 C 
ATOM     12  C   UNL     1       2.710   2.975  20.574  0.00  0.00    +0.000 C 
ATOM     13  N   UNL     1       1.417   2.353  20.277  0.00  0.00    +0.000 NA
ATOM     14  C   UNL     1       1.151   2.319  18.837  0.00  0.00    +0.000 C 
ATOM     15  C   UNL     1       1.184   3.720  18.234  0.00  0.00    +0.000 C 
ATOM     16  H   UNL     1       0.684   2.901  20.731  0.00  0.00    +0.000 HD
ENDBRANCH   9  10
ENDBRANCH   8   9
ENDBRANCH   5   8
ENDBRANCH   1   2
BRANCH   1  17
ATOM     17  C   UNL     1       8.672   8.526  18.506  0.00  0.00    +0.000 C 
BRANCH  17  18
ATOM     18  C   UNL     1       8.826   9.945  19.023  0.00  0.00    +0.000 C 
BRANCH  18  19
ATOM     19  C   UNL     1       9.583  10.764  17.988  0.00  0.00    +0.000 C 
BRANCH  19  20
ATOM     20  C   UNL     1      10.538  11.723  18.671  0.00  0.00    +0.000 C 
BRANCH  20  21
ATOM     21  C   UNL     1      11.792  11.902  17.831  0.00  0.00    +0.000 C 
BRANCH  21  22
ATOM     22  C   UNL     1      11.878  13.336  17.336  0.00  0.00    +0.000 C 
BRANCH  22  23
ATOM     23  C   UNL     1      11.224  14.280  18.331  0.00  0.00    +0.000 C 
BRANCH  23  24
ATOM     24  C   UNL     1      10.243  15.197  17.615  0.00  0.00    +0.000 C 
BRANCH  24  25
ATOM     25  C   UNL     1       8.839  15.006  18.168  0.00  0.00    +0.000 C 
BRANCH  25  26
ATOM     26  C   UNL     1       8.515  16.094  19.185  0.00  0.00    +0.000 C 
BRANCH  26  27
ATOM     27  C   UNL     1       7.936  15.486  20.456  0.00  0.00    +0.000 C 
BRANCH  27  28
ATOM     28  C   UNL     1       8.357  14.027  20.593  0.00  0.00    +0.000 C 
BRANCH  28  30
ATOM     29  C   UNL     1       9.502  15.034  22.585  0.00  0.00    +0.000 C 
ATOM     30  C   UNL     1       9.491  13.876  21.602  0.00  0.00    +0.000 C 
ENDBRANCH  28  30
ENDBRANCH  27  28
ENDBRANCH  26  27
ENDBRANCH  25  26
ENDBRANCH  24  25
ENDBRANCH  23  24
ENDBRANCH  22  23
ENDBRANCH  21  22
ENDBRANCH  20  21
ENDBRANCH  19  20
ENDBRANCH  18  19
ENDBRANCH  17  18
ENDBRANCH   1  17
TORSDOF 17
ENDMDL
MODEL 6
REMARK VINA RESULT:      -5.8      2.286      3.371
REMARK  Name = 
REMARK  18 active torsions:
REMARK  status: ('A' for Active; 'I' for Inactive)
REMARK    1  A    between atoms: C_1  and  C_2
REMARK    2  A    between atoms: C_2  and  C_3
REMARK    3  A    between atoms: C_3  and  C_4
REMARK    4  A    between atoms: C_4  and  C_5
REMARK    5  A    between atoms: C_5  and  C_6
REMARK    6  A    between atoms: C_6  and  C_7
REMARK    7  A    between atoms: C_7  and  C_8
REMARK    8  A    between atoms: C_8  and  C_9
REMARK    9  A    between atoms: C_9  and  C_10
REMARK   10  A    between atoms: C_10  and  C_11
REMARK   11  A    between atoms: C_11  and  C_12
REMARK   12  A    between atoms: C_12  and  C_13
REMARK   13  A    between atoms: C_13  and  C_14
REMARK   14  A    between atoms: C_14  and  C_15
REMARK   15  A    between atoms: C_15  and  N_16
REMARK   16  A    between atoms: C_19  and  C_20
REMARK   17  A    between atoms: C_20  and  C_21
REMARK   18  A    between atoms: C_21  and  C_22
REMARK                            x       y       z     vdW  Elec       q    Type
REMARK                         _______ _______ _______ _____ _____    ______ ____
ROOT
ATOM      1  C   UNL     1       7.700   5.755  18.730  0.00  0.00    +0.000 C 
ENDROOT
BRANCH   1   2
ATOM      2  N   UNL     1       6.677   5.675  17.679  0.00  0.00    +0.000 NA
ATOM      3  C   UNL     1       6.832   4.463  16.861  0.00  0.00    +0.000 C 
ATOM      4  C   UNL     1       5.772   4.392  15.770  0.00  0.00    +0.000 C 
ATOM      5  C   UNL     1       4.363   4.416  16.363  0.00  0.00    +0.000 C 
ATOM      6  C   UNL     1       4.234   5.684  17.221  0.00  0.00    +0.000 C 
ATOM      7  C   UNL     1       5.337   5.776  18.277  0.00  0.00    +0.000 C 
BRANCH   5   8
ATOM      8  C   UNL     1       4.019   3.164  17.196  0.00  0.00    +0.000 C 
BRANCH   8   9
ATOM      9  C   UNL     1       2.536   3.061  17.559  0.00  0.00    +0.000 C 
BRANCH   9  10
ATOM     10  C   UNL     1       2.274   2.258  18.852  0.00  0.00    +0.000 C 
ATOM     11  C   UNL     1       0.883   2.598  19.415  0.00  0.00    +0.000 C 
ATOM     12  C   UNL     1       0.841   3.996  20.039  0.00  0.00    +0.000 C 
ATOM     13  N   UNL     1       1.880   4.184  21.055  0.00  0.00    +0.000 NA
ATOM     14  C   UNL     1       3.217   3.912  20.519  0.00  0.00    +0.000 C 
ATOM     15  C   UNL     1       3.312   2.496  19.961  0.00  0.00    +0.000 C 
ATOM     16  H   UNL     1       1.701   3.537  21.825  0.00  0.00    +0.000 HD
ENDBRANCH   9  10
ENDBRANCH   8   9
ENDBRANCH   5   8
ENDBRANCH   1   2
BRANCH   1  17
ATOM     17  C   UNL     1       8.323   7.147  18.788  0.00  0.00    +0.000 C 
BRANCH  17  18
ATOM     18  C   UNL     1       7.965   7.971  17.564  0.00  0.00    +0.000 C 
BRANCH  18  19
ATOM     19  C   UNL     1       7.832   9.430  17.976  0.00  0.00    +0.000 C 
BRANCH  19  20
ATOM     20  C   UNL     1       9.202  10.057  18.141  0.00  0.00    +0.000 C 
BRANCH  20  21
ATOM     21  C   UNL     1       9.394  10.527  19.574  0.00  0.00    +0.000 C 
BRANCH  21  22
ATOM     22  C   UNL     1      10.073  11.886  19.582  0.00  0.00    +0.000 C 
BRANCH  22  23
ATOM     23  C   UNL     1      10.345  12.336  21.007  0.00  0.00    +0.000 C 
BRANCH  23  24
ATOM     24  C   UNL     1       9.702  13.691  21.260  0.00  0.00    +0.000 C 
BRANCH  24  25
ATOM     25  C   UNL     1       9.039  13.718  22.628  0.00  0.00    +0.000 C 
BRANCH  25  26
ATOM     26  C   UNL     1       7.698  12.996  22.585  0.00  0.00    +0.000 C 
BRANCH  26  27
ATOM     27  C   UNL     1       7.769  11.682  23.352  0.00  0.00    +0.000 C 
BRANCH  27  28
ATOM     28  C   UNL     1       6.595  11.560  24.317  0.00  0.00    +0.000 C 
BRANCH  28  30
ATOM     29  C   UNL     1       7.586  12.614  26.368  0.00  0.00    +0.000 C 
ATOM     30  C   UNL     1       6.545  12.750  25.270  0.00  0.00    +0.000 C 
ENDBRANCH  28  30
ENDBRANCH  27  28
ENDBRANCH  26  27
ENDBRANCH  25  26
ENDBRANCH  24  25
ENDBRANCH  23  24
ENDBRANCH  22  23
ENDBRANCH  21  22
ENDBRANCH  20  21
ENDBRANCH  19  20
ENDBRANCH  18  19
ENDBRANCH  17  18
ENDBRANCH   1  17
TORSDOF 17
ENDMDL
MODEL 7
REMARK VINA RESULT:      -5.7      6.419     10.132
REMARK  Name = 
REMARK  18 active torsions:
REMARK  status: ('A' for Active; 'I' for Inactive)
REMARK    1  A    between atoms: C_1  and  C_2
REMARK    2  A    between atoms: C_2  and  C_3
REMARK    3  A    between atoms: C_3  and  C_4
REMARK    4  A    between atoms: C_4  and  C_5
REMARK    5  A    between atoms: C_5  and  C_6
REMARK    6  A    between atoms: C_6  and  C_7
REMARK    7  A    between atoms: C_7  and  C_8
REMARK    8  A    between atoms: C_8  and  C_9
REMARK    9  A    between atoms: C_9  and  C_10
REMARK   10  A    between atoms: C_10  and  C_11
REMARK   11  A    between atoms: C_11  and  C_12
REMARK   12  A    between atoms: C_12  and  C_13
REMARK   13  A    between atoms: C_13  and  C_14
REMARK   14  A    between atoms: C_14  and  C_15
REMARK   15  A    between atoms: C_15  and  N_16
REMARK   16  A    between atoms: C_19  and  C_20
REMARK   17  A    between atoms: C_20  and  C_21
REMARK   18  A    between atoms: C_21  and  C_22
REMARK                            x       y       z     vdW  Elec       q    Type
REMARK                         _______ _______ _______ _____ _____    ______ ____
ROOT
ATOM      1  C   UNL     1       2.535   5.978  19.646  0.00  0.00    +0.000 C 
ENDROOT
BRANCH   1   2
ATOM      2  N   UNL     1       2.466   7.439  19.510  0.00  0.00    +0.000 NA
ATOM      3  C   UNL     1       2.258   7.846  18.112  0.00  0.00    +0.000 C 
ATOM      4  C   UNL     1       2.195   9.361  17.980  0.00  0.00    +0.000 C 
ATOM      5  C   UNL     1       1.076   9.948  18.842  0.00  0.00    +0.000 C 
ATOM      6  C   UNL     1       1.312   9.498  20.291  0.00  0.00    +0.000 C 
ATOM      7  C   UNL     1       1.431   7.977  20.407  0.00  0.00    +0.000 C 
BRANCH   5   8
ATOM      8  C   UNL     1      -0.339   9.549  18.376  0.00  0.00    +0.000 C 
BRANCH   8   9
ATOM      9  C   UNL     1      -1.457  10.228  19.171  0.00  0.00    +0.000 C 
BRANCH   9  10
ATOM     10  C   UNL     1      -1.688  11.701  18.771  0.00  0.00    +0.000 C 
ATOM     11  C   UNL     1      -3.078  12.166  19.239  0.00  0.00    +0.000 C 
ATOM     12  C   UNL     1      -4.202  11.554  18.397  0.00  0.00    +0.000 C 
ATOM     13  N   UNL     1      -4.020  11.798  16.963  0.00  0.00    +0.000 NA
ATOM     14  C   UNL     1      -2.719  11.315  16.493  0.00  0.00    +0.000 C 
ATOM     15  C   UNL     1      -1.575  11.968  17.261  0.00  0.00    +0.000 C 
ATOM     16  H   UNL     1      -4.073  12.804  16.797  0.00  0.00    +0.000 HD
ENDBRANCH   9  10
ENDBRANCH   8   9
ENDBRANCH   5   8
ENDBRANCH   1   2
BRANCH   1  17
ATOM     17  C   UNL     1       1.482   5.466  20.626  0.00  0.00    +0.000 C 
BRANCH  17  18
ATOM     18  C   UNL     1       0.971   4.093  20.230  0.00  0.00    +0.000 C 
BRANCH  18  19
ATOM     19  C   UNL     1       2.160   3.168  20.021  0.00  0.00    +0.000 C 
BRANCH  19  20
ATOM     20  C   UNL     1       1.951   2.310  18.789  0.00  0.00    +0.000 C 
BRANCH  20  21
ATOM     21  C   UNL     1       3.264   2.130  18.045  0.00  0.00    +0.000 C 
BRANCH  21  22
ATOM     22  C   UNL     1       3.902   3.486  17.794  0.00  0.00    +0.000 C 
BRANCH  22  23
ATOM     23  C   UNL     1       5.165   3.640  18.625  0.00  0.00    +0.000 C 
BRANCH  23  24
ATOM     24  C   UNL     1       5.944   4.865  18.171  0.00  0.00    +0.000 C 
BRANCH  24  25
ATOM     25  C   UNL     1       6.881   4.506  17.029  0.00  0.00    +0.000 C 
BRANCH  25  26
ATOM     26  C   UNL     1       6.725   5.495  15.880  0.00  0.00    +0.000 C 
BRANCH  26  27
ATOM     27  C   UNL     1       5.647   5.028  14.911  0.00  0.00    +0.000 C 
BRANCH  27  28
ATOM     28  C   UNL     1       6.115   3.798  14.140  0.00  0.00    +0.000 C 
BRANCH  28  30
ATOM     29  C   UNL     1       5.964   2.553  11.967  0.00  0.00    +0.000 C 
ATOM     30  C   UNL     1       5.647   3.851  12.689  0.00  0.00    +0.000 C 
ENDBRANCH  28  30
ENDBRANCH  27  28
ENDBRANCH  26  27
ENDBRANCH  25  26
ENDBRANCH  24  25
ENDBRANCH  23  24
ENDBRANCH  22  23
ENDBRANCH  21  22
ENDBRANCH  20  21
ENDBRANCH  19  20
ENDBRANCH  18  19
ENDBRANCH  17  18
ENDBRANCH   1  17
TORSDOF 17
ENDMDL
MODEL 8
REMARK VINA RESULT:      -5.7      6.041      9.802
REMARK  Name = 
REMARK  18 active torsions:
REMARK  status: ('A' for Active; 'I' for Inactive)
REMARK    1  A    between atoms: C_1  and  C_2
REMARK    2  A    between atoms: C_2  and  C_3
REMARK    3  A    between atoms: C_3  and  C_4
REMARK    4  A    between atoms: C_4  and  C_5
REMARK    5  A    between atoms: C_5  and  C_6
REMARK    6  A    between atoms: C_6  and  C_7
REMARK    7  A    between atoms: C_7  and  C_8
REMARK    8  A    between atoms: C_8  and  C_9
REMARK    9  A    between atoms: C_9  and  C_10
REMARK   10  A    between atoms: C_10  and  C_11
REMARK   11  A    between atoms: C_11  and  C_12
REMARK   12  A    between atoms: C_12  and  C_13
REMARK   13  A    between atoms: C_13  and  C_14
REMARK   14  A    between atoms: C_14  and  C_15
REMARK   15  A    between atoms: C_15  and  N_16
REMARK   16  A    between atoms: C_19  and  C_20
REMARK   17  A    between atoms: C_20  and  C_21
REMARK   18  A    between atoms: C_21  and  C_22
REMARK                            x       y       z     vdW  Elec       q    Type
REMARK                         _______ _______ _______ _____ _____    ______ ____
ROOT
ATOM      1  C   UNL     1       1.149   6.265  20.709  0.00  0.00    +0.000 C 
ENDROOT
BRANCH   1   2
ATOM      2  N   UNL     1       2.164   5.215  20.549  0.00  0.00    +0.000 NA
ATOM      3  C   UNL     1       1.613   4.021  19.892  0.00  0.00    +0.000 C 
ATOM      4  C   UNL     1       2.670   2.936  19.737  0.00  0.00    +0.000 C 
ATOM      5  C   UNL     1       3.867   3.439  18.931  0.00  0.00    +0.000 C 
ATOM      6  C   UNL     1       4.414   4.692  19.631  0.00  0.00    +0.000 C 
ATOM      7  C   UNL     1       3.331   5.754  19.835  0.00  0.00    +0.000 C 
BRANCH   5   8
ATOM      8  C   UNL     1       3.537   3.747  17.456  0.00  0.00    +0.000 C 
BRANCH   8   9
ATOM      9  C   UNL     1       4.754   3.684  16.531  0.00  0.00    +0.000 C 
BRANCH   9  10
ATOM     10  C   UNL     1       4.862   4.890  15.573  0.00  0.00    +0.000 C 
ATOM     11  C   UNL     1       6.063   4.711  14.628  0.00  0.00    +0.000 C 
ATOM     12  C   UNL     1       7.398   4.912  15.350  0.00  0.00    +0.000 C 
ATOM     13  N   UNL     1       7.466   6.198  16.049  0.00  0.00    +0.000 NA
ATOM     14  C   UNL     1       6.355   6.362  16.990  0.00  0.00    +0.000 C 
ATOM     15  C   UNL     1       5.009   6.246  16.284  0.00  0.00    +0.000 C 
ATOM     16  H   UNL     1       7.417   6.946  15.354  0.00  0.00    +0.000 HD
ENDBRANCH   9  10
ENDBRANCH   8   9
ENDBRANCH   5   8
ENDBRANCH   1   2
BRANCH   1  17
ATOM     17  C   UNL     1       1.753   7.651  20.507  0.00  0.00    +0.000 C 
BRANCH  17  18
ATOM     18  C   UNL     1       1.302   8.620  21.585  0.00  0.00    +0.000 C 
BRANCH  18  19
ATOM     19  C   UNL     1       0.089   9.387  21.079  0.00  0.00    +0.000 C 
BRANCH  19  20
ATOM     20  C   UNL     1       0.515  10.711  20.478  0.00  0.00    +0.000 C 
BRANCH  20  21
ATOM     21  C   UNL     1      -0.687  11.432  19.889  0.00  0.00    +0.000 C 
BRANCH  21  22
ATOM     22  C   UNL     1      -1.535  10.453  19.096  0.00  0.00    +0.000 C 
BRANCH  22  23
ATOM     23  C   UNL     1      -0.946  10.241  17.711  0.00  0.00    +0.000 C 
BRANCH  23  24
ATOM     24  C   UNL     1      -2.048   9.899  16.720  0.00  0.00    +0.000 C 
BRANCH  24  25
ATOM     25  C   UNL     1      -3.405   9.930  17.404  0.00  0.00    +0.000 C 
BRANCH  25  26
ATOM     26  C   UNL     1      -4.275  11.032  16.812  0.00  0.00    +0.000 C 
BRANCH  26  27
ATOM     27  C   UNL     1      -5.506  11.269  17.677  0.00  0.00    +0.000 C 
BRANCH  27  28
ATOM     28  C   UNL     1      -5.396  12.599  18.414  0.00  0.00    +0.000 C 
BRANCH  28  30
ATOM     29  C   UNL     1      -6.346  11.693  20.552  0.00  0.00    +0.000 C 
ATOM     30  C   UNL     1      -5.157  12.381  19.904  0.00  0.00    +0.000 C 
ENDBRANCH  28  30
ENDBRANCH  27  28
ENDBRANCH  26  27
ENDBRANCH  25  26
ENDBRANCH  24  25
ENDBRANCH  23  24
ENDBRANCH  22  23
ENDBRANCH  21  22
ENDBRANCH  20  21
ENDBRANCH  19  20
ENDBRANCH  18  19
ENDBRANCH  17  18
ENDBRANCH   1  17
TORSDOF 17
ENDMDL
MODEL 9
REMARK VINA RESULT:      -5.7      1.617      2.547
REMARK  Name = 
REMARK  18 active torsions:
REMARK  status: ('A' for Active; 'I' for Inactive)
REMARK    1  A    between atoms: C_1  and  C_2
REMARK    2  A    between atoms: C_2  and  C_3
REMARK    3  A    between atoms: C_3  and  C_4
REMARK    4  A    between atoms: C_4  and  C_5
REMARK    5  A    between atoms: C_5  and  C_6
REMARK    6  A    between atoms: C_6  and  C_7
REMARK    7  A    between atoms: C_7  and  C_8
REMARK    8  A    between atoms: C_8  and  C_9
REMARK    9  A    between atoms: C_9  and  C_10
REMARK   10  A    between atoms: C_10  and  C_11
REMARK   11  A    between atoms: C_11  and  C_12
REMARK   12  A    between atoms: C_12  and  C_13
REMARK   13  A    between atoms: C_13  and  C_14
REMARK   14  A    between atoms: C_14  and  C_15
REMARK   15  A    between atoms: C_15  and  N_16
REMARK   16  A    between atoms: C_19  and  C_20
REMARK   17  A    between atoms: C_20  and  C_21
REMARK   18  A    between atoms: C_21  and  C_22
REMARK                            x       y       z     vdW  Elec       q    Type
REMARK                         _______ _______ _______ _____ _____    ______ ____
ROOT
ATOM      1  C   UNL     1       7.134   8.376  17.843  0.00  0.00    +0.000 C 
ENDROOT
BRANCH   1   2
ATOM      2  N   UNL     1       6.989   7.072  17.182  0.00  0.00    +0.000 NA
ATOM      3  C   UNL     1       7.451   5.973  18.042  0.00  0.00    +0.000 C 
ATOM      4  C   UNL     1       7.304   4.627  17.346  0.00  0.00    +0.000 C 
ATOM      5  C   UNL     1       5.853   4.366  16.942  0.00  0.00    +0.000 C 
ATOM      6  C   UNL     1       5.394   5.534  16.056  0.00  0.00    +0.000 C 
ATOM      7  C   UNL     1       5.598   6.888  16.740  0.00  0.00    +0.000 C 
BRANCH   5   8
ATOM      8  C   UNL     1       4.897   4.189  18.139  0.00  0.00    +0.000 C 
BRANCH   8   9
ATOM      9  C   UNL     1       3.745   3.222  17.863  0.00  0.00    +0.000 C 
BRANCH   9  10
ATOM     10  C   UNL     1       2.384   3.925  17.667  0.00  0.00    +0.000 C 
ATOM     11  C   UNL     1       2.407   5.317  18.321  0.00  0.00    +0.000 C 
ATOM     12  C   UNL     1       2.368   5.234  19.850  0.00  0.00    +0.000 C 
ATOM     13  N   UNL     1       1.235   4.443  20.337  0.00  0.00    +0.000 NA
ATOM     14  C   UNL     1       1.228   3.096  19.759  0.00  0.00    +0.000 C 
ATOM     15  C   UNL     1       1.187   3.147  18.235  0.00  0.00    +0.000 C 
ATOM     16  H   UNL     1       0.371   4.917  20.068  0.00  0.00    +0.000 HD
ENDBRANCH   9  10
ENDBRANCH   8   9
ENDBRANCH   5   8
ENDBRANCH   1   2
BRANCH   1  17
ATOM     17  C   UNL     1       8.554   8.914  17.694  0.00  0.00    +0.000 C 
BRANCH  17  18
ATOM     18  C   UNL     1       8.649  10.368  18.120  0.00  0.00    +0.000 C 
BRANCH  18  19
ATOM     19  C   UNL     1       9.430  10.448  19.423  0.00  0.00    +0.000 C 
BRANCH  19  20
ATOM     20  C   UNL     1      10.815  11.012  19.173  0.00  0.00    +0.000 C 
BRANCH  20  21
ATOM     21  C   UNL     1      10.998  12.313  19.939  0.00  0.00    +0.000 C 
BRANCH  21  22
ATOM     22  C   UNL     1      10.166  12.282  21.210  0.00  0.00    +0.000 C 
BRANCH  22  23
ATOM     23  C   UNL     1       9.307  13.531  21.311  0.00  0.00    +0.000 C 
BRANCH  23  24
ATOM     24  C   UNL     1       9.842  14.612  20.385  0.00  0.00    +0.000 C 
BRANCH  24  25
ATOM     25  C   UNL     1       8.699  15.295  19.650  0.00  0.00    +0.000 C 
BRANCH  25  26
ATOM     26  C   UNL     1       8.929  15.247  18.144  0.00  0.00    +0.000 C 
BRANCH  26  27
ATOM     27  C   UNL     1      10.417  15.175  17.830  0.00  0.00    +0.000 C 
BRANCH  27  28
ATOM     28  C   UNL     1      10.801  16.238  16.806  0.00  0.00    +0.000 C 
BRANCH  28  30
ATOM     29  C   UNL     1      11.532  17.942  18.497  0.00  0.00    +0.000 C 
ATOM     30  C   UNL     1      10.570  17.640  17.360  0.00  0.00    +0.000 C 
ENDBRANCH  28  30
ENDBRANCH  27  28
ENDBRANCH  26  27
ENDBRANCH  25  26
ENDBRANCH  24  25
ENDBRANCH  23  24
ENDBRANCH  22  23
ENDBRANCH  21  22
ENDBRANCH  20  21
ENDBRANCH  19  20
ENDBRANCH  18  19
ENDBRANCH  17  18
ENDBRANCH   1  17
TORSDOF 17
ENDMDL
