MODEL 1
REMARK VINA RESULT:      -7.6      0.000      0.000
REMARK  Name = 
REMARK  9 active torsions:
REMARK  status: ('A' for Active; 'I' for Inactive)
REMARK    1  A    between atoms: C_1  and  O_2
REMARK    2  A    between atoms: O_2  and  C_3
REMARK    3  A    between atoms: C_5  and  C_6
REMARK    4  A    between atoms: C_9  and  C_10
REMARK    5  A    between atoms: C_16  and  C_17
REMARK    6  A    between atoms: C_22  and  O_23
REMARK    7  A    between atoms: O_23  and  C_24
REMARK    8  A    between atoms: C_25  and  O_26
REMARK    9  A    between atoms: O_26  and  C_27
REMARK                            x       y       z     vdW  Elec       q    Type
REMARK                         _______ _______ _______ _____ _____    ______ ____
ROOT
ATOM      1  C   UNL     1       2.673   7.417  18.406  0.00  0.00    +0.000 A 
ATOM      2  N   UNL     1       2.844   8.162  17.332  0.00  0.00    +0.000 NA
ATOM      3  N   UNL     1       2.123   9.319  17.545  0.00  0.00    +0.000 NA
ATOM      4  C   UNL     1       1.571   9.212  18.742  0.00  0.00    +0.000 A 
ATOM      5  O   UNL     1       1.891   8.023  19.350  0.00  0.00    +0.000 OA
ENDROOT
BRANCH   4   6
ATOM      6  C   UNL     1       0.696  10.250  19.358  0.00  0.00    +0.000 A 
ATOM      7  C   UNL     1       0.335  11.432  18.750  0.00  0.00    +0.000 A 
ATOM      8  N   UNL     1      -0.477  12.071  19.648  0.00  0.00    +0.000 N 
ATOM      9  C   UNL     1      -1.143  13.284  19.524  0.00  0.00    +0.000 A 
ATOM     10  C   UNL     1      -1.875  13.729  20.551  0.00  0.00    +0.000 A 
ATOM     11  C   UNL     1      -1.936  12.937  21.772  0.00  0.00    +0.000 A 
ATOM     12  C   UNL     1      -1.294  11.750  21.908  0.00  0.00    +0.000 A 
ATOM     13  C   UNL     1      -1.367  11.001  23.215  0.00  0.00    +0.000 C 
ATOM     14  C   UNL     1      -0.540  11.267  20.783  0.00  0.00    +0.000 A 
ATOM     15  N   UNL     1       0.142  10.151  20.615  0.00  0.00    +0.000 NA
ENDBRANCH   4   6
BRANCH   1  18
ATOM     16  C   UNL     1       2.801   3.750  19.267  0.00  0.00    +0.000 A 
ATOM     17  C   UNL     1       2.335   5.061  19.065  0.00  0.00    +0.000 A 
ATOM     18  C   UNL     1       3.203   6.099  18.723  0.00  0.00    +0.000 A 
ATOM     19  C   UNL     1       4.567   5.819  18.668  0.00  0.00    +0.000 A 
ATOM     20  C   UNL     1       5.070   4.537  18.951  0.00  0.00    +0.000 A 
ATOM     21  C   UNL     1       4.187   3.480  19.262  0.00  0.00    +0.000 A 
BRANCH  16  23
ATOM     22  C   UNL     1       1.237   2.780  20.759  0.00  0.00    +0.000 C 
ATOM     23  O   UNL     1       1.903   2.737  19.494  0.00  0.00    +0.000 OA
ENDBRANCH  16  23
BRANCH  20  24
ATOM     24  O   UNL     1       6.439   4.516  18.847  0.00  0.00    +0.000 OA
ATOM     25  C   UNL     1       7.055   4.654  17.576  0.00  0.00    +0.000 C 
ENDBRANCH  20  24
BRANCH  21  26
ATOM     26  O   UNL     1       4.777   2.274  19.518  0.00  0.00    +0.000 OA
ATOM     27  C   UNL     1       4.876   1.755  20.831  0.00  0.00    +0.000 C 
ENDBRANCH  21  26
ENDBRANCH   1  18
TORSDOF 5
ENDMDL
MODEL 2
REMARK VINA RESULT:      -7.6      0.647      2.523
REMARK  Name = 
REMARK  9 active torsions:
REMARK  status: ('A' for Active; 'I' for Inactive)
REMARK    1  A    between atoms: C_1  and  O_2
REMARK    2  A    between atoms: O_2  and  C_3
REMARK    3  A    between atoms: C_5  and  C_6
REMARK    4  A    between atoms: C_9  and  C_10
REMARK    5  A    between atoms: C_16  and  C_17
REMARK    6  A    between atoms: C_22  and  O_23
REMARK    7  A    between atoms: O_23  and  C_24
REMARK    8  A    between atoms: C_25  and  O_26
REMARK    9  A    between atoms: O_26  and  C_27
REMARK                            x       y       z     vdW  Elec       q    Type
REMARK                         _______ _______ _______ _____ _____    ______ ____
ROOT
ATOM      1  C   UNL     1       2.505   7.563  18.356  0.00  0.00    +0.000 A 
ATOM      2  N   UNL     1       2.716   8.330  17.305  0.00  0.00    +0.000 NA
ATOM      3  N   UNL     1       2.061   9.518  17.556  0.00  0.00    +0.000 NA
ATOM      4  C   UNL     1       1.504   9.405  18.751  0.00  0.00    +0.000 A 
ATOM      5  O   UNL     1       1.759   8.181  19.320  0.00  0.00    +0.000 OA
ENDROOT
BRANCH   4   6
ATOM      6  C   UNL     1       0.689  10.469  19.401  0.00  0.00    +0.000 A 
ATOM      7  C   UNL     1       0.457  11.717  18.864  0.00  0.00    +0.000 A 
ATOM      8  N   UNL     1      -0.343  12.360  19.769  0.00  0.00    +0.000 N 
ATOM      9  C   UNL     1      -0.899  13.632  19.704  0.00  0.00    +0.000 A 
ATOM     10  C   UNL     1      -1.642  14.068  20.728  0.00  0.00    +0.000 A 
ATOM     11  C   UNL     1      -1.827  13.202  21.885  0.00  0.00    +0.000 A 
ATOM     12  C   UNL     1      -1.293  11.958  21.964  0.00  0.00    +0.000 A 
ATOM     13  C   UNL     1      -1.492  11.132  23.209  0.00  0.00    +0.000 C 
ATOM     14  C   UNL     1      -0.527  11.489  20.841  0.00  0.00    +0.000 A 
ATOM     15  N   UNL     1       0.068  10.333  20.623  0.00  0.00    +0.000 NA
ENDBRANCH   4   6
BRANCH   1  18
ATOM     16  C   UNL     1       4.808   4.618  18.832  0.00  0.00    +0.000 A 
ATOM     17  C   UNL     1       4.310   5.882  18.469  0.00  0.00    +0.000 A 
ATOM     18  C   UNL     1       2.962   6.209  18.630  0.00  0.00    +0.000 A 
ATOM     19  C   UNL     1       2.099   5.214  19.085  0.00  0.00    +0.000 A 
ATOM     20  C   UNL     1       2.554   3.916  19.372  0.00  0.00    +0.000 A 
ATOM     21  C   UNL     1       3.923   3.597  19.243  0.00  0.00    +0.000 A 
BRANCH  16  23
ATOM     22  C   UNL     1       6.999   5.490  19.056  0.00  0.00    +0.000 C 
ATOM     23  O   UNL     1       6.157   4.373  18.761  0.00  0.00    +0.000 OA
ENDBRANCH  16  23
BRANCH  20  24
ATOM     24  O   UNL     1       1.517   3.116  19.786  0.00  0.00    +0.000 OA
ATOM     25  C   UNL     1       1.280   2.923  21.171  0.00  0.00    +0.000 C 
ENDBRANCH  20  24
BRANCH  21  26
ATOM     26  O   UNL     1       4.261   2.308  19.550  0.00  0.00    +0.000 OA
ATOM     27  C   UNL     1       3.959   1.231  18.683  0.00  0.00    +0.000 C 
ENDBRANCH  21  26
ENDBRANCH   1  18
TORSDOF 5
ENDMDL
MODEL 3
REMARK VINA RESULT:      -7.5      1.338      2.985
REMARK  Name = 
REMARK  9 active torsions:
REMARK  status: ('A' for Active; 'I' for Inactive)
REMARK    1  A    between atoms: C_1  and  O_2
REMARK    2  A    between atoms: O_2  and  C_3
REMARK    3  A    between atoms: C_5  and  C_6
REMARK    4  A    between atoms: C_9  and  C_10
REMARK    5  A    between atoms: C_16  and  C_17
REMARK    6  A    between atoms: C_22  and  O_23
REMARK    7  A    between atoms: O_23  and  C_24
REMARK    8  A    between atoms: C_25  and  O_26
REMARK    9  A    between atoms: O_26  and  C_27
REMARK                            x       y       z     vdW  Elec       q    Type
REMARK                         _______ _______ _______ _____ _____    ______ ____
ROOT
ATOM      1  C   UNL     1       2.303   7.773  18.380  0.00  0.00    +0.000 A 
ATOM      2  N   UNL     1       2.241   8.658  17.406  0.00  0.00    +0.000 NA
ATOM      3  N   UNL     1       1.651   9.783  17.943  0.00  0.00    +0.000 NA
ATOM      4  C   UNL     1       1.404   9.518  19.215  0.00  0.00    +0.000 A 
ATOM      5  O   UNL     1       1.807   8.251  19.561  0.00  0.00    +0.000 OA
ENDROOT
BRANCH   4   6
ATOM      6  C   UNL     1       0.758  10.471  20.161  0.00  0.00    +0.000 A 
ATOM      7  C   UNL     1      -0.261  10.144  21.028  0.00  0.00    +0.000 A 
ATOM      8  N   UNL     1      -0.540  11.295  21.715  0.00  0.00    +0.000 N 
ATOM      9  C   UNL     1      -1.459  11.512  22.732  0.00  0.00    +0.000 A 
ATOM     10  C   UNL     1      -1.577  12.741  23.250  0.00  0.00    +0.000 A 
ATOM     11  C   UNL     1      -0.749  13.814  22.715  0.00  0.00    +0.000 A 
ATOM     12  C   UNL     1       0.155  13.619  21.723  0.00  0.00    +0.000 A 
ATOM     13  C   UNL     1       0.950  14.783  21.190  0.00  0.00    +0.000 C 
ATOM     14  C   UNL     1       0.295  12.286  21.202  0.00  0.00    +0.000 A 
ATOM     15  N   UNL     1       1.103  11.798  20.281  0.00  0.00    +0.000 NA
ENDBRANCH   4   6
BRANCH   1  18
ATOM     16  C   UNL     1       4.684   4.886  18.832  0.00  0.00    +0.000 A 
ATOM     17  C   UNL     1       4.168   6.189  18.714  0.00  0.00    +0.000 A 
ATOM     18  C   UNL     1       2.832   6.417  18.378  0.00  0.00    +0.000 A 
ATOM     19  C   UNL     1       2.036   5.313  18.077  0.00  0.00    +0.000 A 
ATOM     20  C   UNL     1       2.548   4.005  18.103  0.00  0.00    +0.000 A 
ATOM     21  C   UNL     1       3.890   3.773  18.477  0.00  0.00    +0.000 A 
BRANCH  16  23
ATOM     22  C   UNL     1       6.991   5.224  18.415  0.00  0.00    +0.000 C 
ATOM     23  O   UNL     1       5.971   4.702  19.270  0.00  0.00    +0.000 OA
ENDBRANCH  16  23
BRANCH  20  24
ATOM     24  O   UNL     1       1.580   3.094  17.756  0.00  0.00    +0.000 OA
ATOM     25  C   UNL     1       0.736   2.544  18.754  0.00  0.00    +0.000 C 
ENDBRANCH  20  24
BRANCH  21  26
ATOM     26  O   UNL     1       4.288   2.465  18.472  0.00  0.00    +0.000 OA
ATOM     27  C   UNL     1       4.354   1.701  19.662  0.00  0.00    +0.000 C 
ENDBRANCH  21  26
ENDBRANCH   1  18
TORSDOF 5
ENDMDL
MODEL 4
REMARK VINA RESULT:      -7.5      1.353      1.677
REMARK  Name = 
REMARK  9 active torsions:
REMARK  status: ('A' for Active; 'I' for Inactive)
REMARK    1  A    between atoms: C_1  and  O_2
REMARK    2  A    between atoms: O_2  and  C_3
REMARK    3  A    between atoms: C_5  and  C_6
REMARK    4  A    between atoms: C_9  and  C_10
REMARK    5  A    between atoms: C_16  and  C_17
REMARK    6  A    between atoms: C_22  and  O_23
REMARK    7  A    between atoms: O_23  and  C_24
REMARK    8  A    between atoms: C_25  and  O_26
REMARK    9  A    between atoms: O_26  and  C_27
REMARK                            x       y       z     vdW  Elec       q    Type
REMARK                         _______ _______ _______ _____ _____    ______ ____
ROOT
ATOM      1  C   UNL     1       2.337   7.953  18.410  0.00  0.00    +0.000 A 
ATOM      2  N   UNL     1       2.466   8.775  17.389  0.00  0.00    +0.000 NA
ATOM      3  N   UNL     1       1.759   9.913  17.716  0.00  0.00    +0.000 NA
ATOM      4  C   UNL     1       1.256   9.719  18.923  0.00  0.00    +0.000 A 
ATOM      5  O   UNL     1       1.597   8.488  19.428  0.00  0.00    +0.000 OA
ENDROOT
BRANCH   4   6
ATOM      6  C   UNL     1       0.411  10.708  19.649  0.00  0.00    +0.000 A 
ATOM      7  C   UNL     1       0.815  11.421  20.756  0.00  0.00    +0.000 A 
ATOM      8  N   UNL     1      -0.250  12.216  21.087  0.00  0.00    +0.000 N 
ATOM      9  C   UNL     1      -0.363  13.156  22.103  0.00  0.00    +0.000 A 
ATOM     10  C   UNL     1      -1.521  13.810  22.256  0.00  0.00    +0.000 A 
ATOM     11  C   UNL     1      -2.630  13.500  21.363  0.00  0.00    +0.000 A 
ATOM     12  C   UNL     1      -2.535  12.586  20.365  0.00  0.00    +0.000 A 
ATOM     13  C   UNL     1      -3.735  12.286  19.504  0.00  0.00    +0.000 C 
ATOM     14  C   UNL     1      -1.273  11.918  20.191  0.00  0.00    +0.000 A 
ATOM     15  N   UNL     1      -0.882  11.028  19.300  0.00  0.00    +0.000 NA
ENDBRANCH   4   6
BRANCH   1  18
ATOM     16  C   UNL     1       2.950   4.555  19.921  0.00  0.00    +0.000 A 
ATOM     17  C   UNL     1       2.540   5.889  19.751  0.00  0.00    +0.000 A 
ATOM     18  C   UNL     1       2.876   6.615  18.607  0.00  0.00    +0.000 A 
ATOM     19  C   UNL     1       3.707   6.007  17.668  0.00  0.00    +0.000 A 
ATOM     20  C   UNL     1       4.202   4.705  17.854  0.00  0.00    +0.000 A 
ATOM     21  C   UNL     1       3.833   3.959  18.994  0.00  0.00    +0.000 A 
BRANCH  16  23
ATOM     22  C   UNL     1       1.224   3.229  20.857  0.00  0.00    +0.000 C 
ATOM     23  O   UNL     1       2.507   3.841  21.007  0.00  0.00    +0.000 OA
ENDBRANCH  16  23
BRANCH  20  24
ATOM     24  O   UNL     1       5.008   4.335  16.804  0.00  0.00    +0.000 OA
ATOM     25  C   UNL     1       6.411   4.527  16.887  0.00  0.00    +0.000 C 
ENDBRANCH  20  24
BRANCH  21  26
ATOM     26  O   UNL     1       4.367   2.704  19.077  0.00  0.00    +0.000 OA
ATOM     27  C   UNL     1       3.688   1.569  18.572  0.00  0.00    +0.000 C 
ENDBRANCH  21  26
ENDBRANCH   1  18
TORSDOF 5
ENDMDL
MODEL 5
REMARK VINA RESULT:      -7.5      1.227      2.594
REMARK  Name = 
REMARK  9 active torsions:
REMARK  status: ('A' for Active; 'I' for Inactive)
REMARK    1  A    between atoms: C_1  and  O_2
REMARK    2  A    between atoms: O_2  and  C_3
REMARK    3  A    between atoms: C_5  and  C_6
REMARK    4  A    between atoms: C_9  and  C_10
REMARK    5  A    between atoms: C_16  and  C_17
REMARK    6  A    between atoms: C_22  and  O_23
REMARK    7  A    between atoms: O_23  and  C_24
REMARK    8  A    between atoms: C_25  and  O_26
REMARK    9  A    between atoms: O_26  and  C_27
REMARK                            x       y       z     vdW  Elec       q    Type
REMARK                         _______ _______ _______ _____ _____    ______ ____
ROOT
ATOM      1  C   UNL     1       2.436   7.803  18.399  0.00  0.00    +0.000 A 
ATOM      2  N   UNL     1       2.754   8.682  17.470  0.00  0.00    +0.000 NA
ATOM      3  N   UNL     1       1.887   9.743  17.628  0.00  0.00    +0.000 NA
ATOM      4  C   UNL     1       1.105   9.451  18.654  0.00  0.00    +0.000 A 
ATOM      5  O   UNL     1       1.411   8.228  19.198  0.00  0.00    +0.000 OA
ENDROOT
BRANCH   4   6
ATOM      6  C   UNL     1       0.015  10.333  19.156  0.00  0.00    +0.000 A 
ATOM      7  C   UNL     1      -1.144  10.618  18.466  0.00  0.00    +0.000 A 
ATOM      8  N   UNL     1      -1.865  11.441  19.288  0.00  0.00    +0.000 N 
ATOM      9  C   UNL     1      -3.125  11.994  19.094  0.00  0.00    +0.000 A 
ATOM     10  C   UNL     1      -3.632  12.797  20.036  0.00  0.00    +0.000 A 
ATOM     11  C   UNL     1      -2.840  13.079  21.225  0.00  0.00    +0.000 A 
ATOM     12  C   UNL     1      -1.610  12.546  21.431  0.00  0.00    +0.000 A 
ATOM     13  C   UNL     1      -0.828  12.914  22.667  0.00  0.00    +0.000 C 
ATOM     14  C   UNL     1      -1.093  11.657  20.427  0.00  0.00    +0.000 A 
ATOM     15  N   UNL     1       0.035  10.974  20.374  0.00  0.00    +0.000 NA
ENDBRANCH   4   6
BRANCH   1  18
ATOM     16  C   UNL     1       4.753   4.834  18.261  0.00  0.00    +0.000 A 
ATOM     17  C   UNL     1       4.090   6.030  17.933  0.00  0.00    +0.000 A 
ATOM     18  C   UNL     1       3.022   6.505  18.697  0.00  0.00    +0.000 A 
ATOM     19  C   UNL     1       2.572   5.715  19.754  0.00  0.00    +0.000 A 
ATOM     20  C   UNL     1       3.161   4.474  20.051  0.00  0.00    +0.000 A 
ATOM     21  C   UNL     1       4.263   4.011  19.299  0.00  0.00    +0.000 A 
BRANCH  16  23
ATOM     22  C   UNL     1       5.627   4.074  16.195  0.00  0.00    +0.000 C 
ATOM     23  O   UNL     1       5.866   4.457  17.551  0.00  0.00    +0.000 OA
ENDBRANCH  16  23
BRANCH  20  24
ATOM     24  O   UNL     1       2.536   3.880  21.120  0.00  0.00    +0.000 OA
ATOM     25  C   UNL     1       1.311   3.190  20.930  0.00  0.00    +0.000 C 
ENDBRANCH  20  24
BRANCH  21  26
ATOM     26  O   UNL     1       4.763   2.794  19.671  0.00  0.00    +0.000 OA
ATOM     27  C   UNL     1       4.235   1.584  19.162  0.00  0.00    +0.000 C 
ENDBRANCH  21  26
ENDBRANCH   1  18
TORSDOF 5
ENDMDL
MODEL 6
REMARK VINA RESULT:      -7.4      1.479      2.986
REMARK  Name = 
REMARK  9 active torsions:
REMARK  status: ('A' for Active; 'I' for Inactive)
REMARK    1  A    between atoms: C_1  and  O_2
REMARK    2  A    between atoms: O_2  and  C_3
REMARK    3  A    between atoms: C_5  and  C_6
REMARK    4  A    between atoms: C_9  and  C_10
REMARK    5  A    between atoms: C_16  and  C_17
REMARK    6  A    between atoms: C_22  and  O_23
REMARK    7  A    between atoms: O_23  and  C_24
REMARK    8  A    between atoms: C_25  and  O_26
REMARK    9  A    between atoms: O_26  and  C_27
REMARK                            x       y       z     vdW  Elec       q    Type
REMARK                         _______ _______ _______ _____ _____    ______ ____
ROOT
ATOM      1  C   UNL     1       2.214   7.783  18.774  0.00  0.00    +0.000 A 
ATOM      2  N   UNL     1       2.197   8.620  17.756  0.00  0.00    +0.000 NA
ATOM      3  N   UNL     1       1.628   9.786  18.224  0.00  0.00    +0.000 NA
ATOM      4  C   UNL     1       1.349   9.592  19.502  0.00  0.00    +0.000 A 
ATOM      5  O   UNL     1       1.709   8.334  19.919  0.00  0.00    +0.000 OA
ENDROOT
BRANCH   4   6
ATOM      6  C   UNL     1       0.711  10.608  20.385  0.00  0.00    +0.000 A 
ATOM      7  C   UNL     1      -0.289  10.339  21.294  0.00  0.00    +0.000 A 
ATOM      8  N   UNL     1      -0.566  11.537  21.896  0.00  0.00    +0.000 N 
ATOM      9  C   UNL     1      -1.469  11.823  22.912  0.00  0.00    +0.000 A 
ATOM     10  C   UNL     1      -1.589  13.086  23.337  0.00  0.00    +0.000 A 
ATOM     11  C   UNL     1      -0.781  14.122  22.708  0.00  0.00    +0.000 A 
ATOM     12  C   UNL     1       0.107  13.860  21.717  0.00  0.00    +0.000 A 
ATOM     13  C   UNL     1       0.881  14.988  21.083  0.00  0.00    +0.000 C 
ATOM     14  C   UNL     1       0.250  12.493  21.296  0.00  0.00    +0.000 A 
ATOM     15  N   UNL     1       1.046  11.944  20.399  0.00  0.00    +0.000 NA
ENDBRANCH   4   6
BRANCH   1  18
ATOM     16  C   UNL     1       4.075   4.621  17.910  0.00  0.00    +0.000 A 
ATOM     17  C   UNL     1       3.491   5.897  17.819  0.00  0.00    +0.000 A 
ATOM     18  C   UNL     1       2.705   6.415  18.850  0.00  0.00    +0.000 A 
ATOM     19  C   UNL     1       2.443   5.595  19.946  0.00  0.00    +0.000 A 
ATOM     20  C   UNL     1       2.942   4.284  20.024  0.00  0.00    +0.000 A 
ATOM     21  C   UNL     1       3.766   3.774  18.997  0.00  0.00    +0.000 A 
BRANCH  16  23
ATOM     22  C   UNL     1       6.288   4.612  17.066  0.00  0.00    +0.000 C 
ATOM     23  O   UNL     1       4.929   4.193  16.924  0.00  0.00    +0.000 OA
ENDBRANCH  16  23
BRANCH  20  24
ATOM     24  O   UNL     1       2.536   3.675  21.186  0.00  0.00    +0.000 OA
ATOM     25  C   UNL     1       1.346   2.902  21.202  0.00  0.00    +0.000 C 
ENDBRANCH  20  24
BRANCH  21  26
ATOM     26  O   UNL     1       4.201   2.490  19.170  0.00  0.00    +0.000 OA
ATOM     27  C   UNL     1       3.586   1.398  18.511  0.00  0.00    +0.000 C 
ENDBRANCH  21  26
ENDBRANCH   1  18
TORSDOF 5
ENDMDL
MODEL 7
REMARK VINA RESULT:      -7.4      1.496      1.575
REMARK  Name = 
REMARK  9 active torsions:
REMARK  status: ('A' for Active; 'I' for Inactive)
REMARK    1  A    between atoms: C_1  and  O_2
REMARK    2  A    between atoms: O_2  and  C_3
REMARK    3  A    between atoms: C_5  and  C_6
REMARK    4  A    between atoms: C_9  and  C_10
REMARK    5  A    between atoms: C_16  and  C_17
REMARK    6  A    between atoms: C_22  and  O_23
REMARK    7  A    between atoms: O_23  and  C_24
REMARK    8  A    between atoms: C_25  and  O_26
REMARK    9  A    between atoms: O_26  and  C_27
REMARK                            x       y       z     vdW  Elec       q    Type
REMARK                         _______ _______ _______ _____ _____    ______ ____
ROOT
ATOM      1  C   UNL     1       2.232   8.007  18.574  0.00  0.00    +0.000 A 
ATOM      2  N   UNL     1       2.070   8.760  17.504  0.00  0.00    +0.000 NA
ATOM      3  N   UNL     1       1.554   9.959  17.949  0.00  0.00    +0.000 NA
ATOM      4  C   UNL     1       1.449   9.867  19.264  0.00  0.00    +0.000 A 
ATOM      5  O   UNL     1       1.876   8.647  19.728  0.00  0.00    +0.000 OA
ENDROOT
BRANCH   4   6
ATOM      6  C   UNL     1       0.923  10.950  20.142  0.00  0.00    +0.000 A 
ATOM      7  C   UNL     1       1.417  12.236  20.183  0.00  0.00    +0.000 A 
ATOM      8  N   UNL     1       0.642  12.896  21.098  0.00  0.00    +0.000 N 
ATOM      9  C   UNL     1       0.689  14.226  21.496  0.00  0.00    +0.000 A 
ATOM     10  C   UNL     1      -0.164  14.654  22.433  0.00  0.00    +0.000 A 
ATOM     11  C   UNL     1      -1.102  13.706  23.019  0.00  0.00    +0.000 A 
ATOM     12  C   UNL     1      -1.164  12.405  22.641  0.00  0.00    +0.000 A 
ATOM     13  C   UNL     1      -2.133  11.470  23.318  0.00  0.00    +0.000 C 
ATOM     14  C   UNL     1      -0.265  11.969  21.607  0.00  0.00    +0.000 A 
ATOM     15  N   UNL     1      -0.126  10.795  21.021  0.00  0.00    +0.000 NA
ENDBRANCH   4   6
BRANCH   1  18
ATOM     16  C   UNL     1       2.882   4.562  19.956  0.00  0.00    +0.000 A 
ATOM     17  C   UNL     1       2.500   5.911  19.852  0.00  0.00    +0.000 A 
ATOM     18  C   UNL     1       2.745   6.650  18.692  0.00  0.00    +0.000 A 
ATOM     19  C   UNL     1       3.457   6.036  17.664  0.00  0.00    +0.000 A 
ATOM     20  C   UNL     1       3.926   4.716  17.776  0.00  0.00    +0.000 A 
ATOM     21  C   UNL     1       3.648   3.958  18.935  0.00  0.00    +0.000 A 
BRANCH  16  23
ATOM     22  C   UNL     1       1.266   3.170  20.988  0.00  0.00    +0.000 C 
ATOM     23  O   UNL     1       2.527   3.840  21.069  0.00  0.00    +0.000 OA
ENDBRANCH  16  23
BRANCH  20  24
ATOM     24  O   UNL     1       4.611   4.343  16.645  0.00  0.00    +0.000 OA
ATOM     25  C   UNL     1       6.021   4.489  16.591  0.00  0.00    +0.000 C 
ENDBRANCH  20  24
BRANCH  21  26
ATOM     26  O   UNL     1       4.147   2.686  18.943  0.00  0.00    +0.000 OA
ATOM     27  C   UNL     1       3.421   1.597  18.402  0.00  0.00    +0.000 C 
ENDBRANCH  21  26
ENDBRANCH   1  18
TORSDOF 5
ENDMDL
MODEL 8
REMARK VINA RESULT:      -7.4      1.047      1.047
REMARK  Name = 
REMARK  9 active torsions:
REMARK  status: ('A' for Active; 'I' for Inactive)
REMARK    1  A    between atoms: C_1  and  O_2
REMARK    2  A    between atoms: O_2  and  C_3
REMARK    3  A    between atoms: C_5  and  C_6
REMARK    4  A    between atoms: C_9  and  C_10
REMARK    5  A    between atoms: C_16  and  C_17
REMARK    6  A    between atoms: C_22  and  O_23
REMARK    7  A    between atoms: O_23  and  C_24
REMARK    8  A    between atoms: C_25  and  O_26
REMARK    9  A    between atoms: O_26  and  C_27
REMARK                            x       y       z     vdW  Elec       q    Type
REMARK                         _______ _______ _______ _____ _____    ______ ____
ROOT
ATOM      1  C   UNL     1       2.492   7.682  18.235  0.00  0.00    +0.000 A 
ATOM      2  N   UNL     1       2.540   8.467  17.177  0.00  0.00    +0.000 NA
ATOM      3  N   UNL     1       2.004   9.677  17.567  0.00  0.00    +0.000 NA
ATOM      4  C   UNL     1       1.677   9.558  18.843  0.00  0.00    +0.000 A 
ATOM      5  O   UNL     1       1.972   8.310  19.334  0.00  0.00    +0.000 OA
ENDROOT
BRANCH   4   6
ATOM      6  C   UNL     1       1.053  10.641  19.654  0.00  0.00    +0.000 A 
ATOM      7  C   UNL     1       1.231  11.989  19.429  0.00  0.00    +0.000 A 
ATOM      8  N   UNL     1       0.474  12.620  20.380  0.00  0.00    +0.000 N 
ATOM      9  C   UNL     1       0.268  13.979  20.582  0.00  0.00    +0.000 A 
ATOM     10  C   UNL     1      -0.505  14.374  21.600  0.00  0.00    +0.000 A 
ATOM     11  C   UNL     1      -1.090  13.366  22.474  0.00  0.00    +0.000 A 
ATOM     12  C   UNL     1      -0.901  12.036  22.291  0.00  0.00    +0.000 A 
ATOM     13  C   UNL     1      -1.504  11.050  23.258  0.00  0.00    +0.000 C 
ATOM     14  C   UNL     1      -0.097  11.626  21.171  0.00  0.00    +0.000 A 
ATOM     15  N   UNL     1       0.222  10.424  20.730  0.00  0.00    +0.000 NA
ENDBRANCH   4   6
BRANCH   1  18
ATOM     16  C   UNL     1       2.450   3.914  18.168  0.00  0.00    +0.000 A 
ATOM     17  C   UNL     1       2.035   5.258  18.133  0.00  0.00    +0.000 A 
ATOM     18  C   UNL     1       2.924   6.302  18.395  0.00  0.00    +0.000 A 
ATOM     19  C   UNL     1       4.223   5.974  18.778  0.00  0.00    +0.000 A 
ATOM     20  C   UNL     1       4.640   4.638  18.905  0.00  0.00    +0.000 A 
ATOM     21  C   UNL     1       3.751   3.583  18.605  0.00  0.00    +0.000 A 
BRANCH  16  23
ATOM     22  C   UNL     1       0.785   2.376  18.855  0.00  0.00    +0.000 C 
ATOM     23  O   UNL     1       1.575   2.924  17.797  0.00  0.00    +0.000 OA
ENDBRANCH  16  23
BRANCH  20  24
ATOM     24  O   UNL     1       5.952   4.572  19.309  0.00  0.00    +0.000 OA
ATOM     25  C   UNL     1       6.835   5.644  19.021  0.00  0.00    +0.000 C 
ENDBRANCH  20  24
BRANCH  21  26
ATOM     26  O   UNL     1       4.256   2.322  18.759  0.00  0.00    +0.000 OA
ATOM     27  C   UNL     1       4.412   1.732  20.036  0.00  0.00    +0.000 C 
ENDBRANCH  21  26
ENDBRANCH   1  18
TORSDOF 5
ENDMDL
MODEL 9
REMARK VINA RESULT:      -7.4      1.569      2.044
REMARK  Name = 
REMARK  9 active torsions:
REMARK  status: ('A' for Active; 'I' for Inactive)
REMARK    1  A    between atoms: C_1  and  O_2
REMARK    2  A    between atoms: O_2  and  C_3
REMARK    3  A    between atoms: C_5  and  C_6
REMARK    4  A    between atoms: C_9  and  C_10
REMARK    5  A    between atoms: C_16  and  C_17
REMARK    6  A    between atoms: C_22  and  O_23
REMARK    7  A    between atoms: O_23  and  C_24
REMARK    8  A    between atoms: C_25  and  O_26
REMARK    9  A    between atoms: O_26  and  C_27
REMARK                            x       y       z     vdW  Elec       q    Type
REMARK                         _______ _______ _______ _____ _____    ______ ____
ROOT
ATOM      1  C   UNL     1       2.130   7.854  18.747  0.00  0.00    +0.000 A 
ATOM      2  N   UNL     1       2.010   8.660  17.711  0.00  0.00    +0.000 NA
ATOM      3  N   UNL     1       1.429   9.817  18.186  0.00  0.00    +0.000 NA
ATOM      4  C   UNL     1       1.245   9.650  19.485  0.00  0.00    +0.000 A 
ATOM      5  O   UNL     1       1.682   8.419  19.909  0.00  0.00    +0.000 OA
ENDROOT
BRANCH   4   6
ATOM      6  C   UNL     1       0.629  10.666  20.383  0.00  0.00    +0.000 A 
ATOM      7  C   UNL     1      -0.453  10.434  21.203  0.00  0.00    +0.000 A 
ATOM      8  N   UNL     1      -0.676  11.617  21.857  0.00  0.00    +0.000 N 
ATOM      9  C   UNL     1      -1.624  11.922  22.825  0.00  0.00    +0.000 A 
ATOM     10  C   UNL     1      -1.672  13.166  23.316  0.00  0.00    +0.000 A 
ATOM     11  C   UNL     1      -0.740  14.162  22.807  0.00  0.00    +0.000 A 
ATOM     12  C   UNL     1       0.194  13.881  21.865  0.00  0.00    +0.000 A 
ATOM     13  C   UNL     1       1.101  14.971  21.354  0.00  0.00    +0.000 C 
ATOM     14  C   UNL     1       0.257  12.531  21.372  0.00  0.00    +0.000 A 
ATOM     15  N   UNL     1       1.069  11.966  20.500  0.00  0.00    +0.000 NA
ENDBRANCH   4   6
BRANCH   1  18
ATOM     16  C   UNL     1       2.884   4.393  20.035  0.00  0.00    +0.000 A 
ATOM     17  C   UNL     1       2.467   5.735  19.969  0.00  0.00    +0.000 A 
ATOM     18  C   UNL     1       2.679   6.509  18.826  0.00  0.00    +0.000 A 
ATOM     19  C   UNL     1       3.395   5.939  17.775  0.00  0.00    +0.000 A 
ATOM     20  C   UNL     1       3.899   4.630  17.849  0.00  0.00    +0.000 A 
ATOM     21  C   UNL     1       3.654   3.836  18.991  0.00  0.00    +0.000 A 
BRANCH  16  23
ATOM     22  C   UNL     1       1.295   2.974  21.069  0.00  0.00    +0.000 C 
ATOM     23  O   UNL     1       2.561   3.635  21.133  0.00  0.00    +0.000 OA
ENDBRANCH  16  23
BRANCH  20  24
ATOM     24  O   UNL     1       4.580   4.303  16.701  0.00  0.00    +0.000 OA
ATOM     25  C   UNL     1       5.989   4.458  16.646  0.00  0.00    +0.000 C 
ENDBRANCH  20  24
BRANCH  21  26
ATOM     26  O   UNL     1       4.185   2.577  18.961  0.00  0.00    +0.000 OA
ATOM     27  C   UNL     1       3.476   1.481  18.413  0.00  0.00    +0.000 C 
ENDBRANCH  21  26
ENDBRANCH   1  18
TORSDOF 5
ENDMDL
