MODEL 1
REMARK VINA RESULT:      -5.9      0.000      0.000
REMARK  Name = 
REMARK  4 active torsions:
REMARK  status: ('A' for Active; 'I' for Inactive)
REMARK    1  A    between atoms: C_2  and  O_3
REMARK    2  A    between atoms: C_2  and  C_4
REMARK    3  A    between atoms: C_5  and  C_6
REMARK    4  A    between atoms: C_6  and  O_8
REMARK                            x       y       z     vdW  Elec       q    Type
REMARK                         _______ _______ _______ _____ _____    ______ ____
ROOT
ATOM      1  C   UNL     1       4.746   5.243  19.410  0.00  0.00    +0.000 C 
ATOM      2  C   UNL     1       3.800   4.184  20.088  0.00  0.00    +0.000 C 
ATOM      3  C   UNL     1       2.597   4.110  19.077  0.00  0.00    +0.000 C 
ATOM      4 CL   UNL     1       1.125   3.440  19.761  0.00  0.00    +0.000 Cl
ATOM      5  C   UNL     1       3.079   3.536  17.759  0.00  0.00    +0.000 C 
ATOM      6 CL   UNL     1       2.591   2.045  17.117  0.00  0.00    +0.000 Cl
ATOM      7  C   UNL     1       3.898   4.436  17.203  0.00  0.00    +0.000 C 
ATOM      8 CL   UNL     1       4.696   4.345  15.715  0.00  0.00    +0.000 Cl
ATOM      9  C   UNL     1       3.947   5.632  18.128  0.00  0.00    +0.000 C 
ATOM     10 CL   UNL     1       4.454   7.166  17.424  0.00  0.00    +0.000 Cl
ATOM     11  C   UNL     1       2.472   5.607  18.637  0.00  0.00    +0.000 C 
ATOM     12 CL   UNL     1       2.135   6.772  19.973  0.00  0.00    +0.000 Cl
ATOM     13 CL   UNL     1       1.229   5.942  17.369  0.00  0.00    +0.000 Cl
ENDROOT
BRANCH   1  15
ATOM     14  O   UNL     1       6.532   4.278  18.100  0.00  0.00    +0.000 OA
ATOM     15  C   UNL     1       6.170   4.834  19.121  0.00  0.00    +0.000 C 
BRANCH  15  16
ATOM     16  O   UNL     1       7.020   5.037  20.145  0.00  0.00    +0.000 OA
ATOM     17  H   UNL     1       6.690   5.508  20.937  0.00  0.00    +0.000 HD
ENDBRANCH  15  16
ENDBRANCH   1  15
BRANCH   2  18
ATOM     18  C   UNL     1       4.365   2.825  20.440  0.00  0.00    +0.000 C 
ATOM     19  O   UNL     1       4.045   2.181  21.425  0.00  0.00    +0.000 OA
BRANCH  18  20
ATOM     20  O   UNL     1       5.312   2.392  19.584  0.00  0.00    +0.000 OA
ATOM     21  H   UNL     1       5.844   1.619  19.843  0.00  0.00    +0.000 HD
ENDBRANCH  18  20
ENDBRANCH   2  18
TORSDOF 4
ENDMDL
MODEL 2
REMARK VINA RESULT:      -5.9      0.292      1.050
REMARK  Name = 
REMARK  4 active torsions:
REMARK  status: ('A' for Active; 'I' for Inactive)
REMARK    1  A    between atoms: C_2  and  O_3
REMARK    2  A    between atoms: C_2  and  C_4
REMARK    3  A    between atoms: C_5  and  C_6
REMARK    4  A    between atoms: C_6  and  O_8
REMARK                            x       y       z     vdW  Elec       q    Type
REMARK                         _______ _______ _______ _____ _____    ______ ____
ROOT
ATOM      1  C   UNL     1       4.643   5.242  19.523  0.00  0.00    +0.000 C 
ATOM      2  C   UNL     1       3.625   4.250  20.198  0.00  0.00    +0.000 C 
ATOM      3  C   UNL     1       2.460   4.193  19.142  0.00  0.00    +0.000 C 
ATOM      4 CL   UNL     1       0.934   3.611  19.787  0.00  0.00    +0.000 Cl
ATOM      5  C   UNL     1       2.968   3.552  17.864  0.00  0.00    +0.000 C 
ATOM      6 CL   UNL     1       2.439   2.062  17.253  0.00  0.00    +0.000 Cl
ATOM      7  C   UNL     1       3.847   4.396  17.313  0.00  0.00    +0.000 C 
ATOM      8 CL   UNL     1       4.698   4.217  15.862  0.00  0.00    +0.000 Cl
ATOM      9  C   UNL     1       3.913   5.620  18.198  0.00  0.00    +0.000 C 
ATOM     10 CL   UNL     1       4.514   7.105  17.465  0.00  0.00    +0.000 Cl
ATOM     11  C   UNL     1       2.419   5.676  18.648  0.00  0.00    +0.000 C 
ATOM     12 CL   UNL     1       2.083   6.902  19.928  0.00  0.00    +0.000 Cl
ATOM     13 CL   UNL     1       1.243   6.020  17.320  0.00  0.00    +0.000 Cl
ENDROOT
BRANCH   1  15
ATOM     14  O   UNL     1       7.023   5.165  19.931  0.00  0.00    +0.000 OA
ATOM     15  C   UNL     1       6.058   4.762  19.307  0.00  0.00    +0.000 C 
BRANCH  15  16
ATOM     16  O   UNL     1       6.199   3.910  18.274  0.00  0.00    +0.000 OA
ATOM     17  H   UNL     1       6.535   3.009  18.457  0.00  0.00    +0.000 HD
ENDBRANCH  15  16
ENDBRANCH   1  15
BRANCH   2  18
ATOM     18  C   UNL     1       4.115   2.881  20.618  0.00  0.00    +0.000 C 
ATOM     19  O   UNL     1       5.014   2.272  20.064  0.00  0.00    +0.000 OA
BRANCH  18  20
ATOM     20  O   UNL     1       3.430   2.352  21.651  0.00  0.00    +0.000 OA
ATOM     21  H   UNL     1       3.217   2.931  22.404  0.00  0.00    +0.000 HD
ENDBRANCH  18  20
ENDBRANCH   2  18
TORSDOF 4
ENDMDL
MODEL 3
REMARK VINA RESULT:      -5.6      9.438     11.452
REMARK  Name = 
REMARK  4 active torsions:
REMARK  status: ('A' for Active; 'I' for Inactive)
REMARK    1  A    between atoms: C_2  and  O_3
REMARK    2  A    between atoms: C_2  and  C_4
REMARK    3  A    between atoms: C_5  and  C_6
REMARK    4  A    between atoms: C_6  and  O_8
REMARK                            x       y       z     vdW  Elec       q    Type
REMARK                         _______ _______ _______ _____ _____    ______ ____
ROOT
ATOM      1  C   UNL     1      10.304  13.585  20.650  0.00  0.00    +0.000 C 
ATOM      2  C   UNL     1       9.498  14.808  20.076  0.00  0.00    +0.000 C 
ATOM      3  C   UNL     1       9.567  14.559  18.524  0.00  0.00    +0.000 C 
ATOM      4 CL   UNL     1       9.238  15.984  17.552  0.00  0.00    +0.000 Cl
ATOM      5  C   UNL     1       8.808  13.291  18.182  0.00  0.00    +0.000 C 
ATOM      6 CL   UNL     1       7.386  13.233  17.261  0.00  0.00    +0.000 Cl
ATOM      7  C   UNL     1       9.493  12.262  18.694  0.00  0.00    +0.000 C 
ATOM      8 CL   UNL     1       9.134  10.612  18.587  0.00  0.00    +0.000 Cl
ATOM      9  C   UNL     1      10.729  12.827  19.355  0.00  0.00    +0.000 C 
ATOM     10 CL   UNL     1      12.081  11.724  19.600  0.00  0.00    +0.000 Cl
ATOM     11  C   UNL     1      11.019  14.000  18.366  0.00  0.00    +0.000 C 
ATOM     12 CL   UNL     1      12.331  15.113  18.910  0.00  0.00    +0.000 Cl
ATOM     13 CL   UNL     1      11.476  13.484  16.695  0.00  0.00    +0.000 Cl
ENDROOT
BRANCH   1  15
ATOM     14  O   UNL     1       8.906  13.105  22.561  0.00  0.00    +0.000 OA
ATOM     15  C   UNL     1       9.616  12.698  21.659  0.00  0.00    +0.000 C 
BRANCH  15  16
ATOM     16  O   UNL     1       9.935  11.394  21.554  0.00  0.00    +0.000 OA
ATOM     17  H   UNL     1       9.766  10.811  22.322  0.00  0.00    +0.000 HD
ENDBRANCH  15  16
ENDBRANCH   1  15
BRANCH   2  18
ATOM     18  C   UNL     1       8.091  15.050  20.578  0.00  0.00    +0.000 C 
ATOM     19  O   UNL     1       7.084  14.636  20.030  0.00  0.00    +0.000 OA
BRANCH  18  20
ATOM     20  O   UNL     1       8.033  15.823  21.681  0.00  0.00    +0.000 OA
ATOM     21  H   UNL     1       8.311  16.752  21.604  0.00  0.00    +0.000 HD
ENDBRANCH  18  20
ENDBRANCH   2  18
TORSDOF 4
ENDMDL
MODEL 4
REMARK VINA RESULT:      -5.4      9.134     11.023
REMARK  Name = 
REMARK  4 active torsions:
REMARK  status: ('A' for Active; 'I' for Inactive)
REMARK    1  A    between atoms: C_2  and  O_3
REMARK    2  A    between atoms: C_2  and  C_4
REMARK    3  A    between atoms: C_5  and  C_6
REMARK    4  A    between atoms: C_6  and  O_8
REMARK                            x       y       z     vdW  Elec       q    Type
REMARK                         _______ _______ _______ _____ _____    ______ ____
ROOT
ATOM      1  C   UNL     1      10.195  13.097  20.571  0.00  0.00    +0.000 C 
ATOM      2  C   UNL     1       9.317  14.316  20.102  0.00  0.00    +0.000 C 
ATOM      3  C   UNL     1       9.441  14.239  18.536  0.00  0.00    +0.000 C 
ATOM      4 CL   UNL     1       9.035  15.734  17.709  0.00  0.00    +0.000 Cl
ATOM      5  C   UNL     1       8.782  12.966  18.040  0.00  0.00    +0.000 C 
ATOM      6 CL   UNL     1       7.391  12.910  17.074  0.00  0.00    +0.000 Cl
ATOM      7  C   UNL     1       9.526  11.938  18.462  0.00  0.00    +0.000 C 
ATOM      8 CL   UNL     1       9.288  10.288  18.173  0.00  0.00    +0.000 Cl
ATOM      9  C   UNL     1      10.703  12.512  19.217  0.00  0.00    +0.000 C 
ATOM     10 CL   UNL     1      12.123  11.484  19.386  0.00  0.00    +0.000 Cl
ATOM     11  C   UNL     1      10.933  13.801  18.365  0.00  0.00    +0.000 C 
ATOM     12 CL   UNL     1      12.149  14.936  19.064  0.00  0.00    +0.000 Cl
ATOM     13 CL   UNL     1      11.464  13.498  16.665  0.00  0.00    +0.000 Cl
ENDROOT
BRANCH   1  15
ATOM     14  O   UNL     1       9.022  11.041  21.055  0.00  0.00    +0.000 OA
ATOM     15  C   UNL     1       9.548  12.062  21.459  0.00  0.00    +0.000 C 
BRANCH  15  16
ATOM     16  O   UNL     1       9.497  12.407  22.760  0.00  0.00    +0.000 OA
ATOM     17  H   UNL     1       9.576  11.699  23.431  0.00  0.00    +0.000 HD
ENDBRANCH  15  16
ENDBRANCH   1  15
BRANCH   2  18
ATOM     18  C   UNL     1       7.885  14.407  20.583  0.00  0.00    +0.000 C 
ATOM     19  O   UNL     1       7.480  13.935  21.631  0.00  0.00    +0.000 OA
BRANCH  18  20
ATOM     20  O   UNL     1       7.059  15.026  19.716  0.00  0.00    +0.000 OA
ATOM     21  H   UNL     1       7.053  15.999  19.704  0.00  0.00    +0.000 HD
ENDBRANCH  18  20
ENDBRANCH   2  18
TORSDOF 4
ENDMDL
MODEL 5
REMARK VINA RESULT:      -5.4      9.714     11.437
REMARK  Name = 
REMARK  4 active torsions:
REMARK  status: ('A' for Active; 'I' for Inactive)
REMARK    1  A    between atoms: C_2  and  O_3
REMARK    2  A    between atoms: C_2  and  C_4
REMARK    3  A    between atoms: C_5  and  C_6
REMARK    4  A    between atoms: C_6  and  O_8
REMARK                            x       y       z     vdW  Elec       q    Type
REMARK                         _______ _______ _______ _____ _____    ______ ____
ROOT
ATOM      1  C   UNL     1       9.348  13.382  17.576  0.00  0.00    +0.000 C 
ATOM      2  C   UNL     1      10.104  12.210  18.306  0.00  0.00    +0.000 C 
ATOM      3  C   UNL     1      10.965  12.978  19.375  0.00  0.00    +0.000 C 
ATOM      4 CL   UNL     1      12.318  12.052  20.006  0.00  0.00    +0.000 Cl
ATOM      5  C   UNL     1      10.045  13.644  20.380  0.00  0.00    +0.000 C 
ATOM      6 CL   UNL     1       9.942  13.229  22.020  0.00  0.00    +0.000 Cl
ATOM      7  C   UNL     1       9.395  14.624  19.742  0.00  0.00    +0.000 C 
ATOM      8 CL   UNL     1       8.272  15.718  20.377  0.00  0.00    +0.000 Cl
ATOM      9  C   UNL     1       9.894  14.642  18.315  0.00  0.00    +0.000 C 
ATOM     10 CL   UNL     1       9.672  16.137  17.410  0.00  0.00    +0.000 Cl
ATOM     11  C   UNL     1      11.385  14.254  18.574  0.00  0.00    +0.000 C 
ATOM     12 CL   UNL     1      12.333  13.939  17.072  0.00  0.00    +0.000 Cl
ATOM     13 CL   UNL     1      12.333  15.478  19.504  0.00  0.00    +0.000 Cl
ENDROOT
BRANCH   1  15
ATOM     14  O   UNL     1       7.106  13.969  18.258  0.00  0.00    +0.000 OA
ATOM     15  C   UNL     1       7.841  13.327  17.528  0.00  0.00    +0.000 C 
BRANCH  15  16
ATOM     16  O   UNL     1       7.349  12.415  16.669  0.00  0.00    +0.000 OA
ATOM     17  H   UNL     1       6.752  11.722  17.018  0.00  0.00    +0.000 HD
ENDBRANCH  15  16
ENDBRANCH   1  15
BRANCH   2  18
ATOM     18  C   UNL     1       9.290  11.079  18.897  0.00  0.00    +0.000 C 
ATOM     19  O   UNL     1       9.112  10.911  20.091  0.00  0.00    +0.000 OA
BRANCH  18  20
ATOM     20  O   UNL     1       8.806  10.220  17.978  0.00  0.00    +0.000 OA
ATOM     21  H   UNL     1       8.414  10.589  17.168  0.00  0.00    +0.000 HD
ENDBRANCH  18  20
ENDBRANCH   2  18
TORSDOF 4
ENDMDL
MODEL 6
REMARK VINA RESULT:      -5.3      7.214      8.703
REMARK  Name = 
REMARK  4 active torsions:
REMARK  status: ('A' for Active; 'I' for Inactive)
REMARK    1  A    between atoms: C_2  and  O_3
REMARK    2  A    between atoms: C_2  and  C_4
REMARK    3  A    between atoms: C_5  and  C_6
REMARK    4  A    between atoms: C_6  and  O_8
REMARK                            x       y       z     vdW  Elec       q    Type
REMARK                         _______ _______ _______ _____ _____    ______ ____
ROOT
ATOM      1  C   UNL     1       0.849  10.485  21.019  0.00  0.00    +0.000 C 
ATOM      2  C   UNL     1       0.110  11.492  21.976  0.00  0.00    +0.000 C 
ATOM      3  C   UNL     1      -0.489  12.539  20.967  0.00  0.00    +0.000 C 
ATOM      4 CL   UNL     1      -0.920  14.077  21.699  0.00  0.00    +0.000 Cl
ATOM      5  C   UNL     1      -1.532  11.864  20.097  0.00  0.00    +0.000 C 
ATOM      6 CL   UNL     1      -3.188  12.222  20.118  0.00  0.00    +0.000 Cl
ATOM      7  C   UNL     1      -0.893  10.997  19.304  0.00  0.00    +0.000 C 
ATOM      8 CL   UNL     1      -1.549   9.997  18.108  0.00  0.00    +0.000 Cl
ATOM      9  C   UNL     1       0.583  11.106  19.613  0.00  0.00    +0.000 C 
ATOM     10 CL   UNL     1       1.703  10.542  18.375  0.00  0.00    +0.000 Cl
ATOM     11  C   UNL     1       0.658  12.637  19.908  0.00  0.00    +0.000 C 
ATOM     12 CL   UNL     1       2.252  13.185  20.552  0.00  0.00    +0.000 Cl
ATOM     13 CL   UNL     1       0.314  13.698  18.486  0.00  0.00    +0.000 Cl
ENDROOT
BRANCH   1  15
ATOM     14  O   UNL     1      -0.667   8.615  21.218  0.00  0.00    +0.000 OA
ATOM     15  C   UNL     1       0.474   9.026  21.105  0.00  0.00    +0.000 C 
BRANCH  15  16
ATOM     16  O   UNL     1       1.527   8.188  21.155  0.00  0.00    +0.000 OA
ATOM     17  H   UNL     1       2.339   8.489  21.611  0.00  0.00    +0.000 HD
ENDBRANCH  15  16
ENDBRANCH   1  15
BRANCH   2  18
ATOM     18  C   UNL     1      -0.915  10.949  22.949  0.00  0.00    +0.000 C 
ATOM     19  O   UNL     1      -2.038  11.403  23.089  0.00  0.00    +0.000 OA
BRANCH  18  20
ATOM     20  O   UNL     1      -0.461   9.929  23.703  0.00  0.00    +0.000 OA
ATOM     21  H   UNL     1       0.052  10.143  24.502  0.00  0.00    +0.000 HD
ENDBRANCH  18  20
ENDBRANCH   2  18
TORSDOF 4
ENDMDL
MODEL 7
REMARK VINA RESULT:      -5.3      9.934     11.999
REMARK  Name = 
REMARK  4 active torsions:
REMARK  status: ('A' for Active; 'I' for Inactive)
REMARK    1  A    between atoms: C_2  and  O_3
REMARK    2  A    between atoms: C_2  and  C_4
REMARK    3  A    between atoms: C_5  and  C_6
REMARK    4  A    between atoms: C_6  and  O_8
REMARK                            x       y       z     vdW  Elec       q    Type
REMARK                         _______ _______ _______ _____ _____    ______ ____
ROOT
ATOM      1  C   UNL     1       8.521  13.257  18.835  0.00  0.00    +0.000 C 
ATOM      2  C   UNL     1       8.815  14.475  19.787  0.00  0.00    +0.000 C 
ATOM      3  C   UNL     1      10.376  14.398  19.961  0.00  0.00    +0.000 C 
ATOM      4 CL   UNL     1      10.986  15.263  21.363  0.00  0.00    +0.000 Cl
ATOM      5  C   UNL     1      11.047  14.669  18.628  0.00  0.00    +0.000 C 
ATOM      6 CL   UNL     1      12.014  16.019  18.288  0.00  0.00    +0.000 Cl
ATOM      7  C   UNL     1      10.773  13.637  17.823  0.00  0.00    +0.000 C 
ATOM      8 CL   UNL     1      11.291  13.385  16.232  0.00  0.00    +0.000 Cl
ATOM      9  C   UNL     1       9.943  12.653  18.617  0.00  0.00    +0.000 C 
ATOM     10 CL   UNL     1       9.917  10.986  18.048  0.00  0.00    +0.000 Cl
ATOM     11  C   UNL     1      10.604  12.852  20.017  0.00  0.00    +0.000 C 
ATOM     12 CL   UNL     1       9.752  12.000  21.360  0.00  0.00    +0.000 Cl
ATOM     13 CL   UNL     1      12.329  12.324  20.119  0.00  0.00    +0.000 Cl
ENDROOT
BRANCH   1  15
ATOM     14  O   UNL     1       7.314  12.669  16.826  0.00  0.00    +0.000 OA
ATOM     15  C   UNL     1       7.788  13.531  17.544  0.00  0.00    +0.000 C 
BRANCH  15  16
ATOM     16  O   UNL     1       7.784  14.827  17.177  0.00  0.00    +0.000 OA
ATOM     17  H   UNL     1       7.705  15.508  17.875  0.00  0.00    +0.000 HD
ENDBRANCH  15  16
ENDBRANCH   1  15
BRANCH   2  18
ATOM     18  C   UNL     1       8.329  15.849  19.379  0.00  0.00    +0.000 C 
ATOM     19  O   UNL     1       9.027  16.697  18.850  0.00  0.00    +0.000 OA
BRANCH  18  20
ATOM     20  O   UNL     1       7.041  16.087  19.699  0.00  0.00    +0.000 OA
ATOM     21  H   UNL     1       6.672  15.637  20.479  0.00  0.00    +0.000 HD
ENDBRANCH  18  20
ENDBRANCH   2  18
TORSDOF 4
ENDMDL
MODEL 8
REMARK VINA RESULT:      -5.3      2.333      3.083
REMARK  Name = 
REMARK  4 active torsions:
REMARK  status: ('A' for Active; 'I' for Inactive)
REMARK    1  A    between atoms: C_2  and  O_3
REMARK    2  A    between atoms: C_2  and  C_4
REMARK    3  A    between atoms: C_5  and  C_6
REMARK    4  A    between atoms: C_6  and  O_8
REMARK                            x       y       z     vdW  Elec       q    Type
REMARK                         _______ _______ _______ _____ _____    ______ ____
ROOT
ATOM      1  C   UNL     1       5.929   6.799  18.199  0.00  0.00    +0.000 C 
ATOM      2  C   UNL     1       6.259   5.428  18.896  0.00  0.00    +0.000 C 
ATOM      3  C   UNL     1       5.149   4.478  18.312  0.00  0.00    +0.000 C 
ATOM      4 CL   UNL     1       4.879   3.023  19.258  0.00  0.00    +0.000 Cl
ATOM      5  C   UNL     1       5.361   4.311  16.820  0.00  0.00    +0.000 C 
ATOM      6 CL   UNL     1       5.792   2.858  16.060  0.00  0.00    +0.000 Cl
ATOM      7  C   UNL     1       5.098   5.488  16.242  0.00  0.00    +0.000 C 
ATOM      8 CL   UNL     1       5.135   5.876  14.596  0.00  0.00    +0.000 Cl
ATOM      9  C   UNL     1       4.679   6.444  17.336  0.00  0.00    +0.000 C 
ATOM     10 CL   UNL     1       3.739   7.852  16.851  0.00  0.00    +0.000 Cl
ATOM     11  C   UNL     1       3.917   5.440  18.258  0.00  0.00    +0.000 C 
ATOM     12 CL   UNL     1       3.416   6.134  19.846  0.00  0.00    +0.000 Cl
ATOM     13 CL   UNL     1       2.416   4.740  17.534  0.00  0.00    +0.000 Cl
ENDROOT
BRANCH   1  15
ATOM     14  O   UNL     1       7.636   6.941  16.495  0.00  0.00    +0.000 OA
ATOM     15  C   UNL     1       7.026   7.469  17.407  0.00  0.00    +0.000 C 
BRANCH  15  16
ATOM     16  O   UNL     1       7.366   8.691  17.861  0.00  0.00    +0.000 OA
ATOM     17  H   UNL     1       7.457   8.819  18.827  0.00  0.00    +0.000 HD
ENDBRANCH  15  16
ENDBRANCH   1  15
BRANCH   2  18
ATOM     18  C   UNL     1       7.656   4.863  18.763  0.00  0.00    +0.000 C 
ATOM     19  O   UNL     1       8.014   4.114  17.870  0.00  0.00    +0.000 OA
BRANCH  18  20
ATOM     20  O   UNL     1       8.485   5.222  19.764  0.00  0.00    +0.000 OA
ATOM     21  H   UNL     1       8.276   4.915  20.663  0.00  0.00    +0.000 HD
ENDBRANCH  18  20
ENDBRANCH   2  18
TORSDOF 4
ENDMDL
MODEL 9
REMARK VINA RESULT:      -5.3      2.476      4.044
REMARK  Name = 
REMARK  4 active torsions:
REMARK  status: ('A' for Active; 'I' for Inactive)
REMARK    1  A    between atoms: C_2  and  O_3
REMARK    2  A    between atoms: C_2  and  C_4
REMARK    3  A    between atoms: C_5  and  C_6
REMARK    4  A    between atoms: C_6  and  O_8
REMARK                            x       y       z     vdW  Elec       q    Type
REMARK                         _______ _______ _______ _____ _____    ______ ____
ROOT
ATOM      1  C   UNL     1       3.478   3.814  20.494  0.00  0.00    +0.000 C 
ATOM      2  C   UNL     1       3.114   5.296  20.112  0.00  0.00    +0.000 C 
ATOM      3  C   UNL     1       3.282   5.293  18.548  0.00  0.00    +0.000 C 
ATOM      4 CL   UNL     1       3.473   6.890  17.843  0.00  0.00    +0.000 Cl
ATOM      5  C   UNL     1       2.242   4.378  17.930  0.00  0.00    +0.000 C 
ATOM      6 CL   UNL     1       0.972   4.891  16.932  0.00  0.00    +0.000 Cl
ATOM      7  C   UNL     1       2.552   3.124  18.279  0.00  0.00    +0.000 C 
ATOM      8 CL   UNL     1       1.762   1.693  17.844  0.00  0.00    +0.000 Cl
ATOM      9  C   UNL     1       3.816   3.185  19.106  0.00  0.00    +0.000 C 
ATOM     10 CL   UNL     1       4.770   1.709  19.219  0.00  0.00    +0.000 Cl
ATOM     11  C   UNL     1       4.529   4.366  18.374  0.00  0.00    +0.000 C 
ATOM     12 CL   UNL     1       6.031   4.939  19.193  0.00  0.00    +0.000 Cl
ATOM     13 CL   UNL     1       5.006   4.017  16.666  0.00  0.00    +0.000 Cl
ENDROOT
BRANCH   1  15
ATOM     14  O   UNL     1       1.767   2.137  20.802  0.00  0.00    +0.000 OA
ATOM     15  C   UNL     1       2.463   3.016  21.276  0.00  0.00    +0.000 C 
BRANCH  15  16
ATOM     16  O   UNL     1       2.299   3.429  22.547  0.00  0.00    +0.000 OA
ATOM     17  H   UNL     1       1.605   4.093  22.734  0.00  0.00    +0.000 HD
ENDBRANCH  15  16
ENDBRANCH   1  15
BRANCH   2  18
ATOM     18  C   UNL     1       1.783   5.857  20.567  0.00  0.00    +0.000 C 
ATOM     19  O   UNL     1       0.735   5.234  20.559  0.00  0.00    +0.000 OA
BRANCH  18  20
ATOM     20  O   UNL     1       1.840   7.149  20.946  0.00  0.00    +0.000 OA
ATOM     21  H   UNL     1       2.647   7.651  20.743  0.00  0.00    +0.000 HD
ENDBRANCH  18  20
ENDBRANCH   2  18
TORSDOF 4
ENDMDL
