MODEL 1
REMARK VINA RESULT:      -7.5      0.000      0.000
REMARK  Name = 
REMARK  6 active torsions:
REMARK  status: ('A' for Active; 'I' for Inactive)
REMARK    1  A    between atoms: C_2  and  C_3
REMARK    2  A    between atoms: C_3  and  N_4
REMARK    3  A    between atoms: C_7  and  C_8
REMARK    4  A    between atoms: C_8  and  C_10
REMARK    5  A    between atoms: N_19  and  C_20
REMARK    6  A    between atoms: C_20  and  C_21
REMARK                            x       y       z     vdW  Elec       q    Type
REMARK                         _______ _______ _______ _____ _____    ______ ____
ROOT
ATOM      1  N   UNL     1       4.697   5.750  18.853  0.00  0.00    +0.000 NA
ATOM      2  C   UNL     1       6.051   5.236  19.188  0.00  0.00    +0.000 C 
ATOM      3  C   UNL     1       7.147   6.164  18.630  0.00  0.00    +0.000 C 
ATOM      4  C   UNL     1       7.051   6.277  17.095  0.00  0.00    +0.000 C 
ATOM      5  C   UNL     1       5.626   6.768  16.765  0.00  0.00    +0.000 C 
ATOM      6  C   UNL     1       4.548   5.862  17.381  0.00  0.00    +0.000 C 
ENDROOT
BRANCH   4   7
ATOM      7  C   UNL     1       7.437   4.976  16.378  0.00  0.00    +0.000 C 
ATOM      8  O   UNL     1       8.079   4.131  16.984  0.00  0.00    +0.000 OA
BRANCH   7   9
ATOM      9  C   UNL     1       6.984   4.645  14.988  0.00  0.00    +0.000 A 
ATOM     10  C   UNL     1       5.943   3.728  14.730  0.00  0.00    +0.000 A 
ATOM     11  C   UNL     1       5.576   3.415  13.416  0.00  0.00    +0.000 A 
ATOM     12  C   UNL     1       6.238   4.008  12.340  0.00  0.00    +0.000 A 
ATOM     13  C   UNL     1       7.270   4.918  12.574  0.00  0.00    +0.000 A 
ATOM     14  F   UNL     1       7.918   5.490  11.529  0.00  0.00    +0.000 F 
ATOM     15  C   UNL     1       7.643   5.233  13.884  0.00  0.00    +0.000 A 
ENDBRANCH   7   9
ENDBRANCH   4   7
BRANCH   1  16
ATOM     16  C   UNL     1       3.620   4.848  19.335  0.00  0.00    +0.000 C 
BRANCH  16  18
ATOM     17  O   UNL     1       2.060   4.784  21.144  0.00  0.00    +0.000 OA
ATOM     18  C   UNL     1       2.614   5.458  20.286  0.00  0.00    +0.000 C 
ATOM     19  N   UNL     1       2.338   6.787  20.163  0.00  0.00    +0.000 N 
ATOM     20  H   UNL     1       2.846   7.329  19.444  0.00  0.00    +0.000 HD
BRANCH  19  21
ATOM     21  C   UNL     1       1.351   7.499  20.952  0.00  0.00    +0.000 C 
BRANCH  21  22
ATOM     22  C   UNL     1       1.165   8.867  20.369  0.00  0.00    +0.000 A 
ATOM     23  C   UNL     1       0.712   9.985  21.058  0.00  0.00    +0.000 A 
ATOM     24  C   UNL     1       0.605  11.122  20.251  0.00  0.00    +0.000 A 
ATOM     25  C   UNL     1       0.973  10.902  18.929  0.00  0.00    +0.000 A 
ATOM     26  S   UNL     1       1.435   9.292  18.764  0.00  0.00    +0.000 S 
ENDBRANCH  21  22
ENDBRANCH  19  21
ENDBRANCH  16  18
ENDBRANCH   1  16
TORSDOF 6
ENDMDL
MODEL 2
REMARK VINA RESULT:      -7.3      2.732      4.425
REMARK  Name = 
REMARK  6 active torsions:
REMARK  status: ('A' for Active; 'I' for Inactive)
REMARK    1  A    between atoms: C_2  and  C_3
REMARK    2  A    between atoms: C_3  and  N_4
REMARK    3  A    between atoms: C_7  and  C_8
REMARK    4  A    between atoms: C_8  and  C_10
REMARK    5  A    between atoms: N_19  and  C_20
REMARK    6  A    between atoms: C_20  and  C_21
REMARK                            x       y       z     vdW  Elec       q    Type
REMARK                         _______ _______ _______ _____ _____    ______ ____
ROOT
ATOM      1  N   UNL     1       1.590   6.671  19.991  0.00  0.00    +0.000 NA
ATOM      2  C   UNL     1       2.487   6.604  18.808  0.00  0.00    +0.000 C 
ATOM      3  C   UNL     1       2.124   5.408  17.907  0.00  0.00    +0.000 C 
ATOM      4  C   UNL     1       2.252   4.075  18.673  0.00  0.00    +0.000 C 
ATOM      5  C   UNL     1       1.350   4.182  19.920  0.00  0.00    +0.000 C 
ATOM      6  C   UNL     1       1.690   5.415  20.773  0.00  0.00    +0.000 C 
ENDROOT
BRANCH   4   7
ATOM      7  C   UNL     1       3.708   3.712  18.993  0.00  0.00    +0.000 C 
ATOM      8  O   UNL     1       3.947   3.016  19.969  0.00  0.00    +0.000 OA
BRANCH   7   9
ATOM      9  C   UNL     1       4.858   4.095  18.111  0.00  0.00    +0.000 A 
ATOM     10  C   UNL     1       4.921   3.725  16.750  0.00  0.00    +0.000 A 
ATOM     11  C   UNL     1       6.031   4.068  15.969  0.00  0.00    +0.000 A 
ATOM     12  C   UNL     1       7.093   4.780  16.528  0.00  0.00    +0.000 A 
ATOM     13  C   UNL     1       7.049   5.155  17.871  0.00  0.00    +0.000 A 
ATOM     14  F   UNL     1       8.083   5.842  18.417  0.00  0.00    +0.000 F 
ATOM     15  C   UNL     1       5.944   4.815  18.658  0.00  0.00    +0.000 A 
ENDBRANCH   7   9
ENDBRANCH   4   7
BRANCH   1  16
ATOM     16  C   UNL     1       1.950   7.785  20.905  0.00  0.00    +0.000 C 
BRANCH  16  18
ATOM     17  O   UNL     1       0.199   8.732  22.226  0.00  0.00    +0.000 OA
ATOM     18  C   UNL     1       0.858   8.789  21.196  0.00  0.00    +0.000 C 
ATOM     19  N   UNL     1       0.622   9.767  20.276  0.00  0.00    +0.000 N 
ATOM     20  H   UNL     1       1.215   9.799  19.430  0.00  0.00    +0.000 HD
BRANCH  19  21
ATOM     21  C   UNL     1      -0.433  10.757  20.378  0.00  0.00    +0.000 C 
BRANCH  21  22
ATOM     22  C   UNL     1      -1.222  10.754  19.105  0.00  0.00    +0.000 A 
ATOM     23  C   UNL     1      -1.058   9.860  18.055  0.00  0.00    +0.000 A 
ATOM     24  C   UNL     1      -1.913  10.115  16.976  0.00  0.00    +0.000 A 
ATOM     25  C   UNL     1      -2.749  11.207  17.178  0.00  0.00    +0.000 A 
ATOM     26  S   UNL     1      -2.427  11.854  18.697  0.00  0.00    +0.000 S 
ENDBRANCH  21  22
ENDBRANCH  19  21
ENDBRANCH  16  18
ENDBRANCH   1  16
TORSDOF 6
ENDMDL
MODEL 3
REMARK VINA RESULT:      -7.2      2.449      4.240
REMARK  Name = 
REMARK  6 active torsions:
REMARK  status: ('A' for Active; 'I' for Inactive)
REMARK    1  A    between atoms: C_2  and  C_3
REMARK    2  A    between atoms: C_3  and  N_4
REMARK    3  A    between atoms: C_7  and  C_8
REMARK    4  A    between atoms: C_8  and  C_10
REMARK    5  A    between atoms: N_19  and  C_20
REMARK    6  A    between atoms: C_20  and  C_21
REMARK                            x       y       z     vdW  Elec       q    Type
REMARK                         _______ _______ _______ _____ _____    ______ ____
ROOT
ATOM      1  N   UNL     1       1.591   6.541  19.904  0.00  0.00    +0.000 NA
ATOM      2  C   UNL     1       2.490   6.473  18.722  0.00  0.00    +0.000 C 
ATOM      3  C   UNL     1       2.185   5.227  17.867  0.00  0.00    +0.000 C 
ATOM      4  C   UNL     1       2.378   3.932  18.683  0.00  0.00    +0.000 C 
ATOM      5  C   UNL     1       1.472   4.042  19.927  0.00  0.00    +0.000 C 
ATOM      6  C   UNL     1       1.752   5.321  20.732  0.00  0.00    +0.000 C 
ENDROOT
BRANCH   4   7
ATOM      7  C   UNL     1       3.850   3.653  19.014  0.00  0.00    +0.000 C 
ATOM      8  O   UNL     1       4.123   3.008  20.015  0.00  0.00    +0.000 OA
BRANCH   7   9
ATOM      9  C   UNL     1       4.980   4.055  18.114  0.00  0.00    +0.000 A 
ATOM     10  C   UNL     1       6.047   4.865  18.557  0.00  0.00    +0.000 A 
ATOM     11  C   UNL     1       7.063   5.252  17.675  0.00  0.00    +0.000 A 
ATOM     12  C   UNL     1       7.032   4.842  16.342  0.00  0.00    +0.000 A 
ATOM     13  C   UNL     1       5.986   4.041  15.885  0.00  0.00    +0.000 A 
ATOM     14  F   UNL     1       5.952   3.646  14.587  0.00  0.00    +0.000 F 
ATOM     15  C   UNL     1       4.967   3.651  16.760  0.00  0.00    +0.000 A 
ENDBRANCH   7   9
ENDBRANCH   4   7
BRANCH   1  16
ATOM     16  C   UNL     1       1.897   7.705  20.774  0.00  0.00    +0.000 C 
BRANCH  16  18
ATOM     17  O   UNL     1      -0.147   8.388  21.806  0.00  0.00    +0.000 OA
ATOM     18  C   UNL     1       0.756   8.665  21.029  0.00  0.00    +0.000 C 
ATOM     19  N   UNL     1       0.760   9.856  20.366  0.00  0.00    +0.000 N 
ATOM     20  H   UNL     1       1.553  10.066  19.737  0.00  0.00    +0.000 HD
BRANCH  19  21
ATOM     21  C   UNL     1      -0.294  10.849  20.451  0.00  0.00    +0.000 C 
BRANCH  21  22
ATOM     22  C   UNL     1      -1.094  10.812  19.183  0.00  0.00    +0.000 A 
ATOM     23  C   UNL     1      -0.936   9.892  18.155  0.00  0.00    +0.000 A 
ATOM     24  C   UNL     1      -1.799  10.119  17.077  0.00  0.00    +0.000 A 
ATOM     25  C   UNL     1      -2.636  11.213  17.258  0.00  0.00    +0.000 A 
ATOM     26  S   UNL     1      -2.304  11.899  18.759  0.00  0.00    +0.000 S 
ENDBRANCH  21  22
ENDBRANCH  19  21
ENDBRANCH  16  18
ENDBRANCH   1  16
TORSDOF 6
ENDMDL
MODEL 4
REMARK VINA RESULT:      -7.2      4.886      7.058
REMARK  Name = 
REMARK  6 active torsions:
REMARK  status: ('A' for Active; 'I' for Inactive)
REMARK    1  A    between atoms: C_2  and  C_3
REMARK    2  A    between atoms: C_3  and  N_4
REMARK    3  A    between atoms: C_7  and  C_8
REMARK    4  A    between atoms: C_8  and  C_10
REMARK    5  A    between atoms: N_19  and  C_20
REMARK    6  A    between atoms: C_20  and  C_21
REMARK                            x       y       z     vdW  Elec       q    Type
REMARK                         _______ _______ _______ _____ _____    ______ ____
ROOT
ATOM      1  N   UNL     1       7.151   6.436  17.512  0.00  0.00    +0.000 NA
ATOM      2  C   UNL     1       7.472   4.990  17.638  0.00  0.00    +0.000 C 
ATOM      3  C   UNL     1       6.548   4.140  16.745  0.00  0.00    +0.000 C 
ATOM      4  C   UNL     1       5.068   4.331  17.135  0.00  0.00    +0.000 C 
ATOM      5  C   UNL     1       4.767   5.842  17.042  0.00  0.00    +0.000 C 
ATOM      6  C   UNL     1       5.738   6.676  17.893  0.00  0.00    +0.000 C 
ENDROOT
BRANCH   4   7
ATOM      7  C   UNL     1       4.729   3.717  18.500  0.00  0.00    +0.000 C 
ATOM      8  O   UNL     1       5.625   3.541  19.313  0.00  0.00    +0.000 OA
BRANCH   7   9
ATOM      9  C   UNL     1       3.327   3.404  18.928  0.00  0.00    +0.000 A 
ATOM     10  C   UNL     1       2.269   3.261  18.005  0.00  0.00    +0.000 A 
ATOM     11  C   UNL     1       0.966   3.008  18.448  0.00  0.00    +0.000 A 
ATOM     12  C   UNL     1       0.694   2.894  19.812  0.00  0.00    +0.000 A 
ATOM     13  C   UNL     1       1.727   3.031  20.740  0.00  0.00    +0.000 A 
ATOM     14  F   UNL     1       1.463   2.927  22.067  0.00  0.00    +0.000 F 
ATOM     15  C   UNL     1       3.031   3.286  20.305  0.00  0.00    +0.000 A 
ENDBRANCH   7   9
ENDBRANCH   4   7
BRANCH   1  16
ATOM     16  C   UNL     1       7.993   7.276  18.402  0.00  0.00    +0.000 C 
BRANCH  16  18
ATOM     17  O   UNL     1       7.498   9.205  17.081  0.00  0.00    +0.000 OA
ATOM     18  C   UNL     1       8.151   8.725  17.998  0.00  0.00    +0.000 C 
ATOM     19  N   UNL     1       9.046   9.490  18.686  0.00  0.00    +0.000 N 
ATOM     20  H   UNL     1       9.560   9.057  19.471  0.00  0.00    +0.000 HD
BRANCH  19  21
ATOM     21  C   UNL     1       9.359  10.871  18.375  0.00  0.00    +0.000 C 
BRANCH  21  22
ATOM     22  C   UNL     1       9.387  11.658  19.650  0.00  0.00    +0.000 A 
ATOM     23  C   UNL     1       9.258  11.130  20.928  0.00  0.00    +0.000 A 
ATOM     24  C   UNL     1       9.289  12.105  21.931  0.00  0.00    +0.000 A 
ATOM     25  C   UNL     1       9.444  13.397  21.444  0.00  0.00    +0.000 A 
ATOM     26  S   UNL     1       9.544  13.328  19.766  0.00  0.00    +0.000 S 
ENDBRANCH  21  22
ENDBRANCH  19  21
ENDBRANCH  16  18
ENDBRANCH   1  16
TORSDOF 6
ENDMDL
MODEL 5
REMARK VINA RESULT:      -7.0      2.153      2.673
REMARK  Name = 
REMARK  6 active torsions:
REMARK  status: ('A' for Active; 'I' for Inactive)
REMARK    1  A    between atoms: C_2  and  C_3
REMARK    2  A    between atoms: C_3  and  N_4
REMARK    3  A    between atoms: C_7  and  C_8
REMARK    4  A    between atoms: C_8  and  C_10
REMARK    5  A    between atoms: N_19  and  C_20
REMARK    6  A    between atoms: C_20  and  C_21
REMARK                            x       y       z     vdW  Elec       q    Type
REMARK                         _______ _______ _______ _____ _____    ______ ____
ROOT
ATOM      1  N   UNL     1       4.017   6.680  18.267  0.00  0.00    +0.000 NA
ATOM      2  C   UNL     1       4.425   5.307  18.662  0.00  0.00    +0.000 C 
ATOM      3  C   UNL     1       5.954   5.139  18.576  0.00  0.00    +0.000 C 
ATOM      4  C   UNL     1       6.460   5.387  17.140  0.00  0.00    +0.000 C 
ATOM      5  C   UNL     1       5.989   6.798  16.732  0.00  0.00    +0.000 C 
ATOM      6  C   UNL     1       4.468   6.963  16.882  0.00  0.00    +0.000 C 
ENDROOT
BRANCH   4   7
ATOM      7  C   UNL     1       6.033   4.285  16.161  0.00  0.00    +0.000 C 
ATOM      8  O   UNL     1       5.265   3.415  16.543  0.00  0.00    +0.000 OA
BRANCH   7   9
ATOM      9  C   UNL     1       6.440   4.273  14.718  0.00  0.00    +0.000 A 
ATOM     10  C   UNL     1       7.500   5.065  14.225  0.00  0.00    +0.000 A 
ATOM     11  C   UNL     1       7.823   5.056  12.864  0.00  0.00    +0.000 A 
ATOM     12  C   UNL     1       7.100   4.262  11.973  0.00  0.00    +0.000 A 
ATOM     13  C   UNL     1       6.049   3.472  12.441  0.00  0.00    +0.000 A 
ATOM     14  F   UNL     1       5.341   2.704  11.575  0.00  0.00    +0.000 F 
ATOM     15  C   UNL     1       5.720   3.477  13.800  0.00  0.00    +0.000 A 
ENDBRANCH   7   9
ENDBRANCH   4   7
BRANCH   1  16
ATOM     16  C   UNL     1       2.542   6.856  18.292  0.00  0.00    +0.000 C 
BRANCH  16  18
ATOM     17  O   UNL     1       2.177   9.032  17.375  0.00  0.00    +0.000 OA
ATOM     18  C   UNL     1       2.041   8.282  18.332  0.00  0.00    +0.000 C 
ATOM     19  N   UNL     1       1.428   8.715  19.471  0.00  0.00    +0.000 N 
ATOM     20  H   UNL     1       1.308   8.046  20.249  0.00  0.00    +0.000 HD
BRANCH  19  21
ATOM     21  C   UNL     1       0.957  10.070  19.688  0.00  0.00    +0.000 C 
BRANCH  21  22
ATOM     22  C   UNL     1       0.283  10.137  21.024  0.00  0.00    +0.000 A 
ATOM     23  C   UNL     1       0.246   9.114  21.963  0.00  0.00    +0.000 A 
ATOM     24  C   UNL     1      -0.484   9.446  23.110  0.00  0.00    +0.000 A 
ATOM     25  C   UNL     1      -1.020  10.727  23.075  0.00  0.00    +0.000 A 
ATOM     26  S   UNL     1      -0.585  11.449  21.618  0.00  0.00    +0.000 S 
ENDBRANCH  21  22
ENDBRANCH  19  21
ENDBRANCH  16  18
ENDBRANCH   1  16
TORSDOF 6
ENDMDL
MODEL 6
REMARK VINA RESULT:      -7.0      2.778      4.521
REMARK  Name = 
REMARK  6 active torsions:
REMARK  status: ('A' for Active; 'I' for Inactive)
REMARK    1  A    between atoms: C_2  and  C_3
REMARK    2  A    between atoms: C_3  and  N_4
REMARK    3  A    between atoms: C_7  and  C_8
REMARK    4  A    between atoms: C_8  and  C_10
REMARK    5  A    between atoms: N_19  and  C_20
REMARK    6  A    between atoms: C_20  and  C_21
REMARK                            x       y       z     vdW  Elec       q    Type
REMARK                         _______ _______ _______ _____ _____    ______ ____
ROOT
ATOM      1  N   UNL     1       1.730   6.578  19.212  0.00  0.00    +0.000 NA
ATOM      2  C   UNL     1       2.510   6.069  18.054  0.00  0.00    +0.000 C 
ATOM      3  C   UNL     1       2.092   4.629  17.697  0.00  0.00    +0.000 C 
ATOM      4  C   UNL     1       2.329   3.672  18.882  0.00  0.00    +0.000 C 
ATOM      5  C   UNL     1       1.549   4.241  20.086  0.00  0.00    +0.000 C 
ATOM      6  C   UNL     1       1.937   5.697  20.388  0.00  0.00    +0.000 C 
ENDROOT
BRANCH   4   7
ATOM      7  C   UNL     1       3.818   3.436  19.168  0.00  0.00    +0.000 C 
ATOM      8  O   UNL     1       4.139   2.744  20.122  0.00  0.00    +0.000 OA
BRANCH   7   9
ATOM      9  C   UNL     1       4.910   3.940  18.272  0.00  0.00    +0.000 A 
ATOM     10  C   UNL     1       5.889   4.854  18.716  0.00  0.00    +0.000 A 
ATOM     11  C   UNL     1       6.869   5.332  17.838  0.00  0.00    +0.000 A 
ATOM     12  C   UNL     1       6.890   4.909  16.508  0.00  0.00    +0.000 A 
ATOM     13  C   UNL     1       5.931   4.005  16.051  0.00  0.00    +0.000 A 
ATOM     14  F   UNL     1       5.947   3.597  14.757  0.00  0.00    +0.000 F 
ATOM     15  C   UNL     1       4.948   3.524  16.922  0.00  0.00    +0.000 A 
ENDBRANCH   7   9
ENDBRANCH   4   7
BRANCH   1  16
ATOM     16  C   UNL     1       2.147   7.947  19.611  0.00  0.00    +0.000 C 
BRANCH  16  18
ATOM     17  O   UNL     1       2.040   9.229  17.597  0.00  0.00    +0.000 OA
ATOM     18  C   UNL     1       1.641   9.078  18.745  0.00  0.00    +0.000 C 
ATOM     19  N   UNL     1       0.721   9.932  19.276  0.00  0.00    +0.000 N 
ATOM     20  H   UNL     1       0.388   9.758  20.239  0.00  0.00    +0.000 HD
BRANCH  19  21
ATOM     21  C   UNL     1       0.194  11.101  18.598  0.00  0.00    +0.000 C 
BRANCH  21  22
ATOM     22  C   UNL     1      -1.230  10.834  18.215  0.00  0.00    +0.000 A 
ATOM     23  C   UNL     1      -1.657   9.864  17.317  0.00  0.00    +0.000 A 
ATOM     24  C   UNL     1      -3.043   9.863  17.127  0.00  0.00    +0.000 A 
ATOM     25  C   UNL     1      -3.707  10.827  17.876  0.00  0.00    +0.000 A 
ATOM     26  S   UNL     1      -2.570  11.682  18.775  0.00  0.00    +0.000 S 
ENDBRANCH  21  22
ENDBRANCH  19  21
ENDBRANCH  16  18
ENDBRANCH   1  16
TORSDOF 6
ENDMDL
MODEL 7
REMARK VINA RESULT:      -7.0      2.405      4.105
REMARK  Name = 
REMARK  6 active torsions:
REMARK  status: ('A' for Active; 'I' for Inactive)
REMARK    1  A    between atoms: C_2  and  C_3
REMARK    2  A    between atoms: C_3  and  N_4
REMARK    3  A    between atoms: C_7  and  C_8
REMARK    4  A    between atoms: C_8  and  C_10
REMARK    5  A    between atoms: N_19  and  C_20
REMARK    6  A    between atoms: C_20  and  C_21
REMARK                            x       y       z     vdW  Elec       q    Type
REMARK                         _______ _______ _______ _____ _____    ______ ____
ROOT
ATOM      1  N   UNL     1       1.597   6.618  20.069  0.00  0.00    +0.000 NA
ATOM      2  C   UNL     1       2.534   6.667  18.916  0.00  0.00    +0.000 C 
ATOM      3  C   UNL     1       2.252   5.520  17.926  0.00  0.00    +0.000 C 
ATOM      4  C   UNL     1       2.413   4.146  18.607  0.00  0.00    +0.000 C 
ATOM      5  C   UNL     1       1.467   4.132  19.826  0.00  0.00    +0.000 C 
ATOM      6  C   UNL     1       1.725   5.317  20.770  0.00  0.00    +0.000 C 
ENDROOT
BRANCH   4   7
ATOM      7  C   UNL     1       3.872   3.822  18.954  0.00  0.00    +0.000 C 
ATOM      8  O   UNL     1       4.114   3.172  19.960  0.00  0.00    +0.000 OA
BRANCH   7   9
ATOM      9  C   UNL     1       5.023   4.188  18.065  0.00  0.00    +0.000 A 
ATOM     10  C   UNL     1       6.050   5.061  18.480  0.00  0.00    +0.000 A 
ATOM     11  C   UNL     1       7.086   5.409  17.606  0.00  0.00    +0.000 A 
ATOM     12  C   UNL     1       7.116   4.896  16.309  0.00  0.00    +0.000 A 
ATOM     13  C   UNL     1       6.110   4.030  15.880  0.00  0.00    +0.000 A 
ATOM     14  F   UNL     1       6.134   3.535  14.617  0.00  0.00    +0.000 F 
ATOM     15  C   UNL     1       5.071   3.679  16.748  0.00  0.00    +0.000 A 
ENDBRANCH   7   9
ENDBRANCH   4   7
BRANCH   1  16
ATOM     16  C   UNL     1       1.879   7.683  21.066  0.00  0.00    +0.000 C 
BRANCH  16  18
ATOM     17  O   UNL     1      -0.394   8.179  21.609  0.00  0.00    +0.000 OA
ATOM     18  C   UNL     1       0.731   8.610  21.394  0.00  0.00    +0.000 C 
ATOM     19  N   UNL     1       0.981   9.950  21.445  0.00  0.00    +0.000 N 
ATOM     20  H   UNL     1       1.949  10.274  21.283  0.00  0.00    +0.000 HD
BRANCH  19  21
ATOM     21  C   UNL     1      -0.025  10.967  21.678  0.00  0.00    +0.000 C 
BRANCH  21  22
ATOM     22  C   UNL     1      -0.347  11.634  20.375  0.00  0.00    +0.000 A 
ATOM     23  C   UNL     1      -1.169  11.114  19.383  0.00  0.00    +0.000 A 
ATOM     24  C   UNL     1      -1.263  11.942  18.258  0.00  0.00    +0.000 A 
ATOM     25  C   UNL     1      -0.519  13.111  18.366  0.00  0.00    +0.000 A 
ATOM     26  S   UNL     1       0.255  13.117  19.860  0.00  0.00    +0.000 S 
ENDBRANCH  21  22
ENDBRANCH  19  21
ENDBRANCH  16  18
ENDBRANCH   1  16
TORSDOF 6
ENDMDL
MODEL 8
REMARK VINA RESULT:      -7.0      4.726      7.203
REMARK  Name = 
REMARK  6 active torsions:
REMARK  status: ('A' for Active; 'I' for Inactive)
REMARK    1  A    between atoms: C_2  and  C_3
REMARK    2  A    between atoms: C_3  and  N_4
REMARK    3  A    between atoms: C_7  and  C_8
REMARK    4  A    between atoms: C_8  and  C_10
REMARK    5  A    between atoms: N_19  and  C_20
REMARK    6  A    between atoms: C_20  and  C_21
REMARK                            x       y       z     vdW  Elec       q    Type
REMARK                         _______ _______ _______ _____ _____    ______ ____
ROOT
ATOM      1  N   UNL     1       6.521   6.807  16.663  0.00  0.00    +0.000 NA
ATOM      2  C   UNL     1       7.270   5.803  17.464  0.00  0.00    +0.000 C 
ATOM      3  C   UNL     1       6.909   4.369  17.028  0.00  0.00    +0.000 C 
ATOM      4  C   UNL     1       5.403   4.094  17.214  0.00  0.00    +0.000 C 
ATOM      5  C   UNL     1       4.644   5.173  16.413  0.00  0.00    +0.000 C 
ATOM      6  C   UNL     1       5.062   6.594  16.821  0.00  0.00    +0.000 C 
ENDROOT
BRANCH   4   7
ATOM      7  C   UNL     1       4.991   4.017  18.690  0.00  0.00    +0.000 C 
ATOM      8  O   UNL     1       5.857   4.034  19.552  0.00  0.00    +0.000 OA
BRANCH   7   9
ATOM      9  C   UNL     1       3.560   4.014  19.139  0.00  0.00    +0.000 A 
ATOM     10  C   UNL     1       3.049   4.973  20.039  0.00  0.00    +0.000 A 
ATOM     11  C   UNL     1       1.717   4.913  20.465  0.00  0.00    +0.000 A 
ATOM     12  C   UNL     1       0.875   3.899  20.005  0.00  0.00    +0.000 A 
ATOM     13  C   UNL     1       1.362   2.942  19.114  0.00  0.00    +0.000 A 
ATOM     14  F   UNL     1       0.547   1.953  18.671  0.00  0.00    +0.000 F 
ATOM     15  C   UNL     1       2.692   2.996  18.685  0.00  0.00    +0.000 A 
ENDBRANCH   7   9
ENDBRANCH   4   7
BRANCH   1  16
ATOM     16  C   UNL     1       6.811   8.197  17.096  0.00  0.00    +0.000 C 
BRANCH  16  18
ATOM     17  O   UNL     1       8.411   7.414  18.689  0.00  0.00    +0.000 OA
ATOM     18  C   UNL     1       7.951   8.368  18.075  0.00  0.00    +0.000 C 
ATOM     19  N   UNL     1       8.459   9.620  18.259  0.00  0.00    +0.000 N 
ATOM     20  H   UNL     1       8.062  10.396  17.703  0.00  0.00    +0.000 HD
BRANCH  19  21
ATOM     21  C   UNL     1       9.501   9.954  19.210  0.00  0.00    +0.000 C 
BRANCH  21  22
ATOM     22  C   UNL     1      10.138  11.245  18.792  0.00  0.00    +0.000 A 
ATOM     23  C   UNL     1       9.677  12.085  17.787  0.00  0.00    +0.000 A 
ATOM     24  C   UNL     1      10.492  13.207  17.593  0.00  0.00    +0.000 A 
ATOM     25  C   UNL     1      11.589  13.250  18.443  0.00  0.00    +0.000 A 
ATOM     26  S   UNL     1      11.548  11.894  19.440  0.00  0.00    +0.000 S 
ENDBRANCH  21  22
ENDBRANCH  19  21
ENDBRANCH  16  18
ENDBRANCH   1  16
TORSDOF 6
ENDMDL
MODEL 9
REMARK VINA RESULT:      -7.0      4.763      7.351
REMARK  Name = 
REMARK  6 active torsions:
REMARK  status: ('A' for Active; 'I' for Inactive)
REMARK    1  A    between atoms: C_2  and  C_3
REMARK    2  A    between atoms: C_3  and  N_4
REMARK    3  A    between atoms: C_7  and  C_8
REMARK    4  A    between atoms: C_8  and  C_10
REMARK    5  A    between atoms: N_19  and  C_20
REMARK    6  A    between atoms: C_20  and  C_21
REMARK                            x       y       z     vdW  Elec       q    Type
REMARK                         _______ _______ _______ _____ _____    ______ ____
ROOT
ATOM      1  N   UNL     1       6.935   6.438  16.958  0.00  0.00    +0.000 NA
ATOM      2  C   UNL     1       6.489   6.000  18.306  0.00  0.00    +0.000 C 
ATOM      3  C   UNL     1       5.985   4.544  18.276  0.00  0.00    +0.000 C 
ATOM      4  C   UNL     1       4.793   4.388  17.311  0.00  0.00    +0.000 C 
ATOM      5  C   UNL     1       5.261   4.890  15.928  0.00  0.00    +0.000 C 
ATOM      6  C   UNL     1       5.815   6.322  15.992  0.00  0.00    +0.000 C 
ENDROOT
BRANCH   4   7
ATOM      7  C   UNL     1       3.522   5.080  17.820  0.00  0.00    +0.000 C 
ATOM      8  O   UNL     1       3.260   6.208  17.429  0.00  0.00    +0.000 OA
BRANCH   7   9
ATOM      9  C   UNL     1       2.525   4.403  18.712  0.00  0.00    +0.000 A 
ATOM     10  C   UNL     1       2.334   4.783  20.057  0.00  0.00    +0.000 A 
ATOM     11  C   UNL     1       1.422   4.099  20.869  0.00  0.00    +0.000 A 
ATOM     12  C   UNL     1       0.688   3.028  20.356  0.00  0.00    +0.000 A 
ATOM     13  C   UNL     1       0.862   2.637  19.028  0.00  0.00    +0.000 A 
ATOM     14  F   UNL     1       0.154   1.593  18.531  0.00  0.00    +0.000 F 
ATOM     15  C   UNL     1       1.773   3.316  18.212  0.00  0.00    +0.000 A 
ENDBRANCH   7   9
ENDBRANCH   4   7
BRANCH   1  16
ATOM     16  C   UNL     1       7.378   7.856  16.947  0.00  0.00    +0.000 C 
BRANCH  16  18
ATOM     17  O   UNL     1       8.628   7.498  18.952  0.00  0.00    +0.000 OA
ATOM     18  C   UNL     1       8.225   8.299  18.119  0.00  0.00    +0.000 C 
ATOM     19  N   UNL     1       8.531   9.624  18.225  0.00  0.00    +0.000 N 
ATOM     20  H   UNL     1       8.194  10.266  17.489  0.00  0.00    +0.000 HD
BRANCH  19  21
ATOM     21  C   UNL     1       9.272  10.211  19.324  0.00  0.00    +0.000 C 
BRANCH  21  22
ATOM     22  C   UNL     1       9.889  11.495  18.858  0.00  0.00    +0.000 A 
ATOM     23  C   UNL     1      10.673  11.648  17.722  0.00  0.00    +0.000 A 
ATOM     24  C   UNL     1      11.142  12.955  17.550  0.00  0.00    +0.000 A 
ATOM     25  C   UNL     1      10.726  13.829  18.547  0.00  0.00    +0.000 A 
ATOM     26  S   UNL     1       9.774  12.978  19.642  0.00  0.00    +0.000 S 
ENDBRANCH  21  22
ENDBRANCH  19  21
ENDBRANCH  16  18
ENDBRANCH   1  16
TORSDOF 6
ENDMDL
