MODEL 1
REMARK VINA RESULT:      -7.3      0.000      0.000
REMARK  Name = 
REMARK  11 active torsions:
REMARK  status: ('A' for Active; 'I' for Inactive)
REMARK    1  A    between atoms: C_1  and  O_2
REMARK    2  A    between atoms: O_2  and  C_3
REMARK    3  A    between atoms: C_3  and  O_4
REMARK    4  A    between atoms: O_4  and  C_5
REMARK    5  A    between atoms: C_9  and  C_10
REMARK    6  A    between atoms: C_10  and  C_12
REMARK    7  A    between atoms: C_13  and  C_14
REMARK    8  A    between atoms: C_17  and  C_18
REMARK    9  A    between atoms: N_23  and  C_24
REMARK   10  A    between atoms: C_24  and  C_25
REMARK   11  A    between atoms: C_25  and  O_27
REMARK                            x       y       z     vdW  Elec       q    Type
REMARK                         _______ _______ _______ _____ _____    ______ ____
ROOT
ATOM      1  C   UNL     1       1.513   9.698  18.557  0.00  0.00    +0.000 A 
ATOM      2  C   UNL     1       0.839   9.270  19.704  0.00  0.00    +0.000 A 
ATOM      3  C   UNL     1       0.011  10.151  20.404  0.00  0.00    +0.000 A 
ATOM      4  C   UNL     1      -0.146  11.469  19.961  0.00  0.00    +0.000 A 
ATOM      5  C   UNL     1       0.531  11.901  18.818  0.00  0.00    +0.000 A 
ATOM      6  C   UNL     1       1.358  11.016  18.117  0.00  0.00    +0.000 A 
ENDROOT
BRANCH   4   7
ATOM      7  C   UNL     1      -1.046  12.366  20.682  0.00  0.00    +0.000 C 
ATOM      8  C   UNL     1      -2.354  12.520  20.440  0.00  0.00    +0.000 C 
ATOM      9  S   UNL     1      -3.316  13.679  21.282  0.00  0.00    +0.000 S 
ATOM     10  C   UNL     1      -4.754  13.328  20.335  0.00  0.00    +0.000 C 
ATOM     11  S   UNL     1      -6.170  14.184  20.533  0.00  0.00    +0.000 S 
ATOM     12  N   UNL     1      -4.502  12.277  19.479  0.00  0.00    +0.000 N 
ATOM     13  C   UNL     1      -3.202  11.809  19.443  0.00  0.00    +0.000 C 
ATOM     14  O   UNL     1      -2.816  10.972  18.638  0.00  0.00    +0.000 OA
BRANCH  12  15
ATOM     15  C   UNL     1      -5.508  11.626  18.637  0.00  0.00    +0.000 C 
BRANCH  15  16
ATOM     16  C   UNL     1      -5.521  12.134  17.202  0.00  0.00    +0.000 C 
ATOM     17  O   UNL     1      -6.115  13.145  16.853  0.00  0.00    +0.000 OA
BRANCH  16  18
ATOM     18  O   UNL     1      -4.910  11.323  16.307  0.00  0.00    +0.000 OA
ATOM     19  H   UNL     1      -5.385  11.220  15.446  0.00  0.00    +0.000 HD
ENDBRANCH  16  18
ENDBRANCH  15  16
ENDBRANCH  12  15
ENDBRANCH   4   7
BRANCH   1  21
ATOM     20  C   UNL     1       2.832   7.659  18.405  0.00  0.00    +0.000 C 
ATOM     21  C   UNL     1       2.330   8.748  17.806  0.00  0.00    +0.000 C 
BRANCH  20  22
ATOM     22  C   UNL     1       3.693   6.720  17.636  0.00  0.00    +0.000 C 
ATOM     23  O   UNL     1       4.643   7.114  16.969  0.00  0.00    +0.000 OA
BRANCH  22  28
ATOM     24  C   UNL     1       1.875   3.423  18.204  0.00  0.00    +0.000 A 
ATOM     25  C   UNL     1       2.822   2.530  17.694  0.00  0.00    +0.000 A 
ATOM     26  C   UNL     1       4.025   2.998  17.169  0.00  0.00    +0.000 A 
ATOM     27  C   UNL     1       4.289   4.367  17.156  0.00  0.00    +0.000 A 
ATOM     28  C   UNL     1       3.346   5.272  17.661  0.00  0.00    +0.000 A 
ATOM     29  C   UNL     1       2.142   4.793  18.201  0.00  0.00    +0.000 A 
BRANCH  24  30
ATOM     30  O   UNL     1       0.765   2.843  18.753  0.00  0.00    +0.000 OA
BRANCH  30  31
ATOM     31  C   UNL     1       0.558   3.079  20.145  0.00  0.00    +0.000 C 
BRANCH  31  33
ATOM     32  C   UNL     1       2.220   3.402  21.795  0.00  0.00    +0.000 C 
ATOM     33  O   UNL     1       1.583   2.470  20.933  0.00  0.00    +0.000 OA
ENDBRANCH  31  33
ENDBRANCH  30  31
ENDBRANCH  24  30
ENDBRANCH  22  28
ENDBRANCH  20  22
ENDBRANCH   1  21
TORSDOF 10
ENDMDL
MODEL 2
REMARK VINA RESULT:      -7.2      3.640      5.558
REMARK  Name = 
REMARK  11 active torsions:
REMARK  status: ('A' for Active; 'I' for Inactive)
REMARK    1  A    between atoms: C_1  and  O_2
REMARK    2  A    between atoms: O_2  and  C_3
REMARK    3  A    between atoms: C_3  and  O_4
REMARK    4  A    between atoms: O_4  and  C_5
REMARK    5  A    between atoms: C_9  and  C_10
REMARK    6  A    between atoms: C_10  and  C_12
REMARK    7  A    between atoms: C_13  and  C_14
REMARK    8  A    between atoms: C_17  and  C_18
REMARK    9  A    between atoms: N_23  and  C_24
REMARK   10  A    between atoms: C_24  and  C_25
REMARK   11  A    between atoms: C_25  and  O_27
REMARK                            x       y       z     vdW  Elec       q    Type
REMARK                         _______ _______ _______ _____ _____    ______ ____
ROOT
ATOM      1  C   UNL     1       2.233   7.757  18.913  0.00  0.00    +0.000 A 
ATOM      2  C   UNL     1       1.818   8.514  17.814  0.00  0.00    +0.000 A 
ATOM      3  C   UNL     1       0.916   9.567  17.986  0.00  0.00    +0.000 A 
ATOM      4  C   UNL     1       0.420   9.866  19.259  0.00  0.00    +0.000 A 
ATOM      5  C   UNL     1       0.828   9.107  20.358  0.00  0.00    +0.000 A 
ATOM      6  C   UNL     1       1.734   8.055  20.186  0.00  0.00    +0.000 A 
ENDROOT
BRANCH   4   7
ATOM      7  C   UNL     1      -0.493  10.996  19.427  0.00  0.00    +0.000 C 
ATOM      8  C   UNL     1      -0.132  12.276  19.576  0.00  0.00    +0.000 C 
ATOM      9  S   UNL     1      -1.283  13.529  19.866  0.00  0.00    +0.000 S 
ATOM     10  C   UNL     1      -0.046  14.765  20.049  0.00  0.00    +0.000 C 
ATOM     11  S   UNL     1      -0.424  16.334  20.462  0.00  0.00    +0.000 S 
ATOM     12  N   UNL     1       1.194  14.223  19.787  0.00  0.00    +0.000 N 
ATOM     13  C   UNL     1       1.238  12.860  19.565  0.00  0.00    +0.000 C 
ATOM     14  O   UNL     1       2.284  12.236  19.449  0.00  0.00    +0.000 OA
BRANCH  12  15
ATOM     15  C   UNL     1       2.441  14.989  19.712  0.00  0.00    +0.000 C 
BRANCH  15  16
ATOM     16  C   UNL     1       2.726  15.554  18.327  0.00  0.00    +0.000 C 
ATOM     17  O   UNL     1       3.451  15.000  17.513  0.00  0.00    +0.000 OA
BRANCH  16  18
ATOM     18  O   UNL     1       2.200  16.779  18.094  0.00  0.00    +0.000 OA
ATOM     19  H   UNL     1       2.137  17.363  18.889  0.00  0.00    +0.000 HD
ENDBRANCH  16  18
ENDBRANCH  15  16
ENDBRANCH  12  15
ENDBRANCH   4   7
BRANCH   1  21
ATOM     20  C   UNL     1       2.972   5.452  19.157  0.00  0.00    +0.000 C 
ATOM     21  C   UNL     1       3.219   6.696  18.725  0.00  0.00    +0.000 C 
BRANCH  20  22
ATOM     22  C   UNL     1       4.002   4.390  18.990  0.00  0.00    +0.000 C 
ATOM     23  O   UNL     1       4.092   3.450  19.772  0.00  0.00    +0.000 OA
BRANCH  22  28
ATOM     24  C   UNL     1       5.544   4.405  15.509  0.00  0.00    +0.000 A 
ATOM     25  C   UNL     1       6.863   4.742  15.827  0.00  0.00    +0.000 A 
ATOM     26  C   UNL     1       7.236   4.967  17.151  0.00  0.00    +0.000 A 
ATOM     27  C   UNL     1       6.289   4.851  18.167  0.00  0.00    +0.000 A 
ATOM     28  C   UNL     1       4.963   4.517  17.860  0.00  0.00    +0.000 A 
ATOM     29  C   UNL     1       4.596   4.278  16.526  0.00  0.00    +0.000 A 
BRANCH  24  30
ATOM     30  O   UNL     1       5.313   4.141  14.187  0.00  0.00    +0.000 OA
BRANCH  30  31
ATOM     31  C   UNL     1       6.469   3.973  13.369  0.00  0.00    +0.000 C 
BRANCH  31  33
ATOM     32  C   UNL     1       4.795   3.275  11.850  0.00  0.00    +0.000 C 
ATOM     33  O   UNL     1       6.170   3.207  12.200  0.00  0.00    +0.000 OA
ENDBRANCH  31  33
ENDBRANCH  30  31
ENDBRANCH  24  30
ENDBRANCH  22  28
ENDBRANCH  20  22
ENDBRANCH   1  21
TORSDOF 10
ENDMDL
MODEL 3
REMARK VINA RESULT:      -7.2      3.461      5.340
REMARK  Name = 
REMARK  11 active torsions:
REMARK  status: ('A' for Active; 'I' for Inactive)
REMARK    1  A    between atoms: C_1  and  O_2
REMARK    2  A    between atoms: O_2  and  C_3
REMARK    3  A    between atoms: C_3  and  O_4
REMARK    4  A    between atoms: O_4  and  C_5
REMARK    5  A    between atoms: C_9  and  C_10
REMARK    6  A    between atoms: C_10  and  C_12
REMARK    7  A    between atoms: C_13  and  C_14
REMARK    8  A    between atoms: C_17  and  C_18
REMARK    9  A    between atoms: N_23  and  C_24
REMARK   10  A    between atoms: C_24  and  C_25
REMARK   11  A    between atoms: C_25  and  O_27
REMARK                            x       y       z     vdW  Elec       q    Type
REMARK                         _______ _______ _______ _____ _____    ______ ____
ROOT
ATOM      1  C   UNL     1       2.230   7.776  19.126  0.00  0.00    +0.000 A 
ATOM      2  C   UNL     1       1.671   8.049  20.377  0.00  0.00    +0.000 A 
ATOM      3  C   UNL     1       0.712   9.055  20.515  0.00  0.00    +0.000 A 
ATOM      4  C   UNL     1       0.308   9.798  19.401  0.00  0.00    +0.000 A 
ATOM      5  C   UNL     1       0.869   9.531  18.150  0.00  0.00    +0.000 A 
ATOM      6  C   UNL     1       1.828   8.522  18.012  0.00  0.00    +0.000 A 
ENDROOT
BRANCH   4   7
ATOM      7  C   UNL     1      -0.725  10.820  19.556  0.00  0.00    +0.000 C 
ATOM      8  C   UNL     1      -0.508  12.120  19.796  0.00  0.00    +0.000 C 
ATOM      9  S   UNL     1      -1.798  13.235  20.061  0.00  0.00    +0.000 S 
ATOM     10  C   UNL     1      -0.709  14.573  20.398  0.00  0.00    +0.000 C 
ATOM     11  S   UNL     1      -1.274  16.072  20.859  0.00  0.00    +0.000 S 
ATOM     12  N   UNL     1       0.595  14.172  20.203  0.00  0.00    +0.000 N 
ATOM     13  C   UNL     1       0.793  12.834  19.917  0.00  0.00    +0.000 C 
ATOM     14  O   UNL     1       1.903  12.324  19.849  0.00  0.00    +0.000 OA
BRANCH  12  15
ATOM     15  C   UNL     1       1.759  15.060  20.261  0.00  0.00    +0.000 C 
BRANCH  15  16
ATOM     16  C   UNL     1       2.247  15.512  18.892  0.00  0.00    +0.000 C 
ATOM     17  O   UNL     1       1.700  16.392  18.241  0.00  0.00    +0.000 OA
BRANCH  16  18
ATOM     18  O   UNL     1       3.279  14.794  18.391  0.00  0.00    +0.000 OA
ATOM     19  H   UNL     1       3.241  14.635  17.416  0.00  0.00    +0.000 HD
ENDBRANCH  16  18
ENDBRANCH  15  16
ENDBRANCH  12  15
ENDBRANCH   4   7
BRANCH   1  21
ATOM     20  C   UNL     1       2.771   5.413  18.922  0.00  0.00    +0.000 C 
ATOM     21  C   UNL     1       3.190   6.684  18.989  0.00  0.00    +0.000 C 
BRANCH  20  22
ATOM     22  C   UNL     1       3.763   4.308  18.819  0.00  0.00    +0.000 C 
ATOM     23  O   UNL     1       3.743   3.351  19.584  0.00  0.00    +0.000 OA
BRANCH  22  28
ATOM     24  C   UNL     1       5.581   4.412  15.475  0.00  0.00    +0.000 A 
ATOM     25  C   UNL     1       6.897   4.577  15.917  0.00  0.00    +0.000 A 
ATOM     26  C   UNL     1       7.180   4.661  17.279  0.00  0.00    +0.000 A 
ATOM     27  C   UNL     1       6.146   4.575  18.208  0.00  0.00    +0.000 A 
ATOM     28  C   UNL     1       4.822   4.413  17.777  0.00  0.00    +0.000 A 
ATOM     29  C   UNL     1       4.544   4.315  16.405  0.00  0.00    +0.000 A 
BRANCH  24  30
ATOM     30  O   UNL     1       5.434   4.275  14.123  0.00  0.00    +0.000 OA
BRANCH  30  31
ATOM     31  C   UNL     1       6.608   3.918  13.396  0.00  0.00    +0.000 C 
BRANCH  31  33
ATOM     32  C   UNL     1       5.463   2.576  11.821  0.00  0.00    +0.000 C 
ATOM     33  O   UNL     1       6.316   3.695  12.014  0.00  0.00    +0.000 OA
ENDBRANCH  31  33
ENDBRANCH  30  31
ENDBRANCH  24  30
ENDBRANCH  22  28
ENDBRANCH  20  22
ENDBRANCH   1  21
TORSDOF 10
ENDMDL
MODEL 4
REMARK VINA RESULT:      -7.2      3.659      5.684
REMARK  Name = 
REMARK  11 active torsions:
REMARK  status: ('A' for Active; 'I' for Inactive)
REMARK    1  A    between atoms: C_1  and  O_2
REMARK    2  A    between atoms: O_2  and  C_3
REMARK    3  A    between atoms: C_3  and  O_4
REMARK    4  A    between atoms: O_4  and  C_5
REMARK    5  A    between atoms: C_9  and  C_10
REMARK    6  A    between atoms: C_10  and  C_12
REMARK    7  A    between atoms: C_13  and  C_14
REMARK    8  A    between atoms: C_17  and  C_18
REMARK    9  A    between atoms: N_23  and  C_24
REMARK   10  A    between atoms: C_24  and  C_25
REMARK   11  A    between atoms: C_25  and  O_27
REMARK                            x       y       z     vdW  Elec       q    Type
REMARK                         _______ _______ _______ _____ _____    ______ ____
ROOT
ATOM      1  C   UNL     1       1.891   8.241  18.854  0.00  0.00    +0.000 A 
ATOM      2  C   UNL     1       1.410   9.035  17.810  0.00  0.00    +0.000 A 
ATOM      3  C   UNL     1       0.625  10.157  18.083  0.00  0.00    +0.000 A 
ATOM      4  C   UNL     1       0.313  10.491  19.405  0.00  0.00    +0.000 A 
ATOM      5  C   UNL     1       0.788   9.696  20.452  0.00  0.00    +0.000 A 
ATOM      6  C   UNL     1       1.576   8.574  20.176  0.00  0.00    +0.000 A 
ENDROOT
BRANCH   4   7
ATOM      7  C   UNL     1      -0.477  11.691  19.676  0.00  0.00    +0.000 C 
ATOM      8  C   UNL     1       0.005  12.936  19.784  0.00  0.00    +0.000 C 
ATOM      9  S   UNL     1      -0.997  14.277  20.204  0.00  0.00    +0.000 S 
ATOM     10  C   UNL     1       0.353  15.403  20.245  0.00  0.00    +0.000 C 
ATOM     11  S   UNL     1       0.157  16.995  20.698  0.00  0.00    +0.000 S 
ATOM     12  N   UNL     1       1.505  14.763  19.843  0.00  0.00    +0.000 N 
ATOM     13  C   UNL     1       1.409  13.403  19.617  0.00  0.00    +0.000 C 
ATOM     14  O   UNL     1       2.379  12.695  19.383  0.00  0.00    +0.000 OA
BRANCH  12  15
ATOM     15  C   UNL     1       2.795  15.423  19.626  0.00  0.00    +0.000 C 
BRANCH  15  16
ATOM     16  C   UNL     1       2.947  16.021  18.235  0.00  0.00    +0.000 C 
ATOM     17  O   UNL     1       3.439  15.415  17.294  0.00  0.00    +0.000 OA
BRANCH  16  18
ATOM     18  O   UNL     1       2.592  17.324  18.135  0.00  0.00    +0.000 OA
ATOM     19  H   UNL     1       1.628  17.482  17.986  0.00  0.00    +0.000 HD
ENDBRANCH  16  18
ENDBRANCH  15  16
ENDBRANCH  12  15
ENDBRANCH   4   7
BRANCH   1  21
ATOM     20  C   UNL     1       2.827   6.061  19.392  0.00  0.00    +0.000 C 
ATOM     21  C   UNL     1       2.757   7.104  18.554  0.00  0.00    +0.000 C 
BRANCH  20  22
ATOM     22  C   UNL     1       3.741   4.926  19.091  0.00  0.00    +0.000 C 
ATOM     23  O   UNL     1       3.756   3.910  19.777  0.00  0.00    +0.000 OA
BRANCH  22  28
ATOM     24  C   UNL     1       6.624   6.040  16.867  0.00  0.00    +0.000 A 
ATOM     25  C   UNL     1       6.352   5.290  15.720  0.00  0.00    +0.000 A 
ATOM     26  C   UNL     1       5.254   4.433  15.678  0.00  0.00    +0.000 A 
ATOM     27  C   UNL     1       4.417   4.326  16.788  0.00  0.00    +0.000 A 
ATOM     28  C   UNL     1       4.682   5.070  17.946  0.00  0.00    +0.000 A 
ATOM     29  C   UNL     1       5.781   5.942  17.976  0.00  0.00    +0.000 A 
BRANCH  24  30
ATOM     30  O   UNL     1       7.687   6.894  16.766  0.00  0.00    +0.000 OA
BRANCH  30  31
ATOM     31  C   UNL     1       7.984   7.667  17.928  0.00  0.00    +0.000 C 
BRANCH  31  33
ATOM     32  C   UNL     1       8.776   9.816  18.516  0.00  0.00    +0.000 C 
ATOM     33  O   UNL     1       7.939   9.068  17.646  0.00  0.00    +0.000 OA
ENDBRANCH  31  33
ENDBRANCH  30  31
ENDBRANCH  24  30
ENDBRANCH  22  28
ENDBRANCH  20  22
ENDBRANCH   1  21
TORSDOF 10
ENDMDL
MODEL 5
REMARK VINA RESULT:      -7.1      2.175      4.008
REMARK  Name = 
REMARK  11 active torsions:
REMARK  status: ('A' for Active; 'I' for Inactive)
REMARK    1  A    between atoms: C_1  and  O_2
REMARK    2  A    between atoms: O_2  and  C_3
REMARK    3  A    between atoms: C_3  and  O_4
REMARK    4  A    between atoms: O_4  and  C_5
REMARK    5  A    between atoms: C_9  and  C_10
REMARK    6  A    between atoms: C_10  and  C_12
REMARK    7  A    between atoms: C_13  and  C_14
REMARK    8  A    between atoms: C_17  and  C_18
REMARK    9  A    between atoms: N_23  and  C_24
REMARK   10  A    between atoms: C_24  and  C_25
REMARK   11  A    between atoms: C_25  and  O_27
REMARK                            x       y       z     vdW  Elec       q    Type
REMARK                         _______ _______ _______ _____ _____    ______ ____
ROOT
ATOM      1  C   UNL     1       2.047   8.223  18.659  0.00  0.00    +0.000 A 
ATOM      2  C   UNL     1       1.873   9.411  17.943  0.00  0.00    +0.000 A 
ATOM      3  C   UNL     1       1.242  10.505  18.539  0.00  0.00    +0.000 A 
ATOM      4  C   UNL     1       0.778  10.417  19.856  0.00  0.00    +0.000 A 
ATOM      5  C   UNL     1       0.946   9.229  20.572  0.00  0.00    +0.000 A 
ATOM      6  C   UNL     1       1.580   8.135  19.975  0.00  0.00    +0.000 A 
ENDROOT
BRANCH   4   7
ATOM      7  C   UNL     1       0.155  11.585  20.477  0.00  0.00    +0.000 C 
ATOM      8  C   UNL     1      -1.112  11.979  20.302  0.00  0.00    +0.000 C 
ATOM      9  S   UNL     1      -1.729  13.430  21.003  0.00  0.00    +0.000 S 
ATOM     10  C   UNL     1      -3.297  13.262  20.226  0.00  0.00    +0.000 C 
ATOM     11  S   UNL     1      -4.483  14.423  20.374  0.00  0.00    +0.000 S 
ATOM     12  N   UNL     1      -3.349  12.067  19.541  0.00  0.00    +0.000 N 
ATOM     13  C   UNL     1      -2.182  11.329  19.495  0.00  0.00    +0.000 C 
ATOM     14  O   UNL     1      -2.056  10.319  18.816  0.00  0.00    +0.000 OA
BRANCH  12  15
ATOM     15  C   UNL     1      -4.546  11.532  18.886  0.00  0.00    +0.000 C 
BRANCH  15  16
ATOM     16  C   UNL     1      -4.694  11.969  17.436  0.00  0.00    +0.000 C 
ATOM     17  O   UNL     1      -3.951  11.590  16.541  0.00  0.00    +0.000 OA
BRANCH  16  18
ATOM     18  O   UNL     1      -5.652  12.901  17.218  0.00  0.00    +0.000 OA
ATOM     19  H   UNL     1      -6.571  12.612  17.437  0.00  0.00    +0.000 HD
ENDBRANCH  16  18
ENDBRANCH  15  16
ENDBRANCH  12  15
ENDBRANCH   4   7
BRANCH   1  21
ATOM     20  C   UNL     1       2.412   5.842  18.315  0.00  0.00    +0.000 C 
ATOM     21  C   UNL     1       2.759   7.107  18.040  0.00  0.00    +0.000 C 
BRANCH  20  22
ATOM     22  C   UNL     1       3.170   4.716  17.705  0.00  0.00    +0.000 C 
ATOM     23  O   UNL     1       2.608   3.702  17.306  0.00  0.00    +0.000 OA
BRANCH  22  28
ATOM     24  C   UNL     1       6.749   4.814  16.408  0.00  0.00    +0.000 A 
ATOM     25  C   UNL     1       7.438   5.017  17.607  0.00  0.00    +0.000 A 
ATOM     26  C   UNL     1       6.745   5.127  18.811  0.00  0.00    +0.000 A 
ATOM     27  C   UNL     1       5.355   5.031  18.822  0.00  0.00    +0.000 A 
ATOM     28  C   UNL     1       4.652   4.831  17.626  0.00  0.00    +0.000 A 
ATOM     29  C   UNL     1       5.356   4.706  16.419  0.00  0.00    +0.000 A 
BRANCH  24  30
ATOM     30  O   UNL     1       7.537   4.653  15.303  0.00  0.00    +0.000 OA
BRANCH  30  31
ATOM     31  C   UNL     1       6.920   4.926  14.046  0.00  0.00    +0.000 C 
BRANCH  31  33
ATOM     32  C   UNL     1       5.801   3.472  12.554  0.00  0.00    +0.000 C 
ATOM     33  O   UNL     1       7.042   3.813  13.156  0.00  0.00    +0.000 OA
ENDBRANCH  31  33
ENDBRANCH  30  31
ENDBRANCH  24  30
ENDBRANCH  22  28
ENDBRANCH  20  22
ENDBRANCH   1  21
TORSDOF 10
ENDMDL
MODEL 6
REMARK VINA RESULT:      -7.1      7.929      9.906
REMARK  Name = 
REMARK  11 active torsions:
REMARK  status: ('A' for Active; 'I' for Inactive)
REMARK    1  A    between atoms: C_1  and  O_2
REMARK    2  A    between atoms: O_2  and  C_3
REMARK    3  A    between atoms: C_3  and  O_4
REMARK    4  A    between atoms: O_4  and  C_5
REMARK    5  A    between atoms: C_9  and  C_10
REMARK    6  A    between atoms: C_10  and  C_12
REMARK    7  A    between atoms: C_13  and  C_14
REMARK    8  A    between atoms: C_17  and  C_18
REMARK    9  A    between atoms: N_23  and  C_24
REMARK   10  A    between atoms: C_24  and  C_25
REMARK   11  A    between atoms: C_25  and  O_27
REMARK                            x       y       z     vdW  Elec       q    Type
REMARK                         _______ _______ _______ _____ _____    ______ ____
ROOT
ATOM      1  C   UNL     1       8.579  10.255  18.259  0.00  0.00    +0.000 A 
ATOM      2  C   UNL     1       8.352  11.563  17.822  0.00  0.00    +0.000 A 
ATOM      3  C   UNL     1       8.923  12.641  18.502  0.00  0.00    +0.000 A 
ATOM      4  C   UNL     1       9.725  12.417  19.626  0.00  0.00    +0.000 A 
ATOM      5  C   UNL     1       9.950  11.111  20.068  0.00  0.00    +0.000 A 
ATOM      6  C   UNL     1       9.378  10.032  19.385  0.00  0.00    +0.000 A 
ENDROOT
BRANCH   4   7
ATOM      7  C   UNL     1      10.347  13.554  20.303  0.00  0.00    +0.000 C 
ATOM      8  C   UNL     1       9.935  14.098  21.455  0.00  0.00    +0.000 C 
ATOM      9  S   UNL     1      10.678  15.504  22.126  0.00  0.00    +0.000 S 
ATOM     10  C   UNL     1       9.531  15.601  23.454  0.00  0.00    +0.000 C 
ATOM     11  S   UNL     1       9.564  16.852  24.556  0.00  0.00    +0.000 S 
ATOM     12  N   UNL     1       8.682  14.517  23.416  0.00  0.00    +0.000 N 
ATOM     13  C   UNL     1       8.807  13.673  22.329  0.00  0.00    +0.000 C 
ATOM     14  O   UNL     1       8.033  12.751  22.107  0.00  0.00    +0.000 OA
BRANCH  12  15
ATOM     15  C   UNL     1       7.687  14.199  24.444  0.00  0.00    +0.000 C 
BRANCH  15  16
ATOM     16  C   UNL     1       8.145  13.127  25.423  0.00  0.00    +0.000 C 
ATOM     17  O   UNL     1       7.626  12.022  25.499  0.00  0.00    +0.000 OA
BRANCH  16  18
ATOM     18  O   UNL     1       9.109  13.521  26.287  0.00  0.00    +0.000 OA
ATOM     19  H   UNL     1       8.871  13.438  27.242  0.00  0.00    +0.000 HD
ENDBRANCH  16  18
ENDBRANCH  15  16
ENDBRANCH  12  15
ENDBRANCH   4   7
BRANCH   1  21
ATOM     20  C   UNL     1       7.888   7.930  18.071  0.00  0.00    +0.000 C 
ATOM     21  C   UNL     1       8.020   9.137  17.504  0.00  0.00    +0.000 C 
BRANCH  20  22
ATOM     22  C   UNL     1       7.351   6.792  17.277  0.00  0.00    +0.000 C 
ATOM     23  O   UNL     1       7.878   6.427  16.232  0.00  0.00    +0.000 OA
BRANCH  22  28
ATOM     24  C   UNL     1       4.952   4.339  18.929  0.00  0.00    +0.000 A 
ATOM     25  C   UNL     1       3.729   4.925  18.589  0.00  0.00    +0.000 A 
ATOM     26  C   UNL     1       3.692   6.102  17.843  0.00  0.00    +0.000 A 
ATOM     27  C   UNL     1       4.883   6.697  17.428  0.00  0.00    +0.000 A 
ATOM     28  C   UNL     1       6.115   6.120  17.765  0.00  0.00    +0.000 A 
ATOM     29  C   UNL     1       6.145   4.927  18.505  0.00  0.00    +0.000 A 
BRANCH  24  30
ATOM     30  O   UNL     1       4.861   3.153  19.602  0.00  0.00    +0.000 OA
BRANCH  30  31
ATOM     31  C   UNL     1       3.556   2.777  20.040  0.00  0.00    +0.000 C 
BRANCH  31  33
ATOM     32  C   UNL     1       1.590   2.063  18.937  0.00  0.00    +0.000 C 
ATOM     33  O   UNL     1       2.971   1.814  19.160  0.00  0.00    +0.000 OA
ENDBRANCH  31  33
ENDBRANCH  30  31
ENDBRANCH  24  30
ENDBRANCH  22  28
ENDBRANCH  20  22
ENDBRANCH   1  21
TORSDOF 10
ENDMDL
MODEL 7
REMARK VINA RESULT:      -7.1      3.736      5.549
REMARK  Name = 
REMARK  11 active torsions:
REMARK  status: ('A' for Active; 'I' for Inactive)
REMARK    1  A    between atoms: C_1  and  O_2
REMARK    2  A    between atoms: O_2  and  C_3
REMARK    3  A    between atoms: C_3  and  O_4
REMARK    4  A    between atoms: O_4  and  C_5
REMARK    5  A    between atoms: C_9  and  C_10
REMARK    6  A    between atoms: C_10  and  C_12
REMARK    7  A    between atoms: C_13  and  C_14
REMARK    8  A    between atoms: C_17  and  C_18
REMARK    9  A    between atoms: N_23  and  C_24
REMARK   10  A    between atoms: C_24  and  C_25
REMARK   11  A    between atoms: C_25  and  O_27
REMARK                            x       y       z     vdW  Elec       q    Type
REMARK                         _______ _______ _______ _____ _____    ______ ____
ROOT
ATOM      1  C   UNL     1       1.868   8.282  18.831  0.00  0.00    +0.000 A 
ATOM      2  C   UNL     1       1.601   8.255  20.203  0.00  0.00    +0.000 A 
ATOM      3  C   UNL     1       0.780   9.226  20.778  0.00  0.00    +0.000 A 
ATOM      4  C   UNL     1       0.221  10.234  19.985  0.00  0.00    +0.000 A 
ATOM      5  C   UNL     1       0.490  10.267  18.614  0.00  0.00    +0.000 A 
ATOM      6  C   UNL     1       1.311   9.291  18.038  0.00  0.00    +0.000 A 
ENDROOT
BRANCH   4   7
ATOM      7  C   UNL     1      -0.668  11.220  20.597  0.00  0.00    +0.000 C 
ATOM      8  C   UNL     1      -0.292  12.400  21.108  0.00  0.00    +0.000 C 
ATOM      9  S   UNL     1      -1.404  13.456  21.900  0.00  0.00    +0.000 S 
ATOM     10  C   UNL     1      -0.154  14.611  22.338  0.00  0.00    +0.000 C 
ATOM     11  S   UNL     1      -0.484  15.955  23.265  0.00  0.00    +0.000 S 
ATOM     12  N   UNL     1       1.050  14.224  21.790  0.00  0.00    +0.000 N 
ATOM     13  C   UNL     1       1.069  13.003  21.142  0.00  0.00    +0.000 C 
ATOM     14  O   UNL     1       2.096  12.484  20.726  0.00  0.00    +0.000 OA
BRANCH  12  15
ATOM     15  C   UNL     1       2.281  15.016  21.834  0.00  0.00    +0.000 C 
BRANCH  15  16
ATOM     16  C   UNL     1       2.540  15.811  20.562  0.00  0.00    +0.000 C 
ATOM     17  O   UNL     1       1.990  16.875  20.313  0.00  0.00    +0.000 OA
BRANCH  16  18
ATOM     18  O   UNL     1       3.350  15.201  19.666  0.00  0.00    +0.000 OA
ATOM     19  H   UNL     1       3.860  15.813  19.081  0.00  0.00    +0.000 HD
ENDBRANCH  16  18
ENDBRANCH  15  16
ENDBRANCH  12  15
ENDBRANCH   4   7
BRANCH   1  21
ATOM     20  C   UNL     1       2.339   5.939  18.376  0.00  0.00    +0.000 C 
ATOM     21  C   UNL     1       2.683   7.226  18.235  0.00  0.00    +0.000 C 
BRANCH  20  22
ATOM     22  C   UNL     1       3.199   4.872  17.795  0.00  0.00    +0.000 C 
ATOM     23  O   UNL     1       2.732   3.810  17.399  0.00  0.00    +0.000 OA
BRANCH  22  28
ATOM     24  C   UNL     1       6.768   5.332  16.550  0.00  0.00    +0.000 A 
ATOM     25  C   UNL     1       7.430   5.519  17.767  0.00  0.00    +0.000 A 
ATOM     26  C   UNL     1       6.722   5.503  18.967  0.00  0.00    +0.000 A 
ATOM     27  C   UNL     1       5.344   5.295  18.955  0.00  0.00    +0.000 A 
ATOM     28  C   UNL     1       4.668   5.109  17.741  0.00  0.00    +0.000 A 
ATOM     29  C   UNL     1       5.389   5.112  16.537  0.00  0.00    +0.000 A 
BRANCH  24  30
ATOM     30  O   UNL     1       7.576   5.300  15.447  0.00  0.00    +0.000 OA
BRANCH  30  31
ATOM     31  C   UNL     1       6.917   5.152  14.191  0.00  0.00    +0.000 C 
BRANCH  31  33
ATOM     32  C   UNL     1       5.886   3.560  12.779  0.00  0.00    +0.000 C 
ATOM     33  O   UNL     1       6.854   3.780  13.795  0.00  0.00    +0.000 OA
ENDBRANCH  31  33
ENDBRANCH  30  31
ENDBRANCH  24  30
ENDBRANCH  22  28
ENDBRANCH  20  22
ENDBRANCH   1  21
TORSDOF 10
ENDMDL
MODEL 8
REMARK VINA RESULT:      -7.1      3.791      5.661
REMARK  Name = 
REMARK  11 active torsions:
REMARK  status: ('A' for Active; 'I' for Inactive)
REMARK    1  A    between atoms: C_1  and  O_2
REMARK    2  A    between atoms: O_2  and  C_3
REMARK    3  A    between atoms: C_3  and  O_4
REMARK    4  A    between atoms: O_4  and  C_5
REMARK    5  A    between atoms: C_9  and  C_10
REMARK    6  A    between atoms: C_10  and  C_12
REMARK    7  A    between atoms: C_13  and  C_14
REMARK    8  A    between atoms: C_17  and  C_18
REMARK    9  A    between atoms: N_23  and  C_24
REMARK   10  A    between atoms: C_24  and  C_25
REMARK   11  A    between atoms: C_25  and  O_27
REMARK                            x       y       z     vdW  Elec       q    Type
REMARK                         _______ _______ _______ _____ _____    ______ ____
ROOT
ATOM      1  C   UNL     1       1.733   8.446  18.901  0.00  0.00    +0.000 A 
ATOM      2  C   UNL     1       1.473   8.778  20.233  0.00  0.00    +0.000 A 
ATOM      3  C   UNL     1       0.833   9.979  20.547  0.00  0.00    +0.000 A 
ATOM      4  C   UNL     1       0.450  10.858  19.529  0.00  0.00    +0.000 A 
ATOM      5  C   UNL     1       0.713  10.531  18.196  0.00  0.00    +0.000 A 
ATOM      6  C   UNL     1       1.352   9.327  17.883  0.00  0.00    +0.000 A 
ENDROOT
BRANCH   4   7
ATOM      7  C   UNL     1      -0.253  12.092  19.872  0.00  0.00    +0.000 C 
ATOM      8  C   UNL     1       0.288  13.317  19.904  0.00  0.00    +0.000 C 
ATOM      9  S   UNL     1      -0.602  14.703  20.418  0.00  0.00    +0.000 S 
ATOM     10  C   UNL     1       0.786  15.772  20.284  0.00  0.00    +0.000 C 
ATOM     11  S   UNL     1       0.710  17.375  20.733  0.00  0.00    +0.000 S 
ATOM     12  N   UNL     1       1.857  15.081  19.759  0.00  0.00    +0.000 N 
ATOM     13  C   UNL     1       1.680  13.723  19.566  0.00  0.00    +0.000 C 
ATOM     14  O   UNL     1       2.587  12.974  19.231  0.00  0.00    +0.000 OA
BRANCH  12  15
ATOM     15  C   UNL     1       3.137  15.684  19.383  0.00  0.00    +0.000 C 
BRANCH  15  16
ATOM     16  C   UNL     1       3.192  16.141  17.932  0.00  0.00    +0.000 C 
ATOM     17  O   UNL     1       2.872  17.265  17.570  0.00  0.00    +0.000 OA
BRANCH  16  18
ATOM     18  O   UNL     1       3.524  15.175  17.044  0.00  0.00    +0.000 OA
ATOM     19  H   UNL     1       3.030  14.326  17.149  0.00  0.00    +0.000 HD
ENDBRANCH  16  18
ENDBRANCH  15  16
ENDBRANCH  12  15
ENDBRANCH   4   7
BRANCH   1  21
ATOM     20  C   UNL     1       2.886   6.407  19.557  0.00  0.00    +0.000 C 
ATOM     21  C   UNL     1       2.352   7.161  18.586  0.00  0.00    +0.000 C 
BRANCH  20  22
ATOM     22  C   UNL     1       3.546   5.117  19.217  0.00  0.00    +0.000 C 
ATOM     23  O   UNL     1       3.129   4.047  19.644  0.00  0.00    +0.000 OA
BRANCH  22  28
ATOM     24  C   UNL     1       5.895   5.177  16.220  0.00  0.00    +0.000 A 
ATOM     25  C   UNL     1       7.128   5.192  16.876  0.00  0.00    +0.000 A 
ATOM     26  C   UNL     1       7.189   5.190  18.269  0.00  0.00    +0.000 A 
ATOM     27  C   UNL     1       6.012   5.170  19.014  0.00  0.00    +0.000 A 
ATOM     28  C   UNL     1       4.768   5.158  18.367  0.00  0.00    +0.000 A 
ATOM     29  C   UNL     1       4.713   5.145  16.965  0.00  0.00    +0.000 A 
BRANCH  24  30
ATOM     30  O   UNL     1       5.961   5.111  14.856  0.00  0.00    +0.000 OA
BRANCH  30  31
ATOM     31  C   UNL     1       6.298   3.840  14.305  0.00  0.00    +0.000 C 
BRANCH  31  33
ATOM     32  C   UNL     1       5.613   3.236  12.123  0.00  0.00    +0.000 C 
ATOM     33  O   UNL     1       6.571   3.936  12.905  0.00  0.00    +0.000 OA
ENDBRANCH  31  33
ENDBRANCH  30  31
ENDBRANCH  24  30
ENDBRANCH  22  28
ENDBRANCH  20  22
ENDBRANCH   1  21
TORSDOF 10
ENDMDL
MODEL 9
REMARK VINA RESULT:      -7.1      3.643      5.356
REMARK  Name = 
REMARK  11 active torsions:
REMARK  status: ('A' for Active; 'I' for Inactive)
REMARK    1  A    between atoms: C_1  and  O_2
REMARK    2  A    between atoms: O_2  and  C_3
REMARK    3  A    between atoms: C_3  and  O_4
REMARK    4  A    between atoms: O_4  and  C_5
REMARK    5  A    between atoms: C_9  and  C_10
REMARK    6  A    between atoms: C_10  and  C_12
REMARK    7  A    between atoms: C_13  and  C_14
REMARK    8  A    between atoms: C_17  and  C_18
REMARK    9  A    between atoms: N_23  and  C_24
REMARK   10  A    between atoms: C_24  and  C_25
REMARK   11  A    between atoms: C_25  and  O_27
REMARK                            x       y       z     vdW  Elec       q    Type
REMARK                         _______ _______ _______ _____ _____    ______ ____
ROOT
ATOM      1  C   UNL     1       1.307   8.743  19.925  0.00  0.00    +0.000 A 
ATOM      2  C   UNL     1       1.001   9.405  18.733  0.00  0.00    +0.000 A 
ATOM      3  C   UNL     1       0.363  10.647  18.762  0.00  0.00    +0.000 A 
ATOM      4  C   UNL     1       0.024  11.234  19.986  0.00  0.00    +0.000 A 
ATOM      5  C   UNL     1       0.324  10.572  21.179  0.00  0.00    +0.000 A 
ATOM      6  C   UNL     1       0.965   9.329  21.148  0.00  0.00    +0.000 A 
ENDROOT
BRANCH   4   7
ATOM      7  C   UNL     1      -0.608  12.553  20.000  0.00  0.00    +0.000 C 
ATOM      8  C   UNL     1       0.031  13.726  19.911  0.00  0.00    +0.000 C 
ATOM      9  S   UNL     1      -0.796  15.236  20.036  0.00  0.00    +0.000 S 
ATOM     10  C   UNL     1       0.689  16.173  19.948  0.00  0.00    +0.000 C 
ATOM     11  S   UNL     1       0.692  17.832  20.103  0.00  0.00    +0.000 S 
ATOM     12  N   UNL     1       1.757  15.332  19.726  0.00  0.00    +0.000 N 
ATOM     13  C   UNL     1       1.489  13.976  19.738  0.00  0.00    +0.000 C 
ATOM     14  O   UNL     1       2.363  13.122  19.683  0.00  0.00    +0.000 OA
BRANCH  12  15
ATOM     15  C   UNL     1       3.129  15.775  19.464  0.00  0.00    +0.000 C 
BRANCH  15  16
ATOM     16  C   UNL     1       3.406  16.061  17.995  0.00  0.00    +0.000 C 
ATOM     17  O   UNL     1       3.316  17.176  17.499  0.00  0.00    +0.000 OA
BRANCH  16  18
ATOM     18  O   UNL     1       3.660  14.966  17.241  0.00  0.00    +0.000 OA
ATOM     19  H   UNL     1       4.411  15.062  16.606  0.00  0.00    +0.000 HD
ENDBRANCH  16  18
ENDBRANCH  15  16
ENDBRANCH  12  15
ENDBRANCH   4   7
BRANCH   1  21
ATOM     20  C   UNL     1       1.597   6.422  20.593  0.00  0.00    +0.000 C 
ATOM     21  C   UNL     1       2.024   7.471  19.878  0.00  0.00    +0.000 C 
BRANCH  20  22
ATOM     22  C   UNL     1       2.359   5.144  20.564  0.00  0.00    +0.000 C 
ATOM     23  O   UNL     1       2.474   4.438  21.559  0.00  0.00    +0.000 OA
BRANCH  22  28
ATOM     24  C   UNL     1       4.887   4.792  17.738  0.00  0.00    +0.000 A 
ATOM     25  C   UNL     1       4.154   3.999  16.851  0.00  0.00    +0.000 A 
ATOM     26  C   UNL     1       2.864   3.582  17.175  0.00  0.00    +0.000 A 
ATOM     27  C   UNL     1       2.298   3.962  18.390  0.00  0.00    +0.000 A 
ATOM     28  C   UNL     1       3.024   4.755  19.290  0.00  0.00    +0.000 A 
ATOM     29  C   UNL     1       4.317   5.183  18.952  0.00  0.00    +0.000 A 
BRANCH  24  30
ATOM     30  O   UNL     1       6.111   5.195  17.283  0.00  0.00    +0.000 OA
BRANCH  30  31
ATOM     31  C   UNL     1       7.242   4.567  17.884  0.00  0.00    +0.000 C 
BRANCH  31  33
ATOM     32  C   UNL     1       7.961   6.728  18.521  0.00  0.00    +0.000 C 
ATOM     33  O   UNL     1       7.794   5.377  18.925  0.00  0.00    +0.000 OA
ENDBRANCH  31  33
ENDBRANCH  30  31
ENDBRANCH  24  30
ENDBRANCH  22  28
ENDBRANCH  20  22
ENDBRANCH   1  21
TORSDOF 10
ENDMDL
