MODEL 1
REMARK VINA RESULT:      -8.2      0.000      0.000
REMARK  Name = 
REMARK  11 active torsions:
REMARK  status: ('A' for Active; 'I' for Inactive)
REMARK    1  A    between atoms: C_1  and  O_2
REMARK    2  A    between atoms: O_2  and  C_3
REMARK    3  A    between atoms: C_3  and  C_5
REMARK    4  A    between atoms: C_5  and  C_7
REMARK    5  A    between atoms: C_7  and  C_8
REMARK    6  A    between atoms: C_7  and  C_12
REMARK    7  A    between atoms: C_8  and  O_10
REMARK    8  A    between atoms: O_10  and  C_11
REMARK    9  A    between atoms: C_12  and  C_14
REMARK   10  A    between atoms: N_16  and  C_17
REMARK   11  A    between atoms: C_22  and  C_23
REMARK                            x       y       z     vdW  Elec       q    Type
REMARK                         _______ _______ _______ _____ _____    ______ ____
ROOT
ATOM      1  C   UNL     1       6.436   4.745  18.936  0.00  0.00    +0.000 C 
ATOM      2  O   UNL     1       6.834   5.228  19.986  0.00  0.00    +0.000 OA
ATOM      3  N   UNL     1       5.183   4.259  18.603  0.00  0.00    +0.000 N 
ATOM      4  H   UNL     1       5.022   4.027  17.617  0.00  0.00    +0.000 HD
ENDROOT
BRANCH   3   5
ATOM      5  C   UNL     1       4.039   4.183  19.440  0.00  0.00    +0.000 A 
ATOM      6  C   UNL     1       3.271   5.324  19.701  0.00  0.00    +0.000 A 
ATOM      7  C   UNL     1       2.132   5.263  20.506  0.00  0.00    +0.000 A 
ATOM      8  C   UNL     1       1.729   4.053  21.051  0.00  0.00    +0.000 A 
ATOM      9  C   UNL     1       2.483   2.904  20.821  0.00  0.00    +0.000 A 
ATOM     10  C   UNL     1       3.660   2.955  20.044  0.00  0.00    +0.000 A 
BRANCH  10  11
ATOM     11  C   UNL     1       4.480   1.714  19.849  0.00  0.00    +0.000 C 
ATOM     12  N   UNL     1       4.239   0.922  18.758  0.00  0.00    +0.000 N 
ATOM     13  O   UNL     1       5.338   1.381  20.662  0.00  0.00    +0.000 OA
ATOM     14  H   UNL     1       3.483   1.041  18.101  0.00  0.00    +0.000 HD
ATOM     15  H   UNL     1       4.775   0.061  18.686  0.00  0.00    +0.000 HD
ENDBRANCH  10  11
ENDBRANCH   3   5
BRANCH   1  16
ATOM     16  C   UNL     1       7.439   4.686  17.797  0.00  0.00    +0.000 C 
ATOM     17  O   UNL     1       8.500   4.095  17.977  0.00  0.00    +0.000 OA
BRANCH  16  18
ATOM     18  C   UNL     1       7.102   5.426  16.537  0.00  0.00    +0.000 C 
BRANCH  18  19
ATOM     19  C   UNL     1       6.391   4.580  15.522  0.00  0.00    +0.000 C 
ATOM     20  O   UNL     1       5.626   3.660  15.785  0.00  0.00    +0.000 OA
BRANCH  19  21
ATOM     21  C   UNL     1       6.811   4.809  14.079  0.00  0.00    +0.000 C 
ATOM     22  O   UNL     1       7.801   5.468  13.815  0.00  0.00    +0.000 OA
BRANCH  21  24
ATOM     23  C   UNL     1       6.586   3.429  12.226  0.00  0.00    +0.000 C 
ATOM     24  O   UNL     1       5.952   4.214  13.234  0.00  0.00    +0.000 OA
ENDBRANCH  21  24
ENDBRANCH  19  21
ENDBRANCH  18  19
BRANCH  18  25
ATOM     25  C   UNL     1       6.384   6.722  16.789  0.00  0.00    +0.000 C 
ATOM     26  O   UNL     1       5.173   6.828  16.898  0.00  0.00    +0.000 OA
BRANCH  25  27
ATOM     27  O   UNL     1       7.248   7.775  16.770  0.00  0.00    +0.000 OA
ATOM     28  C   UNL     1       7.937   8.014  18.004  0.00  0.00    +0.000 C 
ENDBRANCH  25  27
ENDBRANCH  18  25
ENDBRANCH  16  18
ENDBRANCH   1  16
TORSDOF 9
ENDMDL
MODEL 2
REMARK VINA RESULT:      -8.1      0.562      1.043
REMARK  Name = 
REMARK  11 active torsions:
REMARK  status: ('A' for Active; 'I' for Inactive)
REMARK    1  A    between atoms: C_1  and  O_2
REMARK    2  A    between atoms: O_2  and  C_3
REMARK    3  A    between atoms: C_3  and  C_5
REMARK    4  A    between atoms: C_5  and  C_7
REMARK    5  A    between atoms: C_7  and  C_8
REMARK    6  A    between atoms: C_7  and  C_12
REMARK    7  A    between atoms: C_8  and  O_10
REMARK    8  A    between atoms: O_10  and  C_11
REMARK    9  A    between atoms: C_12  and  C_14
REMARK   10  A    between atoms: N_16  and  C_17
REMARK   11  A    between atoms: C_22  and  C_23
REMARK                            x       y       z     vdW  Elec       q    Type
REMARK                         _______ _______ _______ _____ _____    ______ ____
ROOT
ATOM      1  C   UNL     1       6.417   4.736  18.897  0.00  0.00    +0.000 C 
ATOM      2  O   UNL     1       6.807   5.306  19.906  0.00  0.00    +0.000 OA
ATOM      3  N   UNL     1       5.184   4.169  18.621  0.00  0.00    +0.000 N 
ATOM      4  H   UNL     1       5.019   3.865  17.656  0.00  0.00    +0.000 HD
ENDROOT
BRANCH   3   5
ATOM      5  C   UNL     1       4.060   4.090  19.485  0.00  0.00    +0.000 A 
ATOM      6  C   UNL     1       3.293   5.228  19.758  0.00  0.00    +0.000 A 
ATOM      7  C   UNL     1       2.172   5.165  20.589  0.00  0.00    +0.000 A 
ATOM      8  C   UNL     1       1.788   3.956  21.148  0.00  0.00    +0.000 A 
ATOM      9  C   UNL     1       2.542   2.810  20.905  0.00  0.00    +0.000 A 
ATOM     10  C   UNL     1       3.701   2.863  20.101  0.00  0.00    +0.000 A 
BRANCH  10  11
ATOM     11  C   UNL     1       4.523   1.625  19.893  0.00  0.00    +0.000 C 
ATOM     12  N   UNL     1       4.288   0.849  18.789  0.00  0.00    +0.000 N 
ATOM     13  O   UNL     1       5.376   1.281  20.705  0.00  0.00    +0.000 OA
ATOM     14  H   UNL     1       3.535   0.977  18.130  0.00  0.00    +0.000 HD
ATOM     15  H   UNL     1       4.824  -0.011  18.708  0.00  0.00    +0.000 HD
ENDBRANCH  10  11
ENDBRANCH   3   5
BRANCH   1  16
ATOM     16  C   UNL     1       7.403   4.654  17.744  0.00  0.00    +0.000 C 
ATOM     17  O   UNL     1       8.482   4.099  17.932  0.00  0.00    +0.000 OA
BRANCH  16  18
ATOM     18  C   UNL     1       7.025   5.327  16.460  0.00  0.00    +0.000 C 
BRANCH  18  19
ATOM     19  C   UNL     1       6.338   4.412  15.488  0.00  0.00    +0.000 C 
ATOM     20  O   UNL     1       5.675   3.430  15.795  0.00  0.00    +0.000 OA
BRANCH  19  21
ATOM     21  C   UNL     1       6.657   4.667  14.023  0.00  0.00    +0.000 C 
ATOM     22  O   UNL     1       7.586   5.388  13.703  0.00  0.00    +0.000 OA
BRANCH  21  24
ATOM     23  C   UNL     1       6.410   3.300  12.163  0.00  0.00    +0.000 C 
ATOM     24  O   UNL     1       5.790   4.017  13.228  0.00  0.00    +0.000 OA
ENDBRANCH  21  24
ENDBRANCH  19  21
ENDBRANCH  18  19
BRANCH  18  25
ATOM     25  C   UNL     1       6.258   6.603  16.666  0.00  0.00    +0.000 C 
ATOM     26  O   UNL     1       6.755   7.650  17.050  0.00  0.00    +0.000 OA
BRANCH  25  27
ATOM     27  O   UNL     1       4.923   6.412  16.473  0.00  0.00    +0.000 OA
ATOM     28  C   UNL     1       4.074   7.327  17.175  0.00  0.00    +0.000 C 
ENDBRANCH  25  27
ENDBRANCH  18  25
ENDBRANCH  16  18
ENDBRANCH   1  16
TORSDOF 9
ENDMDL
MODEL 3
REMARK VINA RESULT:      -7.7      1.705      2.629
REMARK  Name = 
REMARK  11 active torsions:
REMARK  status: ('A' for Active; 'I' for Inactive)
REMARK    1  A    between atoms: C_1  and  O_2
REMARK    2  A    between atoms: O_2  and  C_3
REMARK    3  A    between atoms: C_3  and  C_5
REMARK    4  A    between atoms: C_5  and  C_7
REMARK    5  A    between atoms: C_7  and  C_8
REMARK    6  A    between atoms: C_7  and  C_12
REMARK    7  A    between atoms: C_8  and  O_10
REMARK    8  A    between atoms: O_10  and  C_11
REMARK    9  A    between atoms: C_12  and  C_14
REMARK   10  A    between atoms: N_16  and  C_17
REMARK   11  A    between atoms: C_22  and  C_23
REMARK                            x       y       z     vdW  Elec       q    Type
REMARK                         _______ _______ _______ _____ _____    ______ ____
ROOT
ATOM      1  C   UNL     1       3.995   6.382  17.419  0.00  0.00    +0.000 C 
ATOM      2  O   UNL     1       3.330   7.381  17.654  0.00  0.00    +0.000 OA
ATOM      3  N   UNL     1       3.887   5.103  17.937  0.00  0.00    +0.000 N 
ATOM      4  H   UNL     1       4.458   4.374  17.497  0.00  0.00    +0.000 HD
ENDROOT
BRANCH   3   5
ATOM      5  C   UNL     1       2.965   4.646  18.915  0.00  0.00    +0.000 A 
ATOM      6  C   UNL     1       2.592   5.472  19.982  0.00  0.00    +0.000 A 
ATOM      7  C   UNL     1       1.672   5.047  20.942  0.00  0.00    +0.000 A 
ATOM      8  C   UNL     1       1.092   3.792  20.841  0.00  0.00    +0.000 A 
ATOM      9  C   UNL     1       1.456   2.942  19.798  0.00  0.00    +0.000 A 
ATOM     10  C   UNL     1       2.415   3.339  18.842  0.00  0.00    +0.000 A 
BRANCH  10  11
ATOM     11  C   UNL     1       2.825   2.389  17.756  0.00  0.00    +0.000 C 
ATOM     12  N   UNL     1       3.623   1.321  18.073  0.00  0.00    +0.000 N 
ATOM     13  O   UNL     1       2.485   2.566  16.590  0.00  0.00    +0.000 OA
ATOM     14  H   UNL     1       4.052   1.154  18.971  0.00  0.00    +0.000 HD
ATOM     15  H   UNL     1       3.926   0.729  17.305  0.00  0.00    +0.000 HD
ENDBRANCH  10  11
ENDBRANCH   3   5
BRANCH   1  16
ATOM     16  C   UNL     1       5.093   6.532  16.379  0.00  0.00    +0.000 C 
ATOM     17  O   UNL     1       4.845   7.152  15.348  0.00  0.00    +0.000 OA
BRANCH  16  18
ATOM     18  C   UNL     1       6.397   5.843  16.643  0.00  0.00    +0.000 C 
BRANCH  18  19
ATOM     19  C   UNL     1       6.983   5.190  15.425  0.00  0.00    +0.000 C 
ATOM     20  O   UNL     1       7.870   5.669  14.729  0.00  0.00    +0.000 OA
BRANCH  19  21
ATOM     21  C   UNL     1       6.279   3.923  14.967  0.00  0.00    +0.000 C 
ATOM     22  O   UNL     1       5.611   3.265  15.746  0.00  0.00    +0.000 OA
BRANCH  21  24
ATOM     23  C   UNL     1       5.347   3.577  12.869  0.00  0.00    +0.000 C 
ATOM     24  O   UNL     1       6.524   3.687  13.667  0.00  0.00    +0.000 OA
ENDBRANCH  21  24
ENDBRANCH  19  21
ENDBRANCH  18  19
BRANCH  18  25
ATOM     25  C   UNL     1       7.396   6.720  17.345  0.00  0.00    +0.000 C 
ATOM     26  O   UNL     1       7.697   7.846  16.982  0.00  0.00    +0.000 OA
BRANCH  25  27
ATOM     27  O   UNL     1       7.999   6.055  18.370  0.00  0.00    +0.000 OA
ATOM     28  C   UNL     1       7.110   5.565  19.380  0.00  0.00    +0.000 C 
ENDBRANCH  25  27
ENDBRANCH  18  25
ENDBRANCH  16  18
ENDBRANCH   1  16
TORSDOF 9
ENDMDL
MODEL 4
REMARK VINA RESULT:      -7.5      1.274      2.129
REMARK  Name = 
REMARK  11 active torsions:
REMARK  status: ('A' for Active; 'I' for Inactive)
REMARK    1  A    between atoms: C_1  and  O_2
REMARK    2  A    between atoms: O_2  and  C_3
REMARK    3  A    between atoms: C_3  and  C_5
REMARK    4  A    between atoms: C_5  and  C_7
REMARK    5  A    between atoms: C_7  and  C_8
REMARK    6  A    between atoms: C_7  and  C_12
REMARK    7  A    between atoms: C_8  and  O_10
REMARK    8  A    between atoms: O_10  and  C_11
REMARK    9  A    between atoms: C_12  and  C_14
REMARK   10  A    between atoms: N_16  and  C_17
REMARK   11  A    between atoms: C_22  and  C_23
REMARK                            x       y       z     vdW  Elec       q    Type
REMARK                         _______ _______ _______ _____ _____    ______ ____
ROOT
ATOM      1  C   UNL     1       6.518   4.617  18.923  0.00  0.00    +0.000 C 
ATOM      2  O   UNL     1       6.777   5.324  19.886  0.00  0.00    +0.000 OA
ATOM      3  N   UNL     1       5.434   3.785  18.700  0.00  0.00    +0.000 N 
ATOM      4  H   UNL     1       5.339   3.388  17.760  0.00  0.00    +0.000 HD
ENDROOT
BRANCH   3   5
ATOM      5  C   UNL     1       4.350   3.530  19.581  0.00  0.00    +0.000 A 
ATOM      6  C   UNL     1       4.334   2.377  20.374  0.00  0.00    +0.000 A 
ATOM      7  C   UNL     1       3.285   2.121  21.260  0.00  0.00    +0.000 A 
ATOM      8  C   UNL     1       2.241   3.024  21.382  0.00  0.00    +0.000 A 
ATOM      9  C   UNL     1       2.223   4.173  20.593  0.00  0.00    +0.000 A 
ATOM     10  C   UNL     1       3.253   4.428  19.663  0.00  0.00    +0.000 A 
BRANCH  10  11
ATOM     11  C   UNL     1       3.187   5.648  18.791  0.00  0.00    +0.000 C 
ATOM     12  N   UNL     1       2.521   5.576  17.596  0.00  0.00    +0.000 N 
ATOM     13  O   UNL     1       3.742   6.694  19.113  0.00  0.00    +0.000 OA
ATOM     14  H   UNL     1       2.137   4.737  17.187  0.00  0.00    +0.000 HD
ATOM     15  H   UNL     1       2.542   6.403  17.006  0.00  0.00    +0.000 HD
ENDBRANCH  10  11
ENDBRANCH   3   5
BRANCH   1  16
ATOM     16  C   UNL     1       7.502   4.665  17.766  0.00  0.00    +0.000 C 
ATOM     17  O   UNL     1       8.521   3.984  17.831  0.00  0.00    +0.000 OA
BRANCH  16  18
ATOM     18  C   UNL     1       7.203   5.609  16.641  0.00  0.00    +0.000 C 
BRANCH  18  19
ATOM     19  C   UNL     1       6.179   5.081  15.678  0.00  0.00    +0.000 C 
ATOM     20  O   UNL     1       5.020   4.807  15.964  0.00  0.00    +0.000 OA
BRANCH  19  21
ATOM     21  C   UNL     1       6.712   4.720  14.300  0.00  0.00    +0.000 C 
ATOM     22  O   UNL     1       7.525   5.434  13.739  0.00  0.00    +0.000 OA
BRANCH  21  24
ATOM     23  C   UNL     1       6.112   3.471  12.437  0.00  0.00    +0.000 C 
ATOM     24  O   UNL     1       6.154   3.580  13.859  0.00  0.00    +0.000 OA
ENDBRANCH  21  24
ENDBRANCH  19  21
ENDBRANCH  18  19
BRANCH  18  25
ATOM     25  C   UNL     1       6.869   6.998  17.108  0.00  0.00    +0.000 C 
ATOM     26  O   UNL     1       5.838   7.589  16.828  0.00  0.00    +0.000 OA
BRANCH  25  27
ATOM     27  O   UNL     1       7.909   7.551  17.791  0.00  0.00    +0.000 OA
ATOM     28  C   UNL     1       7.924   8.983  17.816  0.00  0.00    +0.000 C 
ENDBRANCH  25  27
ENDBRANCH  18  25
ENDBRANCH  16  18
ENDBRANCH   1  16
TORSDOF 9
ENDMDL
MODEL 5
REMARK VINA RESULT:      -7.4      1.247      1.749
REMARK  Name = 
REMARK  11 active torsions:
REMARK  status: ('A' for Active; 'I' for Inactive)
REMARK    1  A    between atoms: C_1  and  O_2
REMARK    2  A    between atoms: O_2  and  C_3
REMARK    3  A    between atoms: C_3  and  C_5
REMARK    4  A    between atoms: C_5  and  C_7
REMARK    5  A    between atoms: C_7  and  C_8
REMARK    6  A    between atoms: C_7  and  C_12
REMARK    7  A    between atoms: C_8  and  O_10
REMARK    8  A    between atoms: O_10  and  C_11
REMARK    9  A    between atoms: C_12  and  C_14
REMARK   10  A    between atoms: N_16  and  C_17
REMARK   11  A    between atoms: C_22  and  C_23
REMARK                            x       y       z     vdW  Elec       q    Type
REMARK                         _______ _______ _______ _____ _____    ______ ____
ROOT
ATOM      1  C   UNL     1       6.112   4.706  18.732  0.00  0.00    +0.000 C 
ATOM      2  O   UNL     1       6.495   5.143  19.809  0.00  0.00    +0.000 OA
ATOM      3  N   UNL     1       4.867   4.228  18.362  0.00  0.00    +0.000 N 
ATOM      4  H   UNL     1       4.720   4.041  17.365  0.00  0.00    +0.000 HD
ENDROOT
BRANCH   3   5
ATOM      5  C   UNL     1       3.714   4.104  19.182  0.00  0.00    +0.000 A 
ATOM      6  C   UNL     1       3.393   5.100  20.111  0.00  0.00    +0.000 A 
ATOM      7  C   UNL     1       2.252   5.003  20.911  0.00  0.00    +0.000 A 
ATOM      8  C   UNL     1       1.402   3.916  20.782  0.00  0.00    +0.000 A 
ATOM      9  C   UNL     1       1.706   2.902  19.875  0.00  0.00    +0.000 A 
ATOM     10  C   UNL     1       2.875   2.962  19.088  0.00  0.00    +0.000 A 
BRANCH  10  11
ATOM     11  C   UNL     1       3.205   1.836  18.153  0.00  0.00    +0.000 C 
ATOM     12  N   UNL     1       3.961   0.790  18.614  0.00  0.00    +0.000 N 
ATOM     13  O   UNL     1       2.838   1.850  16.983  0.00  0.00    +0.000 OA
ATOM     14  H   UNL     1       4.410   0.742  19.516  0.00  0.00    +0.000 HD
ATOM     15  H   UNL     1       4.212   0.072  17.940  0.00  0.00    +0.000 HD
ENDBRANCH  10  11
ENDBRANCH   3   5
BRANCH   1  16
ATOM     16  C   UNL     1       7.130   4.709  17.604  0.00  0.00    +0.000 C 
ATOM     17  O   UNL     1       8.195   4.123  17.770  0.00  0.00    +0.000 OA
BRANCH  16  18
ATOM     18  C   UNL     1       6.798   5.500  16.374  0.00  0.00    +0.000 C 
BRANCH  18  19
ATOM     19  C   UNL     1       6.056   4.706  15.338  0.00  0.00    +0.000 C 
ATOM     20  O   UNL     1       5.023   4.079  15.539  0.00  0.00    +0.000 OA
BRANCH  19  21
ATOM     21  C   UNL     1       6.767   4.562  14.001  0.00  0.00    +0.000 C 
ATOM     22  O   UNL     1       6.359   3.780  13.160  0.00  0.00    +0.000 OA
BRANCH  21  24
ATOM     23  C   UNL     1       8.218   5.726  12.612  0.00  0.00    +0.000 C 
ATOM     24  O   UNL     1       7.834   5.376  13.940  0.00  0.00    +0.000 OA
ENDBRANCH  21  24
ENDBRANCH  19  21
ENDBRANCH  18  19
BRANCH  18  25
ATOM     25  C   UNL     1       6.114   6.803  16.677  0.00  0.00    +0.000 C 
ATOM     26  O   UNL     1       6.660   7.760  17.203  0.00  0.00    +0.000 OA
BRANCH  25  27
ATOM     27  O   UNL     1       4.784   6.740  16.389  0.00  0.00    +0.000 OA
ATOM     28  C   UNL     1       3.931   7.417  17.319  0.00  0.00    +0.000 C 
ENDBRANCH  25  27
ENDBRANCH  18  25
ENDBRANCH  16  18
ENDBRANCH   1  16
TORSDOF 9
ENDMDL
MODEL 6
REMARK VINA RESULT:      -7.4      1.036      3.113
REMARK  Name = 
REMARK  11 active torsions:
REMARK  status: ('A' for Active; 'I' for Inactive)
REMARK    1  A    between atoms: C_1  and  O_2
REMARK    2  A    between atoms: O_2  and  C_3
REMARK    3  A    between atoms: C_3  and  C_5
REMARK    4  A    between atoms: C_5  and  C_7
REMARK    5  A    between atoms: C_7  and  C_8
REMARK    6  A    between atoms: C_7  and  C_12
REMARK    7  A    between atoms: C_8  and  O_10
REMARK    8  A    between atoms: O_10  and  C_11
REMARK    9  A    between atoms: C_12  and  C_14
REMARK   10  A    between atoms: N_16  and  C_17
REMARK   11  A    between atoms: C_22  and  C_23
REMARK                            x       y       z     vdW  Elec       q    Type
REMARK                         _______ _______ _______ _____ _____    ______ ____
ROOT
ATOM      1  C   UNL     1       6.183   4.507  18.770  0.00  0.00    +0.000 C 
ATOM      2  O   UNL     1       6.763   4.803  19.805  0.00  0.00    +0.000 OA
ATOM      3  N   UNL     1       4.864   4.140  18.567  0.00  0.00    +0.000 N 
ATOM      4  H   UNL     1       4.546   4.070  17.594  0.00  0.00    +0.000 HD
ENDROOT
BRANCH   3   5
ATOM      5  C   UNL     1       3.851   3.991  19.550  0.00  0.00    +0.000 A 
ATOM      6  C   UNL     1       3.039   5.075  19.905  0.00  0.00    +0.000 A 
ATOM      7  C   UNL     1       2.026   4.941  20.856  0.00  0.00    +0.000 A 
ATOM      8  C   UNL     1       1.793   3.713  21.457  0.00  0.00    +0.000 A 
ATOM      9  C   UNL     1       2.596   2.621  21.134  0.00  0.00    +0.000 A 
ATOM     10  C   UNL     1       3.652   2.747  20.206  0.00  0.00    +0.000 A 
BRANCH  10  11
ATOM     11  C   UNL     1       4.532   1.569  19.911  0.00  0.00    +0.000 C 
ATOM     12  N   UNL     1       4.321   0.853  18.762  0.00  0.00    +0.000 N 
ATOM     13  O   UNL     1       5.413   1.219  20.690  0.00  0.00    +0.000 OA
ATOM     14  H   UNL     1       3.553   0.984  18.121  0.00  0.00    +0.000 HD
ATOM     15  H   UNL     1       4.899   0.029  18.620  0.00  0.00    +0.000 HD
ENDBRANCH  10  11
ENDBRANCH   3   5
BRANCH   1  16
ATOM     16  C   UNL     1       7.005   4.576  17.493  0.00  0.00    +0.000 C 
ATOM     17  O   UNL     1       8.167   4.180  17.519  0.00  0.00    +0.000 OA
BRANCH  16  18
ATOM     18  C   UNL     1       6.364   5.200  16.290  0.00  0.00    +0.000 C 
BRANCH  18  19
ATOM     19  C   UNL     1       6.187   6.686  16.414  0.00  0.00    +0.000 C 
ATOM     20  O   UNL     1       7.075   7.478  16.705  0.00  0.00    +0.000 OA
BRANCH  19  21
ATOM     21  C   UNL     1       4.751   7.177  16.326  0.00  0.00    +0.000 C 
ATOM     22  O   UNL     1       4.273   7.518  15.258  0.00  0.00    +0.000 OA
BRANCH  21  24
ATOM     23  C   UNL     1       2.950   7.905  17.597  0.00  0.00    +0.000 C 
ATOM     24  O   UNL     1       4.173   7.173  17.539  0.00  0.00    +0.000 OA
ENDBRANCH  21  24
ENDBRANCH  19  21
ENDBRANCH  18  19
BRANCH  18  25
ATOM     25  C   UNL     1       7.035   4.821  15.000  0.00  0.00    +0.000 C 
ATOM     26  O   UNL     1       7.946   5.452  14.488  0.00  0.00    +0.000 OA
BRANCH  25  27
ATOM     27  O   UNL     1       6.425   3.748  14.425  0.00  0.00    +0.000 OA
ATOM     28  C   UNL     1       6.345   3.792  12.995  0.00  0.00    +0.000 C 
ENDBRANCH  25  27
ENDBRANCH  18  25
ENDBRANCH  16  18
ENDBRANCH   1  16
TORSDOF 9
ENDMDL
MODEL 7
REMARK VINA RESULT:      -7.4      1.602      2.489
REMARK  Name = 
REMARK  11 active torsions:
REMARK  status: ('A' for Active; 'I' for Inactive)
REMARK    1  A    between atoms: C_1  and  O_2
REMARK    2  A    between atoms: O_2  and  C_3
REMARK    3  A    between atoms: C_3  and  C_5
REMARK    4  A    between atoms: C_5  and  C_7
REMARK    5  A    between atoms: C_7  and  C_8
REMARK    6  A    between atoms: C_7  and  C_12
REMARK    7  A    between atoms: C_8  and  O_10
REMARK    8  A    between atoms: O_10  and  C_11
REMARK    9  A    between atoms: C_12  and  C_14
REMARK   10  A    between atoms: N_16  and  C_17
REMARK   11  A    between atoms: C_22  and  C_23
REMARK                            x       y       z     vdW  Elec       q    Type
REMARK                         _______ _______ _______ _____ _____    ______ ____
ROOT
ATOM      1  C   UNL     1       4.200   5.694  17.151  0.00  0.00    +0.000 C 
ATOM      2  O   UNL     1       3.783   6.674  17.752  0.00  0.00    +0.000 OA
ATOM      3  N   UNL     1       3.833   4.363  17.263  0.00  0.00    +0.000 N 
ATOM      4  H   UNL     1       4.210   3.718  16.561  0.00  0.00    +0.000 HD
ENDROOT
BRANCH   3   5
ATOM      5  C   UNL     1       2.875   3.807  18.151  0.00  0.00    +0.000 A 
ATOM      6  C   UNL     1       1.507   4.007  17.936  0.00  0.00    +0.000 A 
ATOM      7  C   UNL     1       0.550   3.450  18.787  0.00  0.00    +0.000 A 
ATOM      8  C   UNL     1       0.946   2.666  19.860  0.00  0.00    +0.000 A 
ATOM      9  C   UNL     1       2.302   2.462  20.106  0.00  0.00    +0.000 A 
ATOM     10  C   UNL     1       3.284   3.051  19.281  0.00  0.00    +0.000 A 
BRANCH  10  11
ATOM     11  C   UNL     1       4.738   2.857  19.595  0.00  0.00    +0.000 C 
ATOM     12  N   UNL     1       5.173   1.619  19.989  0.00  0.00    +0.000 N 
ATOM     13  O   UNL     1       5.534   3.788  19.535  0.00  0.00    +0.000 OA
ATOM     14  H   UNL     1       4.584   0.823  20.184  0.00  0.00    +0.000 HD
ATOM     15  H   UNL     1       6.153   1.535  20.246  0.00  0.00    +0.000 HD
ENDBRANCH  10  11
ENDBRANCH   3   5
BRANCH   1  16
ATOM     16  C   UNL     1       5.259   5.952  16.092  0.00  0.00    +0.000 C 
ATOM     17  O   UNL     1       5.132   6.929  15.359  0.00  0.00    +0.000 OA
BRANCH  16  18
ATOM     18  C   UNL     1       6.362   4.947  15.956  0.00  0.00    +0.000 C 
BRANCH  18  19
ATOM     19  C   UNL     1       6.910   4.850  14.562  0.00  0.00    +0.000 C 
ATOM     20  O   UNL     1       7.880   5.471  14.143  0.00  0.00    +0.000 OA
BRANCH  19  21
ATOM     21  C   UNL     1       6.069   4.039  13.589  0.00  0.00    +0.000 C 
ATOM     22  O   UNL     1       4.852   4.056  13.653  0.00  0.00    +0.000 OA
BRANCH  21  24
ATOM     23  C   UNL     1       7.195   4.083  11.559  0.00  0.00    +0.000 C 
ATOM     24  O   UNL     1       6.853   3.356  12.738  0.00  0.00    +0.000 OA
ENDBRANCH  21  24
ENDBRANCH  19  21
ENDBRANCH  18  19
BRANCH  18  25
ATOM     25  C   UNL     1       7.452   5.124  16.976  0.00  0.00    +0.000 C 
ATOM     26  O   UNL     1       8.168   4.222  17.381  0.00  0.00    +0.000 OA
BRANCH  25  27
ATOM     27  O   UNL     1       7.464   6.395  17.467  0.00  0.00    +0.000 OA
ATOM     28  C   UNL     1       7.955   6.521  18.806  0.00  0.00    +0.000 C 
ENDBRANCH  25  27
ENDBRANCH  18  25
ENDBRANCH  16  18
ENDBRANCH   1  16
TORSDOF 9
ENDMDL
MODEL 8
REMARK VINA RESULT:      -7.4      1.424      2.234
REMARK  Name = 
REMARK  11 active torsions:
REMARK  status: ('A' for Active; 'I' for Inactive)
REMARK    1  A    between atoms: C_1  and  O_2
REMARK    2  A    between atoms: O_2  and  C_3
REMARK    3  A    between atoms: C_3  and  C_5
REMARK    4  A    between atoms: C_5  and  C_7
REMARK    5  A    between atoms: C_7  and  C_8
REMARK    6  A    between atoms: C_7  and  C_12
REMARK    7  A    between atoms: C_8  and  O_10
REMARK    8  A    between atoms: O_10  and  C_11
REMARK    9  A    between atoms: C_12  and  C_14
REMARK   10  A    between atoms: N_16  and  C_17
REMARK   11  A    between atoms: C_22  and  C_23
REMARK                            x       y       z     vdW  Elec       q    Type
REMARK                         _______ _______ _______ _____ _____    ______ ____
ROOT
ATOM      1  C   UNL     1       5.805   4.679  18.952  0.00  0.00    +0.000 C 
ATOM      2  O   UNL     1       5.718   5.647  19.695  0.00  0.00    +0.000 OA
ATOM      3  N   UNL     1       4.985   3.569  18.844  0.00  0.00    +0.000 N 
ATOM      4  H   UNL     1       5.159   2.939  18.055  0.00  0.00    +0.000 HD
ENDROOT
BRANCH   3   5
ATOM      5  C   UNL     1       3.830   3.275  19.616  0.00  0.00    +0.000 A 
ATOM      6  C   UNL     1       3.935   2.534  20.799  0.00  0.00    +0.000 A 
ATOM      7  C   UNL     1       2.813   2.252  21.580  0.00  0.00    +0.000 A 
ATOM      8  C   UNL     1       1.565   2.723  21.201  0.00  0.00    +0.000 A 
ATOM      9  C   UNL     1       1.428   3.450  20.020  0.00  0.00    +0.000 A 
ATOM     10  C   UNL     1       2.545   3.709  19.196  0.00  0.00    +0.000 A 
BRANCH  10  11
ATOM     11  C   UNL     1       2.364   4.452  17.906  0.00  0.00    +0.000 C 
ATOM     12  N   UNL     1       2.816   5.743  17.814  0.00  0.00    +0.000 N 
ATOM     13  O   UNL     1       1.796   3.939  16.947  0.00  0.00    +0.000 OA
ATOM     14  H   UNL     1       3.185   6.292  18.575  0.00  0.00    +0.000 HD
ATOM     15  H   UNL     1       2.629   6.235  16.945  0.00  0.00    +0.000 HD
ENDBRANCH  10  11
ENDBRANCH   3   5
BRANCH   1  16
ATOM     16  C   UNL     1       6.961   4.687  17.966  0.00  0.00    +0.000 C 
ATOM     17  O   UNL     1       8.009   4.131  18.283  0.00  0.00    +0.000 OA
BRANCH  16  18
ATOM     18  C   UNL     1       6.774   5.445  16.686  0.00  0.00    +0.000 C 
BRANCH  18  19
ATOM     19  C   UNL     1       5.943   4.711  15.675  0.00  0.00    +0.000 C 
ATOM     20  O   UNL     1       4.871   4.166  15.909  0.00  0.00    +0.000 OA
BRANCH  19  21
ATOM     21  C   UNL     1       6.599   4.512  14.318  0.00  0.00    +0.000 C 
ATOM     22  O   UNL     1       6.155   3.702  13.523  0.00  0.00    +0.000 OA
BRANCH  21  24
ATOM     23  C   UNL     1       8.090   5.495  12.834  0.00  0.00    +0.000 C 
ATOM     24  O   UNL     1       7.667   5.317  14.184  0.00  0.00    +0.000 OA
ENDBRANCH  21  24
ENDBRANCH  19  21
ENDBRANCH  18  19
BRANCH  18  25
ATOM     25  C   UNL     1       6.287   6.851  16.898  0.00  0.00    +0.000 C 
ATOM     26  O   UNL     1       5.115   7.155  17.059  0.00  0.00    +0.000 OA
BRANCH  25  27
ATOM     27  O   UNL     1       7.304   7.748  16.780  0.00  0.00    +0.000 OA
ATOM     28  C   UNL     1       7.938   8.109  18.012  0.00  0.00    +0.000 C 
ENDBRANCH  25  27
ENDBRANCH  18  25
ENDBRANCH  16  18
ENDBRANCH   1  16
TORSDOF 9
ENDMDL
MODEL 9
REMARK VINA RESULT:      -7.3      1.021      1.307
REMARK  Name = 
REMARK  11 active torsions:
REMARK  status: ('A' for Active; 'I' for Inactive)
REMARK    1  A    between atoms: C_1  and  O_2
REMARK    2  A    between atoms: O_2  and  C_3
REMARK    3  A    between atoms: C_3  and  C_5
REMARK    4  A    between atoms: C_5  and  C_7
REMARK    5  A    between atoms: C_7  and  C_8
REMARK    6  A    between atoms: C_7  and  C_12
REMARK    7  A    between atoms: C_8  and  O_10
REMARK    8  A    between atoms: O_10  and  C_11
REMARK    9  A    between atoms: C_12  and  C_14
REMARK   10  A    between atoms: N_16  and  C_17
REMARK   11  A    between atoms: C_22  and  C_23
REMARK                            x       y       z     vdW  Elec       q    Type
REMARK                         _______ _______ _______ _____ _____    ______ ____
ROOT
ATOM      1  C   UNL     1       6.292   4.901  18.867  0.00  0.00    +0.000 C 
ATOM      2  O   UNL     1       6.704   5.134  19.995  0.00  0.00    +0.000 OA
ATOM      3  N   UNL     1       5.002   4.656  18.428  0.00  0.00    +0.000 N 
ATOM      4  H   UNL     1       4.855   4.625  17.414  0.00  0.00    +0.000 HD
ENDROOT
BRANCH   3   5
ATOM      5  C   UNL     1       3.823   4.588  19.216  0.00  0.00    +0.000 A 
ATOM      6  C   UNL     1       3.134   5.754  19.567  0.00  0.00    +0.000 A 
ATOM      7  C   UNL     1       1.962   5.704  20.325  0.00  0.00    +0.000 A 
ATOM      8  C   UNL     1       1.448   4.483  20.730  0.00  0.00    +0.000 A 
ATOM      9  C   UNL     1       2.121   3.306  20.408  0.00  0.00    +0.000 A 
ATOM     10  C   UNL     1       3.329   3.340  19.678  0.00  0.00    +0.000 A 
BRANCH  10  11
ATOM     11  C   UNL     1       4.060   2.063  19.385  0.00  0.00    +0.000 C 
ATOM     12  N   UNL     1       5.116   1.704  20.180  0.00  0.00    +0.000 N 
ATOM     13  O   UNL     1       3.750   1.354  18.432  0.00  0.00    +0.000 OA
ATOM     14  H   UNL     1       5.523   2.272  20.908  0.00  0.00    +0.000 HD
ATOM     15  H   UNL     1       5.623   0.862  19.920  0.00  0.00    +0.000 HD
ENDBRANCH  10  11
ENDBRANCH   3   5
BRANCH   1  16
ATOM     16  C   UNL     1       7.328   4.910  17.756  0.00  0.00    +0.000 C 
ATOM     17  O   UNL     1       8.258   4.110  17.811  0.00  0.00    +0.000 OA
BRANCH  16  18
ATOM     18  C   UNL     1       7.192   5.956  16.690  0.00  0.00    +0.000 C 
BRANCH  18  19
ATOM     19  C   UNL     1       6.120   5.647  15.686  0.00  0.00    +0.000 C 
ATOM     20  O   UNL     1       5.069   6.265  15.566  0.00  0.00    +0.000 OA
BRANCH  19  21
ATOM     21  C   UNL     1       6.323   4.363  14.896  0.00  0.00    +0.000 C 
ATOM     22  O   UNL     1       5.992   3.286  15.361  0.00  0.00    +0.000 OA
BRANCH  21  24
ATOM     23  C   UNL     1       6.482   3.742  12.665  0.00  0.00    +0.000 C 
ATOM     24  O   UNL     1       6.895   4.622  13.709  0.00  0.00    +0.000 OA
ENDBRANCH  21  24
ENDBRANCH  19  21
ENDBRANCH  18  19
BRANCH  18  25
ATOM     25  C   UNL     1       7.058   7.347  17.242  0.00  0.00    +0.000 C 
ATOM     26  O   UNL     1       6.102   8.079  17.039  0.00  0.00    +0.000 OA
BRANCH  25  27
ATOM     27  O   UNL     1       8.186   7.724  17.906  0.00  0.00    +0.000 OA
ATOM     28  C   UNL     1       8.307   9.132  18.144  0.00  0.00    +0.000 C 
ENDBRANCH  25  27
ENDBRANCH  18  25
ENDBRANCH  16  18
ENDBRANCH   1  16
TORSDOF 9
ENDMDL
