MODEL 1
REMARK VINA RESULT:      -8.2      0.000      0.000
REMARK  Name = 
REMARK  8 active torsions:
REMARK  status: ('A' for Active; 'I' for Inactive)
REMARK    1  A    between atoms: C_1  and  C_2
REMARK    2  A    between atoms: C_2  and  C_3
REMARK    3  A    between atoms: C_2  and  C_4
REMARK    4  A    between atoms: C_4  and  C_5
REMARK    5  A    between atoms: C_7  and  C_8
REMARK    6  A    between atoms: C_18  and  C_19
REMARK    7  A    between atoms: N_21  and  C_22
REMARK    8  A    between atoms: C_22  and  C_23
REMARK                            x       y       z     vdW  Elec       q    Type
REMARK                         _______ _______ _______ _____ _____    ______ ____
ROOT
ATOM      1  C   UNL     1      -0.715  10.474  18.771  0.00  0.00    +0.000 A 
ATOM      2  N   UNL     1      -1.430  11.368  19.568  0.00  0.00    +0.000 NA
ATOM      3  C   UNL     1      -0.812  11.575  20.712  0.00  0.00    +0.000 A 
ATOM      4  S   UNL     1       0.661  10.718  20.888  0.00  0.00    +0.000 S 
ATOM      5  C   UNL     1       0.469  10.010  19.334  0.00  0.00    +0.000 A 
ENDROOT
BRANCH   3   6
ATOM      6  C   UNL     1      -1.350  12.457  21.723  0.00  0.00    +0.000 A 
ATOM      7  C   UNL     1      -0.629  13.343  22.503  0.00  0.00    +0.000 A 
ATOM      8  C   UNL     1      -1.442  14.095  23.420  0.00  0.00    +0.000 A 
ATOM      9  C   UNL     1      -1.090  15.082  24.369  0.00  0.00    +0.000 A 
ATOM     10  C   UNL     1      -2.075  15.685  25.161  0.00  0.00    +0.000 A 
ATOM     11  C   UNL     1      -3.408  15.321  25.025  0.00  0.00    +0.000 A 
ATOM     12  C   UNL     1      -3.782  14.347  24.099  0.00  0.00    +0.000 A 
ATOM     13  C   UNL     1      -2.786  13.745  23.304  0.00  0.00    +0.000 A 
ATOM     14  S   UNL     1      -3.016  12.538  22.108  0.00  0.00    +0.000 S 
ENDBRANCH   3   6
BRANCH   5  15
ATOM     15  C   UNL     1       1.459   9.073  18.810  0.00  0.00    +0.000 C 
ATOM     16  O   UNL     1       1.923   9.145  17.676  0.00  0.00    +0.000 OA
ATOM     17  N   UNL     1       1.847   8.071  19.680  0.00  0.00    +0.000 N 
ATOM     18  H   UNL     1       1.462   8.077  20.616  0.00  0.00    +0.000 HD
BRANCH  17  19
ATOM     19  C   UNL     1       2.820   7.052  19.359  0.00  0.00    +0.000 C 
BRANCH  19  20
ATOM     20  C   UNL     1       2.175   5.693  19.207  0.00  0.00    +0.000 A 
ATOM     21  C   UNL     1       2.099   5.083  17.943  0.00  0.00    +0.000 A 
ATOM     22  C   UNL     1       1.542   3.810  17.799  0.00  0.00    +0.000 A 
ATOM     23  C   UNL     1       1.062   3.141  18.918  0.00  0.00    +0.000 A 
ATOM     24  F   UNL     1       0.535   1.916  18.780  0.00  0.00    +0.000 F 
ATOM     25  C   UNL     1       1.128   3.720  20.178  0.00  0.00    +0.000 A 
ATOM     26  C   UNL     1       1.684   4.995  20.324  0.00  0.00    +0.000 A 
ENDBRANCH  19  20
ENDBRANCH  17  19
ENDBRANCH   5  15
BRANCH   1  27
ATOM     27  C   UNL     1      -1.316  10.136  17.434  0.00  0.00    +0.000 C 
BRANCH  27  29
ATOM     28  C   UNL     1      -2.928  11.064  15.736  0.00  0.00    +0.000 C 
ATOM     29  C   UNL     1      -2.728  10.718  17.216  0.00  0.00    +0.000 C 
ATOM     30  C   UNL     1      -3.838   9.769  17.671  0.00  0.00    +0.000 C 
ENDBRANCH  27  29
ENDBRANCH   1  27
TORSDOF 6
ENDMDL
MODEL 2
REMARK VINA RESULT:      -8.2      0.732      1.452
REMARK  Name = 
REMARK  8 active torsions:
REMARK  status: ('A' for Active; 'I' for Inactive)
REMARK    1  A    between atoms: C_1  and  C_2
REMARK    2  A    between atoms: C_2  and  C_3
REMARK    3  A    between atoms: C_2  and  C_4
REMARK    4  A    between atoms: C_4  and  C_5
REMARK    5  A    between atoms: C_7  and  C_8
REMARK    6  A    between atoms: C_18  and  C_19
REMARK    7  A    between atoms: N_21  and  C_22
REMARK    8  A    between atoms: C_22  and  C_23
REMARK                            x       y       z     vdW  Elec       q    Type
REMARK                         _______ _______ _______ _____ _____    ______ ____
ROOT
ATOM      1  C   UNL     1      -0.668  10.422  18.715  0.00  0.00    +0.000 A 
ATOM      2  N   UNL     1      -1.322  11.313  19.566  0.00  0.00    +0.000 NA
ATOM      3  C   UNL     1      -0.569  11.610  20.604  0.00  0.00    +0.000 A 
ATOM      4  S   UNL     1       0.965  10.847  20.609  0.00  0.00    +0.000 S 
ATOM      5  C   UNL     1       0.609  10.054  19.127  0.00  0.00    +0.000 A 
ENDROOT
BRANCH   3   6
ATOM      6  C   UNL     1      -1.019  12.509  21.643  0.00  0.00    +0.000 A 
ATOM      7  C   UNL     1      -2.164  12.370  22.405  0.00  0.00    +0.000 A 
ATOM      8  C   UNL     1      -2.345  13.421  23.369  0.00  0.00    +0.000 A 
ATOM      9  C   UNL     1      -3.370  13.636  24.320  0.00  0.00    +0.000 A 
ATOM     10  C   UNL     1      -3.327  14.751  25.166  0.00  0.00    +0.000 A 
ATOM     11  C   UNL     1      -2.280  15.658  25.083  0.00  0.00    +0.000 A 
ATOM     12  C   UNL     1      -1.258  15.472  24.152  0.00  0.00    +0.000 A 
ATOM     13  C   UNL     1      -1.306  14.347  23.304  0.00  0.00    +0.000 A 
ATOM     14  S   UNL     1      -0.164  13.921  22.098  0.00  0.00    +0.000 S 
ENDBRANCH   3   6
BRANCH   5  15
ATOM     15  C   UNL     1       1.575   9.150  18.511  0.00  0.00    +0.000 C 
ATOM     16  O   UNL     1       2.058   9.335  17.397  0.00  0.00    +0.000 OA
ATOM     17  N   UNL     1       1.915   8.041  19.264  0.00  0.00    +0.000 N 
ATOM     18  H   UNL     1       1.517   7.953  20.189  0.00  0.00    +0.000 HD
BRANCH  17  19
ATOM     19  C   UNL     1       2.860   7.033  18.838  0.00  0.00    +0.000 C 
BRANCH  19  20
ATOM     20  C   UNL     1       2.271   5.643  18.932  0.00  0.00    +0.000 A 
ATOM     21  C   UNL     1       1.804   5.154  20.164  0.00  0.00    +0.000 A 
ATOM     22  C   UNL     1       1.222   3.887  20.253  0.00  0.00    +0.000 A 
ATOM     23  C   UNL     1       1.101   3.106  19.110  0.00  0.00    +0.000 A 
ATOM     24  F   UNL     1       0.535   1.894  19.195  0.00  0.00    +0.000 F 
ATOM     25  C   UNL     1       1.553   3.567  17.881  0.00  0.00    +0.000 A 
ATOM     26  C   UNL     1       2.137   4.834  17.790  0.00  0.00    +0.000 A 
ENDBRANCH  19  20
ENDBRANCH  17  19
ENDBRANCH   5  15
BRANCH   1  27
ATOM     27  C   UNL     1      -1.422   9.986  17.489  0.00  0.00    +0.000 C 
BRANCH  27  29
ATOM     28  C   UNL     1      -2.812  10.980  15.640  0.00  0.00    +0.000 C 
ATOM     29  C   UNL     1      -2.646  10.866  17.159  0.00  0.00    +0.000 C 
ATOM     30  C   UNL     1      -3.941  10.336  17.775  0.00  0.00    +0.000 C 
ENDBRANCH  27  29
ENDBRANCH   1  27
TORSDOF 6
ENDMDL
MODEL 3
REMARK VINA RESULT:      -8.0      2.781      4.530
REMARK  Name = 
REMARK  8 active torsions:
REMARK  status: ('A' for Active; 'I' for Inactive)
REMARK    1  A    between atoms: C_1  and  C_2
REMARK    2  A    between atoms: C_2  and  C_3
REMARK    3  A    between atoms: C_2  and  C_4
REMARK    4  A    between atoms: C_4  and  C_5
REMARK    5  A    between atoms: C_7  and  C_8
REMARK    6  A    between atoms: C_18  and  C_19
REMARK    7  A    between atoms: N_21  and  C_22
REMARK    8  A    between atoms: C_22  and  C_23
REMARK                            x       y       z     vdW  Elec       q    Type
REMARK                         _______ _______ _______ _____ _____    ______ ____
ROOT
ATOM      1  C   UNL     1      -0.212  10.718  19.926  0.00  0.00    +0.000 A 
ATOM      2  N   UNL     1      -1.473  11.309  20.007  0.00  0.00    +0.000 NA
ATOM      3  C   UNL     1      -2.127  11.179  18.872  0.00  0.00    +0.000 A 
ATOM      4  S   UNL     1      -1.271  10.332  17.653  0.00  0.00    +0.000 S 
ATOM      5  C   UNL     1       0.075  10.124  18.700  0.00  0.00    +0.000 A 
ENDROOT
BRANCH   3   6
ATOM      6  C   UNL     1      -3.458  11.713  18.691  0.00  0.00    +0.000 A 
ATOM      7  C   UNL     1      -4.200  12.396  19.637  0.00  0.00    +0.000 A 
ATOM      8  C   UNL     1      -5.491  12.814  19.163  0.00  0.00    +0.000 A 
ATOM      9  C   UNL     1      -6.528  13.525  19.812  0.00  0.00    +0.000 A 
ATOM     10  C   UNL     1      -7.715  13.823  19.131  0.00  0.00    +0.000 A 
ATOM     11  C   UNL     1      -7.890  13.424  17.813  0.00  0.00    +0.000 A 
ATOM     12  C   UNL     1      -6.885  12.719  17.151  0.00  0.00    +0.000 A 
ATOM     13  C   UNL     1      -5.692  12.424  17.840  0.00  0.00    +0.000 A 
ATOM     14  S   UNL     1      -4.333  11.578  17.226  0.00  0.00    +0.000 S 
ENDBRANCH   3   6
BRANCH   5  15
ATOM     15  C   UNL     1       1.276   9.429  18.247  0.00  0.00    +0.000 C 
ATOM     16  O   UNL     1       2.046   9.888  17.409  0.00  0.00    +0.000 OA
ATOM     17  N   UNL     1       1.496   8.190  18.820  0.00  0.00    +0.000 N 
ATOM     18  H   UNL     1       0.851   7.872  19.530  0.00  0.00    +0.000 HD
BRANCH  17  19
ATOM     19  C   UNL     1       2.631   7.348  18.514  0.00  0.00    +0.000 C 
BRANCH  19  20
ATOM     20  C   UNL     1       2.366   5.903  18.875  0.00  0.00    +0.000 A 
ATOM     21  C   UNL     1       2.100   5.544  20.207  0.00  0.00    +0.000 A 
ATOM     22  C   UNL     1       1.814   4.218  20.544  0.00  0.00    +0.000 A 
ATOM     23  C   UNL     1       1.791   3.248  19.550  0.00  0.00    +0.000 A 
ATOM     24  F   UNL     1       1.508   1.978  19.873  0.00  0.00    +0.000 F 
ATOM     25  C   UNL     1       2.048   3.578  18.226  0.00  0.00    +0.000 A 
ATOM     26  C   UNL     1       2.335   4.904  17.887  0.00  0.00    +0.000 A 
ENDBRANCH  19  20
ENDBRANCH  17  19
ENDBRANCH   5  15
BRANCH   1  27
ATOM     27  C   UNL     1       0.652  10.804  21.153  0.00  0.00    +0.000 C 
BRANCH  27  29
ATOM     28  C   UNL     1      -0.903  10.554  23.118  0.00  0.00    +0.000 C 
ATOM     29  C   UNL     1       0.205   9.877  22.302  0.00  0.00    +0.000 C 
ATOM     30  C   UNL     1      -0.286   8.515  21.810  0.00  0.00    +0.000 C 
ENDBRANCH  27  29
ENDBRANCH   1  27
TORSDOF 6
ENDMDL
MODEL 4
REMARK VINA RESULT:      -7.9      4.458      7.274
REMARK  Name = 
REMARK  8 active torsions:
REMARK  status: ('A' for Active; 'I' for Inactive)
REMARK    1  A    between atoms: C_1  and  C_2
REMARK    2  A    between atoms: C_2  and  C_3
REMARK    3  A    between atoms: C_2  and  C_4
REMARK    4  A    between atoms: C_4  and  C_5
REMARK    5  A    between atoms: C_7  and  C_8
REMARK    6  A    between atoms: C_18  and  C_19
REMARK    7  A    between atoms: N_21  and  C_22
REMARK    8  A    between atoms: C_22  and  C_23
REMARK                            x       y       z     vdW  Elec       q    Type
REMARK                         _______ _______ _______ _____ _____    ______ ____
ROOT
ATOM      1  C   UNL     1       3.188   5.068  19.387  0.00  0.00    +0.000 A 
ATOM      2  N   UNL     1       2.329   6.114  19.726  0.00  0.00    +0.000 NA
ATOM      3  C   UNL     1       2.596   7.190  19.017  0.00  0.00    +0.000 A 
ATOM      4  S   UNL     1       3.883   7.003  17.901  0.00  0.00    +0.000 S 
ATOM      5  C   UNL     1       4.114   5.373  18.394  0.00  0.00    +0.000 A 
ENDROOT
BRANCH   3   6
ATOM      6  C   UNL     1       1.853   8.419  19.182  0.00  0.00    +0.000 A 
ATOM      7  C   UNL     1       1.128   8.792  20.298  0.00  0.00    +0.000 A 
ATOM      8  C   UNL     1       0.498  10.078  20.172  0.00  0.00    +0.000 A 
ATOM      9  C   UNL     1      -0.314  10.802  21.076  0.00  0.00    +0.000 A 
ATOM     10  C   UNL     1      -0.818  12.059  20.724  0.00  0.00    +0.000 A 
ATOM     11  C   UNL     1      -0.528  12.611  19.483  0.00  0.00    +0.000 A 
ATOM     12  C   UNL     1       0.267  11.918  18.571  0.00  0.00    +0.000 A 
ATOM     13  C   UNL     1       0.773  10.653  18.933  0.00  0.00    +0.000 A 
ATOM     14  S   UNL     1       1.767   9.633  17.978  0.00  0.00    +0.000 S 
ENDBRANCH   3   6
BRANCH   5  15
ATOM     15  C   UNL     1       5.161   4.551  17.796  0.00  0.00    +0.000 C 
ATOM     16  O   UNL     1       6.247   4.347  18.331  0.00  0.00    +0.000 OA
ATOM     17  N   UNL     1       4.860   4.011  16.560  0.00  0.00    +0.000 N 
ATOM     18  H   UNL     1       3.939   4.180  16.178  0.00  0.00    +0.000 HD
BRANCH  17  19
ATOM     19  C   UNL     1       5.756   3.163  15.807  0.00  0.00    +0.000 C 
BRANCH  19  20
ATOM     20  C   UNL     1       6.283   3.862  14.575  0.00  0.00    +0.000 A 
ATOM     21  C   UNL     1       7.223   4.900  14.698  0.00  0.00    +0.000 A 
ATOM     22  C   UNL     1       7.746   5.525  13.563  0.00  0.00    +0.000 A 
ATOM     23  C   UNL     1       7.334   5.114  12.302  0.00  0.00    +0.000 A 
ATOM     24  F   UNL     1       7.843   5.709  11.213  0.00  0.00    +0.000 F 
ATOM     25  C   UNL     1       6.409   4.090  12.153  0.00  0.00    +0.000 A 
ATOM     26  C   UNL     1       5.883   3.463  13.287  0.00  0.00    +0.000 A 
ENDBRANCH  19  20
ENDBRANCH  17  19
ENDBRANCH   5  15
BRANCH   1  27
ATOM     27  C   UNL     1       3.002   3.776  20.132  0.00  0.00    +0.000 C 
BRANCH  27  29
ATOM     28  C   UNL     1       0.836   2.778  19.322  0.00  0.00    +0.000 C 
ATOM     29  C   UNL     1       1.535   3.469  20.499  0.00  0.00    +0.000 C 
ATOM     30  C   UNL     1       1.404   2.599  21.750  0.00  0.00    +0.000 C 
ENDBRANCH  27  29
ENDBRANCH   1  27
TORSDOF 6
ENDMDL
MODEL 5
REMARK VINA RESULT:      -7.8      4.673     10.987
REMARK  Name = 
REMARK  8 active torsions:
REMARK  status: ('A' for Active; 'I' for Inactive)
REMARK    1  A    between atoms: C_1  and  C_2
REMARK    2  A    between atoms: C_2  and  C_3
REMARK    3  A    between atoms: C_2  and  C_4
REMARK    4  A    between atoms: C_4  and  C_5
REMARK    5  A    between atoms: C_7  and  C_8
REMARK    6  A    between atoms: C_18  and  C_19
REMARK    7  A    between atoms: N_21  and  C_22
REMARK    8  A    between atoms: C_22  and  C_23
REMARK                            x       y       z     vdW  Elec       q    Type
REMARK                         _______ _______ _______ _____ _____    ______ ____
ROOT
ATOM      1  C   UNL     1       3.549   4.231  19.468  0.00  0.00    +0.000 A 
ATOM      2  N   UNL     1       4.367   3.911  18.384  0.00  0.00    +0.000 NA
ATOM      3  C   UNL     1       4.354   4.872  17.486  0.00  0.00    +0.000 A 
ATOM      4  S   UNL     1       3.370   6.214  17.896  0.00  0.00    +0.000 S 
ATOM      5  C   UNL     1       2.917   5.467  19.375  0.00  0.00    +0.000 A 
ENDROOT
BRANCH   3   6
ATOM      6  C   UNL     1       5.116   4.783  16.260  0.00  0.00    +0.000 A 
ATOM      7  C   UNL     1       4.818   3.988  15.169  0.00  0.00    +0.000 A 
ATOM      8  C   UNL     1       5.758   4.118  14.089  0.00  0.00    +0.000 A 
ATOM      9  C   UNL     1       5.805   3.487  12.824  0.00  0.00    +0.000 A 
ATOM     10  C   UNL     1       6.836   3.782  11.924  0.00  0.00    +0.000 A 
ATOM     11  C   UNL     1       7.825   4.695  12.261  0.00  0.00    +0.000 A 
ATOM     12  C   UNL     1       7.805   5.329  13.504  0.00  0.00    +0.000 A 
ATOM     13  C   UNL     1       6.764   5.029  14.404  0.00  0.00    +0.000 A 
ATOM     14  S   UNL     1       6.540   5.687  15.972  0.00  0.00    +0.000 S 
ENDBRANCH   3   6
BRANCH   5  15
ATOM     15  C   UNL     1       1.995   6.126  20.295  0.00  0.00    +0.000 C 
ATOM     16  O   UNL     1       1.096   5.537  20.888  0.00  0.00    +0.000 OA
ATOM     17  N   UNL     1       2.187   7.486  20.456  0.00  0.00    +0.000 N 
ATOM     18  H   UNL     1       2.963   7.918  19.972  0.00  0.00    +0.000 HD
BRANCH  17  19
ATOM     19  C   UNL     1       1.389   8.319  21.327  0.00  0.00    +0.000 C 
BRANCH  19  20
ATOM     20  C   UNL     1       0.675   9.407  20.557  0.00  0.00    +0.000 A 
ATOM     21  C   UNL     1       0.906   9.568  19.180  0.00  0.00    +0.000 A 
ATOM     22  C   UNL     1       0.220  10.544  18.452  0.00  0.00    +0.000 A 
ATOM     23  C   UNL     1      -0.701  11.360  19.097  0.00  0.00    +0.000 A 
ATOM     24  F   UNL     1      -1.365  12.290  18.397  0.00  0.00    +0.000 F 
ATOM     25  C   UNL     1      -0.949  11.219  20.456  0.00  0.00    +0.000 A 
ATOM     26  C   UNL     1      -0.263  10.244  21.187  0.00  0.00    +0.000 A 
ENDBRANCH  19  20
ENDBRANCH  17  19
ENDBRANCH   5  15
BRANCH   1  27
ATOM     27  C   UNL     1       3.460   3.211  20.569  0.00  0.00    +0.000 C 
BRANCH  27  29
ATOM     28  C   UNL     1       1.316   2.499  21.683  0.00  0.00    +0.000 C 
ATOM     29  C   UNL     1       2.229   2.286  20.470  0.00  0.00    +0.000 C 
ATOM     30  C   UNL     1       1.426   2.500  19.186  0.00  0.00    +0.000 C 
ENDBRANCH  27  29
ENDBRANCH   1  27
TORSDOF 6
ENDMDL
MODEL 6
REMARK VINA RESULT:      -7.8      3.647      9.181
REMARK  Name = 
REMARK  8 active torsions:
REMARK  status: ('A' for Active; 'I' for Inactive)
REMARK    1  A    between atoms: C_1  and  C_2
REMARK    2  A    between atoms: C_2  and  C_3
REMARK    3  A    between atoms: C_2  and  C_4
REMARK    4  A    between atoms: C_4  and  C_5
REMARK    5  A    between atoms: C_7  and  C_8
REMARK    6  A    between atoms: C_18  and  C_19
REMARK    7  A    between atoms: N_21  and  C_22
REMARK    8  A    between atoms: C_22  and  C_23
REMARK                            x       y       z     vdW  Elec       q    Type
REMARK                         _______ _______ _______ _____ _____    ______ ____
ROOT
ATOM      1  C   UNL     1      -0.064  10.178  19.631  0.00  0.00    +0.000 A 
ATOM      2  N   UNL     1       0.729   9.382  18.805  0.00  0.00    +0.000 NA
ATOM      3  C   UNL     1       1.475   8.563  19.516  0.00  0.00    +0.000 A 
ATOM      4  S   UNL     1       1.258   8.696  21.210  0.00  0.00    +0.000 S 
ATOM      5  C   UNL     1       0.091   9.938  20.993  0.00  0.00    +0.000 A 
ENDROOT
BRANCH   3   6
ATOM      6  C   UNL     1       2.396   7.635  18.898  0.00  0.00    +0.000 A 
ATOM      7  C   UNL     1       3.143   7.863  17.757  0.00  0.00    +0.000 A 
ATOM      8  C   UNL     1       3.977   6.754  17.385  0.00  0.00    +0.000 A 
ATOM      9  C   UNL     1       4.874   6.594  16.303  0.00  0.00    +0.000 A 
ATOM     10  C   UNL     1       5.591   5.401  16.147  0.00  0.00    +0.000 A 
ATOM     11  C   UNL     1       5.429   4.361  17.051  0.00  0.00    +0.000 A 
ATOM     12  C   UNL     1       4.549   4.490  18.125  0.00  0.00    +0.000 A 
ATOM     13  C   UNL     1       3.832   5.693  18.277  0.00  0.00    +0.000 A 
ATOM     14  S   UNL     1       2.708   6.070  19.516  0.00  0.00    +0.000 S 
ENDBRANCH   3   6
BRANCH   5  15
ATOM     15  C   UNL     1      -0.552  10.570  22.141  0.00  0.00    +0.000 C 
ATOM     16  O   UNL     1      -0.960   9.945  23.116  0.00  0.00    +0.000 OA
ATOM     17  N   UNL     1      -0.690  11.944  22.063  0.00  0.00    +0.000 N 
ATOM     18  H   UNL     1      -0.306  12.416  21.255  0.00  0.00    +0.000 HD
BRANCH  17  19
ATOM     19  C   UNL     1      -1.289  12.757  23.097  0.00  0.00    +0.000 C 
BRANCH  19  20
ATOM     20  C   UNL     1      -2.786  12.871  22.919  0.00  0.00    +0.000 A 
ATOM     21  C   UNL     1      -3.331  13.120  21.648  0.00  0.00    +0.000 A 
ATOM     22  C   UNL     1      -4.715  13.186  21.467  0.00  0.00    +0.000 A 
ATOM     23  C   UNL     1      -5.559  13.001  22.555  0.00  0.00    +0.000 A 
ATOM     24  F   UNL     1      -6.887  13.056  22.378  0.00  0.00    +0.000 F 
ATOM     25  C   UNL     1      -5.045  12.751  23.820  0.00  0.00    +0.000 A 
ATOM     26  C   UNL     1      -3.661  12.685  24.004  0.00  0.00    +0.000 A 
ENDBRANCH  19  20
ENDBRANCH  17  19
ENDBRANCH   5  15
BRANCH   1  27
ATOM     27  C   UNL     1      -0.962  11.172  18.949  0.00  0.00    +0.000 C 
BRANCH  27  29
ATOM     28  C   UNL     1      -3.379  11.592  18.381  0.00  0.00    +0.000 C 
ATOM     29  C   UNL     1      -2.249  10.557  18.362  0.00  0.00    +0.000 C 
ATOM     30  C   UNL     1      -2.062  10.032  16.938  0.00  0.00    +0.000 C 
ENDBRANCH  27  29
ENDBRANCH   1  27
TORSDOF 6
ENDMDL
MODEL 7
REMARK VINA RESULT:      -7.8      0.890      1.310
REMARK  Name = 
REMARK  8 active torsions:
REMARK  status: ('A' for Active; 'I' for Inactive)
REMARK    1  A    between atoms: C_1  and  C_2
REMARK    2  A    between atoms: C_2  and  C_3
REMARK    3  A    between atoms: C_2  and  C_4
REMARK    4  A    between atoms: C_4  and  C_5
REMARK    5  A    between atoms: C_7  and  C_8
REMARK    6  A    between atoms: C_18  and  C_19
REMARK    7  A    between atoms: N_21  and  C_22
REMARK    8  A    between atoms: C_22  and  C_23
REMARK                            x       y       z     vdW  Elec       q    Type
REMARK                         _______ _______ _______ _____ _____    ______ ____
ROOT
ATOM      1  C   UNL     1      -1.008  10.454  18.551  0.00  0.00    +0.000 A 
ATOM      2  N   UNL     1      -1.782  11.294  19.353  0.00  0.00    +0.000 NA
ATOM      3  C   UNL     1      -1.091  11.724  20.387  0.00  0.00    +0.000 A 
ATOM      4  S   UNL     1       0.524  11.154  20.449  0.00  0.00    +0.000 S 
ATOM      5  C   UNL     1       0.296  10.262  18.998  0.00  0.00    +0.000 A 
ENDROOT
BRANCH   3   6
ATOM      6  C   UNL     1      -1.667  12.604  21.379  0.00  0.00    +0.000 A 
ATOM      7  C   UNL     1      -2.984  13.021  21.435  0.00  0.00    +0.000 A 
ATOM      8  C   UNL     1      -3.265  13.892  22.544  0.00  0.00    +0.000 A 
ATOM      9  C   UNL     1      -4.468  14.521  22.944  0.00  0.00    +0.000 A 
ATOM     10  C   UNL     1      -4.495  15.336  24.081  0.00  0.00    +0.000 A 
ATOM     11  C   UNL     1      -3.344  15.540  24.829  0.00  0.00    +0.000 A 
ATOM     12  C   UNL     1      -2.144  14.936  24.455  0.00  0.00    +0.000 A 
ATOM     13  C   UNL     1      -2.123  14.114  23.311  0.00  0.00    +0.000 A 
ATOM     14  S   UNL     1      -0.770  13.274  22.674  0.00  0.00    +0.000 S 
ENDBRANCH   3   6
BRANCH   5  15
ATOM     15  C   UNL     1       1.376   9.457  18.436  0.00  0.00    +0.000 C 
ATOM     16  O   UNL     1       2.008   9.779  17.435  0.00  0.00    +0.000 OA
ATOM     17  N   UNL     1       1.648   8.278  19.105  0.00  0.00    +0.000 N 
ATOM     18  H   UNL     1       1.123   8.075  19.946  0.00  0.00    +0.000 HD
BRANCH  17  19
ATOM     19  C   UNL     1       2.683   7.347  18.716  0.00  0.00    +0.000 C 
BRANCH  19  20
ATOM     20  C   UNL     1       2.267   5.915  18.966  0.00  0.00    +0.000 A 
ATOM     21  C   UNL     1       2.246   4.990  17.907  0.00  0.00    +0.000 A 
ATOM     22  C   UNL     1       1.902   3.654  18.136  0.00  0.00    +0.000 A 
ATOM     23  C   UNL     1       1.582   3.239  19.422  0.00  0.00    +0.000 A 
ATOM     24  F   UNL     1       1.261   1.956  19.641  0.00  0.00    +0.000 F 
ATOM     25  C   UNL     1       1.599   4.132  20.484  0.00  0.00    +0.000 A 
ATOM     26  C   UNL     1       1.941   5.469  20.259  0.00  0.00    +0.000 A 
ENDBRANCH  19  20
ENDBRANCH  17  19
ENDBRANCH   5  15
BRANCH   1  27
ATOM     27  C   UNL     1      -1.679   9.879  17.335  0.00  0.00    +0.000 C 
BRANCH  27  29
ATOM     28  C   UNL     1      -2.799  10.547  15.180  0.00  0.00    +0.000 C 
ATOM     29  C   UNL     1      -2.717  10.818  16.687  0.00  0.00    +0.000 C 
ATOM     30  C   UNL     1      -4.109  10.682  17.305  0.00  0.00    +0.000 C 
ENDBRANCH  27  29
ENDBRANCH   1  27
TORSDOF 6
ENDMDL
MODEL 8
REMARK VINA RESULT:      -7.7      3.711      9.326
REMARK  Name = 
REMARK  8 active torsions:
REMARK  status: ('A' for Active; 'I' for Inactive)
REMARK    1  A    between atoms: C_1  and  C_2
REMARK    2  A    between atoms: C_2  and  C_3
REMARK    3  A    between atoms: C_2  and  C_4
REMARK    4  A    between atoms: C_4  and  C_5
REMARK    5  A    between atoms: C_7  and  C_8
REMARK    6  A    between atoms: C_18  and  C_19
REMARK    7  A    between atoms: N_21  and  C_22
REMARK    8  A    between atoms: C_22  and  C_23
REMARK                            x       y       z     vdW  Elec       q    Type
REMARK                         _______ _______ _______ _____ _____    ______ ____
ROOT
ATOM      1  C   UNL     1       0.349   9.940  19.495  0.00  0.00    +0.000 A 
ATOM      2  N   UNL     1       1.110   9.181  18.605  0.00  0.00    +0.000 NA
ATOM      3  C   UNL     1       1.753   8.222  19.237  0.00  0.00    +0.000 A 
ATOM      4  S   UNL     1       1.473   8.172  20.926  0.00  0.00    +0.000 S 
ATOM      5  C   UNL     1       0.423   9.528  20.822  0.00  0.00    +0.000 A 
ENDROOT
BRANCH   3   6
ATOM      6  C   UNL     1       2.620   7.297  18.542  0.00  0.00    +0.000 A 
ATOM      7  C   UNL     1       3.499   7.609  17.521  0.00  0.00    +0.000 A 
ATOM      8  C   UNL     1       4.236   6.477  17.030  0.00  0.00    +0.000 A 
ATOM      9  C   UNL     1       5.214   6.383  16.011  0.00  0.00    +0.000 A 
ATOM     10  C   UNL     1       5.802   5.149  15.708  0.00  0.00    +0.000 A 
ATOM     11  C   UNL     1       5.434   4.004  16.402  0.00  0.00    +0.000 A 
ATOM     12  C   UNL     1       4.471   4.068  17.408  0.00  0.00    +0.000 A 
ATOM     13  C   UNL     1       3.883   5.313  17.710  0.00  0.00    +0.000 A 
ATOM     14  S   UNL     1       2.690   5.624  18.901  0.00  0.00    +0.000 S 
ENDBRANCH   3   6
BRANCH   5  15
ATOM     15  C   UNL     1      -0.216  10.074  22.016  0.00  0.00    +0.000 C 
ATOM     16  O   UNL     1      -0.498   9.397  23.000  0.00  0.00    +0.000 OA
ATOM     17  N   UNL     1      -0.502  11.426  21.971  0.00  0.00    +0.000 N 
ATOM     18  H   UNL     1      -0.217  11.946  21.152  0.00  0.00    +0.000 HD
BRANCH  17  19
ATOM     19  C   UNL     1      -1.123  12.158  23.052  0.00  0.00    +0.000 C 
BRANCH  19  20
ATOM     20  C   UNL     1      -2.588  12.415  22.781  0.00  0.00    +0.000 A 
ATOM     21  C   UNL     1      -3.493  12.543  23.849  0.00  0.00    +0.000 A 
ATOM     22  C   UNL     1      -4.841  12.822  23.610  0.00  0.00    +0.000 A 
ATOM     23  C   UNL     1      -5.289  12.976  22.304  0.00  0.00    +0.000 A 
ATOM     24  F   UNL     1      -6.581  13.252  22.077  0.00  0.00    +0.000 F 
ATOM     25  C   UNL     1      -4.414  12.857  21.233  0.00  0.00    +0.000 A 
ATOM     26  C   UNL     1      -3.065  12.577  21.469  0.00  0.00    +0.000 A 
ENDBRANCH  19  20
ENDBRANCH  17  19
ENDBRANCH   5  15
BRANCH   1  27
ATOM     27  C   UNL     1      -0.431  11.083  18.908  0.00  0.00    +0.000 C 
BRANCH  27  29
ATOM     28  C   UNL     1      -2.651  11.940  18.083  0.00  0.00    +0.000 C 
ATOM     29  C   UNL     1      -1.822  10.684  18.374  0.00  0.00    +0.000 C 
ATOM     30  C   UNL     1      -1.750   9.819  17.115  0.00  0.00    +0.000 C 
ENDBRANCH  27  29
ENDBRANCH   1  27
TORSDOF 6
ENDMDL
MODEL 9
REMARK VINA RESULT:      -7.7      4.172      6.923
REMARK  Name = 
REMARK  8 active torsions:
REMARK  status: ('A' for Active; 'I' for Inactive)
REMARK    1  A    between atoms: C_1  and  C_2
REMARK    2  A    between atoms: C_2  and  C_3
REMARK    3  A    between atoms: C_2  and  C_4
REMARK    4  A    between atoms: C_4  and  C_5
REMARK    5  A    between atoms: C_7  and  C_8
REMARK    6  A    between atoms: C_18  and  C_19
REMARK    7  A    between atoms: N_21  and  C_22
REMARK    8  A    between atoms: C_22  and  C_23
REMARK                            x       y       z     vdW  Elec       q    Type
REMARK                         _______ _______ _______ _____ _____    ______ ____
ROOT
ATOM      1  C   UNL     1       3.273   5.310  19.300  0.00  0.00    +0.000 A 
ATOM      2  N   UNL     1       2.274   6.215  19.659  0.00  0.00    +0.000 NA
ATOM      3  C   UNL     1       2.471   7.383  19.086  0.00  0.00    +0.000 A 
ATOM      4  S   UNL     1       3.855   7.455  18.078  0.00  0.00    +0.000 S 
ATOM      5  C   UNL     1       4.233   5.816  18.430  0.00  0.00    +0.000 A 
ENDROOT
BRANCH   3   6
ATOM      6  C   UNL     1       1.579   8.501  19.301  0.00  0.00    +0.000 A 
ATOM      7  C   UNL     1       1.025   8.883  20.509  0.00  0.00    +0.000 A 
ATOM      8  C   UNL     1       0.180  10.042  20.413  0.00  0.00    +0.000 A 
ATOM      9  C   UNL     1      -0.556  10.734  21.403  0.00  0.00    +0.000 A 
ATOM     10  C   UNL     1      -1.317  11.858  21.063  0.00  0.00    +0.000 A 
ATOM     11  C   UNL     1      -1.360  12.308  19.751  0.00  0.00    +0.000 A 
ATOM     12  C   UNL     1      -0.646  11.643  18.753  0.00  0.00    +0.000 A 
ATOM     13  C   UNL     1       0.119  10.513  19.103  0.00  0.00    +0.000 A 
ATOM     14  S   UNL     1       1.071   9.551  18.049  0.00  0.00    +0.000 S 
ENDBRANCH   3   6
BRANCH   5  15
ATOM     15  C   UNL     1       5.413   5.180  17.852  0.00  0.00    +0.000 C 
ATOM     16  O   UNL     1       5.984   4.223  18.368  0.00  0.00    +0.000 OA
ATOM     17  N   UNL     1       5.868   5.733  16.670  0.00  0.00    +0.000 N 
ATOM     18  H   UNL     1       5.341   6.498  16.268  0.00  0.00    +0.000 HD
BRANCH  17  19
ATOM     19  C   UNL     1       7.013   5.244  15.936  0.00  0.00    +0.000 C 
BRANCH  19  20
ATOM     20  C   UNL     1       6.605   4.605  14.628  0.00  0.00    +0.000 A 
ATOM     21  C   UNL     1       5.350   3.984  14.505  0.00  0.00    +0.000 A 
ATOM     22  C   UNL     1       4.948   3.426  13.288  0.00  0.00    +0.000 A 
ATOM     23  C   UNL     1       5.797   3.490  12.190  0.00  0.00    +0.000 A 
ATOM     24  F   UNL     1       5.407   2.962  11.021  0.00  0.00    +0.000 F 
ATOM     25  C   UNL     1       7.041   4.100  12.285  0.00  0.00    +0.000 A 
ATOM     26  C   UNL     1       7.446   4.658  13.502  0.00  0.00    +0.000 A 
ENDBRANCH  19  20
ENDBRANCH  17  19
ENDBRANCH   5  15
BRANCH   1  27
ATOM     27  C   UNL     1       3.179   3.933  19.896  0.00  0.00    +0.000 C 
BRANCH  27  29
ATOM     28  C   UNL     1       0.987   2.817  19.352  0.00  0.00    +0.000 C 
ATOM     29  C   UNL     1       1.776   3.573  20.427  0.00  0.00    +0.000 C 
ATOM     30  C   UNL     1       1.821   2.739  21.708  0.00  0.00    +0.000 C 
ENDBRANCH  27  29
ENDBRANCH   1  27
TORSDOF 6
ENDMDL
