MODEL 1
REMARK VINA RESULT:      -7.6      0.000      0.000
REMARK  Name = 
REMARK  8 active torsions:
REMARK  status: ('A' for Active; 'I' for Inactive)
REMARK    1  A    between atoms: C_1  and  C_2
REMARK    2  A    between atoms: C_2  and  C_3
REMARK    3  A    between atoms: C_2  and  N_4
REMARK    4  A    between atoms: C_10  and  N_11
REMARK    5  A    between atoms: C_12  and  C_14
REMARK    6  A    between atoms: C_14  and  C_15
REMARK    7  A    between atoms: C_15  and  C_16
REMARK    8  A    between atoms: C_16  and  N_17
REMARK                            x       y       z     vdW  Elec       q    Type
REMARK                         _______ _______ _______ _____ _____    ______ ____
ROOT
ATOM      1  N   UNL     1       0.648  10.079  19.283  0.00  0.00    +0.000 N 
ATOM      2  C   UNL     1       0.325   9.596  20.530  0.00  0.00    +0.000 A 
ATOM      3  N   UNL     1       0.749   8.490  21.030  0.00  0.00    +0.000 NA
ATOM      4  C   UNL     1       1.584   7.706  20.234  0.00  0.00    +0.000 A 
ATOM      5  C   UNL     1       1.927   6.447  20.706  0.00  0.00    +0.000 A 
ATOM      6  C   UNL     1       2.734   5.604  19.947  0.00  0.00    +0.000 A 
ATOM      7  C   UNL     1       3.257   6.012  18.716  0.00  0.00    +0.000 A 
ATOM      8  C   UNL     1       2.913   7.282  18.234  0.00  0.00    +0.000 A 
ATOM      9  C   UNL     1       2.059   8.109  18.988  0.00  0.00    +0.000 A 
ATOM     10  C   UNL     1       1.571   9.411  18.477  0.00  0.00    +0.000 A 
ATOM     11  O   UNL     1       1.972   9.821  17.390  0.00  0.00    +0.000 OA
ENDROOT
BRANCH   7  12
ATOM     12  N   UNL     1       4.108   5.188  17.939  0.00  0.00    +0.000 N 
ATOM     13  C   UNL     1       3.709   4.095  17.184  0.00  0.00    +0.000 C 
ATOM     14  O   UNL     1       2.565   3.663  17.069  0.00  0.00    +0.000 OA
ATOM     15  H   UNL     1       5.093   5.425  17.947  0.00  0.00    +0.000 HD
BRANCH  13  16
ATOM     16  C   UNL     1       4.821   3.440  16.392  0.00  0.00    +0.000 C 
BRANCH  16  17
ATOM     17  C   UNL     1       5.449   4.461  15.443  0.00  0.00    +0.000 C 
BRANCH  17  18
ATOM     18  C   UNL     1       6.960   4.570  15.643  0.00  0.00    +0.000 C 
BRANCH  18  19
ATOM     19  N   UNL     1       7.297   5.396  16.786  0.00  0.00    +0.000 N 
ATOM     20  C   UNL     1       7.579   4.966  18.050  0.00  0.00    +0.000 A 
ATOM     21  C   UNL     1       7.838   6.098  18.785  0.00  0.00    +0.000 A 
ATOM     22  C   UNL     1       7.687   7.158  17.872  0.00  0.00    +0.000 A 
ATOM     23  N   UNL     1       7.360   6.734  16.649  0.00  0.00    +0.000 NA
ENDBRANCH  18  19
ENDBRANCH  17  18
ENDBRANCH  16  17
ENDBRANCH  13  16
ENDBRANCH   7  12
BRANCH   1  25
ATOM     24  C   UNL     1      -1.455  11.379  19.316  0.00  0.00    +0.000 C 
ATOM     25  C   UNL     1      -0.018  11.291  18.785  0.00  0.00    +0.000 C 
ATOM     26  C   UNL     1       0.770  12.558  19.130  0.00  0.00    +0.000 C 
ENDBRANCH   1  25
TORSDOF 6
ENDMDL
MODEL 2
REMARK VINA RESULT:      -7.5      2.221      3.552
REMARK  Name = 
REMARK  8 active torsions:
REMARK  status: ('A' for Active; 'I' for Inactive)
REMARK    1  A    between atoms: C_1  and  C_2
REMARK    2  A    between atoms: C_2  and  C_3
REMARK    3  A    between atoms: C_2  and  N_4
REMARK    4  A    between atoms: C_10  and  N_11
REMARK    5  A    between atoms: C_12  and  C_14
REMARK    6  A    between atoms: C_14  and  C_15
REMARK    7  A    between atoms: C_15  and  C_16
REMARK    8  A    between atoms: C_16  and  N_17
REMARK                            x       y       z     vdW  Elec       q    Type
REMARK                         _______ _______ _______ _____ _____    ______ ____
ROOT
ATOM      1  N   UNL     1       0.617  11.038  20.160  0.00  0.00    +0.000 N 
ATOM      2  C   UNL     1       0.939  11.077  18.823  0.00  0.00    +0.000 A 
ATOM      3  N   UNL     1       1.433  10.100  18.149  0.00  0.00    +0.000 NA
ATOM      4  C   UNL     1       1.684   8.912  18.836  0.00  0.00    +0.000 A 
ATOM      5  C   UNL     1       2.349   7.903  18.155  0.00  0.00    +0.000 A 
ATOM      6  C   UNL     1       2.655   6.703  18.792  0.00  0.00    +0.000 A 
ATOM      7  C   UNL     1       2.267   6.461  20.112  0.00  0.00    +0.000 A 
ATOM      8  C   UNL     1       1.595   7.478  20.807  0.00  0.00    +0.000 A 
ATOM      9  C   UNL     1       1.331   8.705  20.167  0.00  0.00    +0.000 A 
ATOM     10  C   UNL     1       0.729   9.851  20.885  0.00  0.00    +0.000 A 
ATOM     11  O   UNL     1       0.384   9.716  22.057  0.00  0.00    +0.000 OA
ENDROOT
BRANCH   7  12
ATOM     12  N   UNL     1       2.535   5.238  20.774  0.00  0.00    +0.000 N 
ATOM     13  C   UNL     1       1.714   4.120  20.774  0.00  0.00    +0.000 C 
ATOM     14  O   UNL     1       0.629   4.009  20.211  0.00  0.00    +0.000 OA
ATOM     15  H   UNL     1       3.404   5.190  21.293  0.00  0.00    +0.000 HD
BRANCH  13  16
ATOM     16  C   UNL     1       2.285   2.923  21.505  0.00  0.00    +0.000 C 
BRANCH  16  17
ATOM     17  C   UNL     1       3.534   2.423  20.779  0.00  0.00    +0.000 C 
BRANCH  17  18
ATOM     18  C   UNL     1       3.332   2.371  19.266  0.00  0.00    +0.000 C 
BRANCH  18  19
ATOM     19  N   UNL     1       4.252   3.248  18.567  0.00  0.00    +0.000 N 
ATOM     20  C   UNL     1       4.340   3.432  17.218  0.00  0.00    +0.000 A 
ATOM     21  C   UNL     1       5.346   4.348  17.026  0.00  0.00    +0.000 A 
ATOM     22  C   UNL     1       5.800   4.655  18.322  0.00  0.00    +0.000 A 
ATOM     23  N   UNL     1       5.132   3.988  19.267  0.00  0.00    +0.000 NA
ENDBRANCH  18  19
ENDBRANCH  17  18
ENDBRANCH  16  17
ENDBRANCH  13  16
ENDBRANCH   7  12
BRANCH   1  25
ATOM     24  C   UNL     1       1.115  13.441  20.467  0.00  0.00    +0.000 C 
ATOM     25  C   UNL     1       0.190  12.273  20.834  0.00  0.00    +0.000 C 
ATOM     26  C   UNL     1      -1.270  12.615  20.526  0.00  0.00    +0.000 C 
ENDBRANCH   1  25
TORSDOF 6
ENDMDL
MODEL 3
REMARK VINA RESULT:      -7.4      4.083      6.828
REMARK  Name = 
REMARK  8 active torsions:
REMARK  status: ('A' for Active; 'I' for Inactive)
REMARK    1  A    between atoms: C_1  and  C_2
REMARK    2  A    between atoms: C_2  and  C_3
REMARK    3  A    between atoms: C_2  and  N_4
REMARK    4  A    between atoms: C_10  and  N_11
REMARK    5  A    between atoms: C_12  and  C_14
REMARK    6  A    between atoms: C_14  and  C_15
REMARK    7  A    between atoms: C_15  and  C_16
REMARK    8  A    between atoms: C_16  and  N_17
REMARK                            x       y       z     vdW  Elec       q    Type
REMARK                         _______ _______ _______ _____ _____    ______ ____
ROOT
ATOM      1  N   UNL     1       2.625   3.588  18.960  0.00  0.00    +0.000 N 
ATOM      2  C   UNL     1       3.107   2.615  18.116  0.00  0.00    +0.000 A 
ATOM      3  N   UNL     1       4.112   2.750  17.325  0.00  0.00    +0.000 NA
ATOM      4  C   UNL     1       4.749   3.991  17.305  0.00  0.00    +0.000 A 
ATOM      5  C   UNL     1       5.738   4.192  16.354  0.00  0.00    +0.000 A 
ATOM      6  C   UNL     1       6.393   5.417  16.262  0.00  0.00    +0.000 A 
ATOM      7  C   UNL     1       6.109   6.461  17.148  0.00  0.00    +0.000 A 
ATOM      8  C   UNL     1       5.109   6.264  18.111  0.00  0.00    +0.000 A 
ATOM      9  C   UNL     1       4.421   5.037  18.165  0.00  0.00    +0.000 A 
ATOM     10  C   UNL     1       3.281   4.814  19.084  0.00  0.00    +0.000 A 
ATOM     11  O   UNL     1       2.962   5.699  19.874  0.00  0.00    +0.000 OA
ENDROOT
BRANCH   7  12
ATOM     12  N   UNL     1       6.783   7.707  17.100  0.00  0.00    +0.000 N 
ATOM     13  C   UNL     1       7.880   8.063  17.868  0.00  0.00    +0.000 C 
ATOM     14  O   UNL     1       8.441   7.368  18.711  0.00  0.00    +0.000 OA
ATOM     15  H   UNL     1       6.418   8.389  16.446  0.00  0.00    +0.000 HD
BRANCH  13  16
ATOM     16  C   UNL     1       8.445   9.433  17.556  0.00  0.00    +0.000 C 
BRANCH  16  17
ATOM     17  C   UNL     1       9.006  10.063  18.832  0.00  0.00    +0.000 C 
BRANCH  17  18
ATOM     18  C   UNL     1      10.116  11.068  18.530  0.00  0.00    +0.000 C 
BRANCH  18  19
ATOM     19  N   UNL     1       9.683  12.434  18.749  0.00  0.00    +0.000 N 
ATOM     20  C   UNL     1       9.070  12.928  19.864  0.00  0.00    +0.000 A 
ATOM     21  C   UNL     1       8.853  14.262  19.615  0.00  0.00    +0.000 A 
ATOM     22  C   UNL     1       9.372  14.473  18.324  0.00  0.00    +0.000 A 
ATOM     23  N   UNL     1       9.883  13.360  17.793  0.00  0.00    +0.000 NA
ENDBRANCH  18  19
ENDBRANCH  17  18
ENDBRANCH  16  17
ENDBRANCH  13  16
ENDBRANCH   7  12
BRANCH   1  25
ATOM     24  C   UNL     1       0.459   2.395  18.931  0.00  0.00    +0.000 C 
ATOM     25  C   UNL     1       1.383   3.343  19.708  0.00  0.00    +0.000 C 
ATOM     26  C   UNL     1       1.661   2.803  21.114  0.00  0.00    +0.000 C 
ENDBRANCH   1  25
TORSDOF 6
ENDMDL
MODEL 4
REMARK VINA RESULT:      -7.2      2.618      4.354
REMARK  Name = 
REMARK  8 active torsions:
REMARK  status: ('A' for Active; 'I' for Inactive)
REMARK    1  A    between atoms: C_1  and  C_2
REMARK    2  A    between atoms: C_2  and  C_3
REMARK    3  A    between atoms: C_2  and  N_4
REMARK    4  A    between atoms: C_10  and  N_11
REMARK    5  A    between atoms: C_12  and  C_14
REMARK    6  A    between atoms: C_14  and  C_15
REMARK    7  A    between atoms: C_15  and  C_16
REMARK    8  A    between atoms: C_16  and  N_17
REMARK                            x       y       z     vdW  Elec       q    Type
REMARK                         _______ _______ _______ _____ _____    ______ ____
ROOT
ATOM      1  N   UNL     1       0.018  11.022  21.202  0.00  0.00    +0.000 N 
ATOM      2  C   UNL     1      -0.197  11.492  19.927  0.00  0.00    +0.000 A 
ATOM      3  N   UNL     1       0.183  10.909  18.846  0.00  0.00    +0.000 NA
ATOM      4  C   UNL     1       0.893   9.716  18.979  0.00  0.00    +0.000 A 
ATOM      5  C   UNL     1       1.433   9.157  17.830  0.00  0.00    +0.000 A 
ATOM      6  C   UNL     1       2.177   7.982  17.898  0.00  0.00    +0.000 A 
ATOM      7  C   UNL     1       2.364   7.309  19.109  0.00  0.00    +0.000 A 
ATOM      8  C   UNL     1       1.822   7.870  20.274  0.00  0.00    +0.000 A 
ATOM      9  C   UNL     1       1.110   9.083  20.201  0.00  0.00    +0.000 A 
ATOM     10  C   UNL     1       0.615   9.778  21.411  0.00  0.00    +0.000 A 
ATOM     11  O   UNL     1       0.767   9.254  22.512  0.00  0.00    +0.000 OA
ENDROOT
BRANCH   7  12
ATOM     12  N   UNL     1       3.088   6.094  19.202  0.00  0.00    +0.000 N 
ATOM     13  C   UNL     1       4.273   5.805  18.543  0.00  0.00    +0.000 C 
ATOM     14  O   UNL     1       4.883   6.544  17.775  0.00  0.00    +0.000 OA
ATOM     15  H   UNL     1       2.691   5.381  19.802  0.00  0.00    +0.000 HD
BRANCH  13  16
ATOM     16  C   UNL     1       4.866   4.455  18.886  0.00  0.00    +0.000 C 
BRANCH  16  17
ATOM     17  C   UNL     1       4.289   3.386  17.957  0.00  0.00    +0.000 C 
BRANCH  17  18
ATOM     18  C   UNL     1       3.758   2.183  18.734  0.00  0.00    +0.000 C 
BRANCH  18  19
ATOM     19  N   UNL     1       2.739   2.565  19.693  0.00  0.00    +0.000 N 
ATOM     20  C   UNL     1       1.445   2.903  19.420  0.00  0.00    +0.000 A 
ATOM     21  C   UNL     1       0.865   3.185  20.634  0.00  0.00    +0.000 A 
ATOM     22  C   UNL     1       1.892   2.986  21.575  0.00  0.00    +0.000 A 
ATOM     23  N   UNL     1       3.037   2.604  21.005  0.00  0.00    +0.000 NA
ENDBRANCH  18  19
ENDBRANCH  17  18
ENDBRANCH  16  17
ENDBRANCH  13  16
ENDBRANCH   7  12
BRANCH   1  25
ATOM     24  C   UNL     1      -0.248  13.350  21.993  0.00  0.00    +0.000 C 
ATOM     25  C   UNL     1      -0.351  11.861  22.351  0.00  0.00    +0.000 C 
ATOM     26  C   UNL     1      -1.747  11.522  22.880  0.00  0.00    +0.000 C 
ENDBRANCH   1  25
TORSDOF 6
ENDMDL
MODEL 5
REMARK VINA RESULT:      -7.1      2.428      3.720
REMARK  Name = 
REMARK  8 active torsions:
REMARK  status: ('A' for Active; 'I' for Inactive)
REMARK    1  A    between atoms: C_1  and  C_2
REMARK    2  A    between atoms: C_2  and  C_3
REMARK    3  A    between atoms: C_2  and  N_4
REMARK    4  A    between atoms: C_10  and  N_11
REMARK    5  A    between atoms: C_12  and  C_14
REMARK    6  A    between atoms: C_14  and  C_15
REMARK    7  A    between atoms: C_15  and  C_16
REMARK    8  A    between atoms: C_16  and  N_17
REMARK                            x       y       z     vdW  Elec       q    Type
REMARK                         _______ _______ _______ _____ _____    ______ ____
ROOT
ATOM      1  N   UNL     1      -0.951  11.532  22.007  0.00  0.00    +0.000 N 
ATOM      2  C   UNL     1      -1.257  11.937  20.729  0.00  0.00    +0.000 A 
ATOM      3  N   UNL     1      -0.820  11.387  19.651  0.00  0.00    +0.000 NA
ATOM      4  C   UNL     1       0.053  10.310  19.792  0.00  0.00    +0.000 A 
ATOM      5  C   UNL     1       0.643   9.805  18.643  0.00  0.00    +0.000 A 
ATOM      6  C   UNL     1       1.547   8.747  18.717  0.00  0.00    +0.000 A 
ATOM      7  C   UNL     1       1.852   8.137  19.936  0.00  0.00    +0.000 A 
ATOM      8  C   UNL     1       1.260   8.644  21.103  0.00  0.00    +0.000 A 
ATOM      9  C   UNL     1       0.383   9.742  21.021  0.00  0.00    +0.000 A 
ATOM     10  C   UNL     1      -0.180  10.390  22.228  0.00  0.00    +0.000 A 
ATOM     11  O   UNL     1       0.066   9.919  23.336  0.00  0.00    +0.000 OA
ENDROOT
BRANCH   7  12
ATOM     12  N   UNL     1       2.741   7.038  20.038  0.00  0.00    +0.000 N 
ATOM     13  C   UNL     1       2.778   5.945  19.186  0.00  0.00    +0.000 C 
ATOM     14  O   UNL     1       2.051   5.748  18.216  0.00  0.00    +0.000 OA
ATOM     15  H   UNL     1       3.400   7.064  20.807  0.00  0.00    +0.000 HD
BRANCH  13  16
ATOM     16  C   UNL     1       3.881   4.953  19.487  0.00  0.00    +0.000 C 
BRANCH  16  17
ATOM     17  C   UNL     1       5.200   5.453  18.896  0.00  0.00    +0.000 C 
BRANCH  17  18
ATOM     18  C   UNL     1       6.013   4.318  18.277  0.00  0.00    +0.000 C 
BRANCH  18  19
ATOM     19  N   UNL     1       6.118   4.451  16.836  0.00  0.00    +0.000 N 
ATOM     20  C   UNL     1       5.118   4.271  15.925  0.00  0.00    +0.000 A 
ATOM     21  C   UNL     1       5.683   4.505  14.694  0.00  0.00    +0.000 A 
ATOM     22  C   UNL     1       7.026   4.819  14.972  0.00  0.00    +0.000 A 
ATOM     23  N   UNL     1       7.295   4.790  16.280  0.00  0.00    +0.000 NA
ENDBRANCH  18  19
ENDBRANCH  17  18
ENDBRANCH  16  17
ENDBRANCH  13  16
ENDBRANCH   7  12
BRANCH   1  25
ATOM     24  C   UNL     1      -1.021  13.811  22.965  0.00  0.00    +0.000 C 
ATOM     25  C   UNL     1      -1.411  12.338  23.148  0.00  0.00    +0.000 C 
ATOM     26  C   UNL     1      -2.919  12.196  23.375  0.00  0.00    +0.000 C 
ENDBRANCH   1  25
TORSDOF 6
ENDMDL
MODEL 6
REMARK VINA RESULT:      -7.1      0.885      1.077
REMARK  Name = 
REMARK  8 active torsions:
REMARK  status: ('A' for Active; 'I' for Inactive)
REMARK    1  A    between atoms: C_1  and  C_2
REMARK    2  A    between atoms: C_2  and  C_3
REMARK    3  A    between atoms: C_2  and  N_4
REMARK    4  A    between atoms: C_10  and  N_11
REMARK    5  A    between atoms: C_12  and  C_14
REMARK    6  A    between atoms: C_14  and  C_15
REMARK    7  A    between atoms: C_15  and  C_16
REMARK    8  A    between atoms: C_16  and  N_17
REMARK                            x       y       z     vdW  Elec       q    Type
REMARK                         _______ _______ _______ _____ _____    ______ ____
ROOT
ATOM      1  N   UNL     1       0.731  10.711  19.258  0.00  0.00    +0.000 N 
ATOM      2  C   UNL     1       0.369  10.359  20.537  0.00  0.00    +0.000 A 
ATOM      3  N   UNL     1       0.643   9.237  21.104  0.00  0.00    +0.000 NA
ATOM      4  C   UNL     1       1.342   8.294  20.352  0.00  0.00    +0.000 A 
ATOM      5  C   UNL     1       1.514   7.032  20.900  0.00  0.00    +0.000 A 
ATOM      6  C   UNL     1       2.179   6.036  20.189  0.00  0.00    +0.000 A 
ATOM      7  C   UNL     1       2.728   6.287  18.929  0.00  0.00    +0.000 A 
ATOM      8  C   UNL     1       2.556   7.560  18.368  0.00  0.00    +0.000 A 
ATOM      9  C   UNL     1       1.843   8.546  19.076  0.00  0.00    +0.000 A 
ATOM     10  C   UNL     1       1.533   9.869  18.486  0.00  0.00    +0.000 A 
ATOM     11  O   UNL     1       1.965  10.148  17.370  0.00  0.00    +0.000 OA
ENDROOT
BRANCH   7  12
ATOM     12  N   UNL     1       3.438   5.303  18.197  0.00  0.00    +0.000 N 
ATOM     13  C   UNL     1       2.870   4.266  17.473  0.00  0.00    +0.000 C 
ATOM     14  O   UNL     1       1.671   4.029  17.351  0.00  0.00    +0.000 OA
ATOM     15  H   UNL     1       4.449   5.371  18.217  0.00  0.00    +0.000 HD
BRANCH  13  16
ATOM     16  C   UNL     1       3.866   3.404  16.726  0.00  0.00    +0.000 C 
BRANCH  16  17
ATOM     17  C   UNL     1       4.968   4.283  16.134  0.00  0.00    +0.000 C 
BRANCH  17  18
ATOM     18  C   UNL     1       6.344   3.925  16.692  0.00  0.00    +0.000 C 
BRANCH  18  19
ATOM     19  N   UNL     1       6.931   5.026  17.432  0.00  0.00    +0.000 N 
ATOM     20  C   UNL     1       6.920   6.344  17.080  0.00  0.00    +0.000 A 
ATOM     21  C   UNL     1       7.591   7.007  18.080  0.00  0.00    +0.000 A 
ATOM     22  C   UNL     1       7.965   5.999  18.987  0.00  0.00    +0.000 A 
ATOM     23  N   UNL     1       7.561   4.787  18.597  0.00  0.00    +0.000 NA
ENDBRANCH  18  19
ENDBRANCH  17  18
ENDBRANCH  16  17
ENDBRANCH  13  16
ENDBRANCH   7  12
BRANCH   1  25
ATOM     24  C   UNL     1      -1.186  11.791  18.127  0.00  0.00    +0.000 C 
ATOM     25  C   UNL     1       0.231  11.972  18.689  0.00  0.00    +0.000 C 
ATOM     26  C   UNL     1       0.273  13.113  19.708  0.00  0.00    +0.000 C 
ENDBRANCH   1  25
TORSDOF 6
ENDMDL
MODEL 7
REMARK VINA RESULT:      -7.1      2.578      8.786
REMARK  Name = 
REMARK  8 active torsions:
REMARK  status: ('A' for Active; 'I' for Inactive)
REMARK    1  A    between atoms: C_1  and  C_2
REMARK    2  A    between atoms: C_2  and  C_3
REMARK    3  A    between atoms: C_2  and  N_4
REMARK    4  A    between atoms: C_10  and  N_11
REMARK    5  A    between atoms: C_12  and  C_14
REMARK    6  A    between atoms: C_14  and  C_15
REMARK    7  A    between atoms: C_15  and  C_16
REMARK    8  A    between atoms: C_16  and  N_17
REMARK                            x       y       z     vdW  Elec       q    Type
REMARK                         _______ _______ _______ _____ _____    ______ ____
ROOT
ATOM      1  N   UNL     1       4.737   4.890  16.619  0.00  0.00    +0.000 N 
ATOM      2  C   UNL     1       4.056   3.697  16.688  0.00  0.00    +0.000 A 
ATOM      3  N   UNL     1       3.110   3.428  17.517  0.00  0.00    +0.000 NA
ATOM      4  C   UNL     1       2.765   4.418  18.436  0.00  0.00    +0.000 A 
ATOM      5  C   UNL     1       1.851   4.088  19.425  0.00  0.00    +0.000 A 
ATOM      6  C   UNL     1       1.484   5.022  20.391  0.00  0.00    +0.000 A 
ATOM      7  C   UNL     1       1.988   6.326  20.369  0.00  0.00    +0.000 A 
ATOM      8  C   UNL     1       2.914   6.666  19.372  0.00  0.00    +0.000 A 
ATOM      9  C   UNL     1       3.312   5.700  18.427  0.00  0.00    +0.000 A 
ATOM     10  C   UNL     1       4.369   5.968  17.426  0.00  0.00    +0.000 A 
ATOM     11  O   UNL     1       4.872   7.088  17.365  0.00  0.00    +0.000 OA
ENDROOT
BRANCH   7  12
ATOM     12  N   UNL     1       1.608   7.307  21.318  0.00  0.00    +0.000 N 
ATOM     13  C   UNL     1       1.107   8.566  21.024  0.00  0.00    +0.000 C 
ATOM     14  O   UNL     1       0.917   9.036  19.906  0.00  0.00    +0.000 OA
ATOM     15  H   UNL     1       1.721   7.055  22.293  0.00  0.00    +0.000 HD
BRANCH  13  16
ATOM     16  C   UNL     1       0.714   9.382  22.238  0.00  0.00    +0.000 C 
BRANCH  16  17
ATOM     17  C   UNL     1      -0.429  10.329  21.874  0.00  0.00    +0.000 C 
BRANCH  17  18
ATOM     18  C   UNL     1      -1.128  10.883  23.115  0.00  0.00    +0.000 C 
BRANCH  18  19
ATOM     19  N   UNL     1      -2.215  11.779  22.769  0.00  0.00    +0.000 N 
ATOM     20  C   UNL     1      -2.335  12.514  21.626  0.00  0.00    +0.000 A 
ATOM     21  C   UNL     1      -3.519  13.203  21.743  0.00  0.00    +0.000 A 
ATOM     22  C   UNL     1      -4.036  12.813  22.992  0.00  0.00    +0.000 A 
ATOM     23  N   UNL     1      -3.244  11.940  23.621  0.00  0.00    +0.000 NA
ENDBRANCH  18  19
ENDBRANCH  17  18
ENDBRANCH  16  17
ENDBRANCH  13  16
ENDBRANCH   7  12
BRANCH   1  25
ATOM     24  C   UNL     1       7.183   4.585  16.421  0.00  0.00    +0.000 C 
ATOM     25  C   UNL     1       5.889   5.011  15.714  0.00  0.00    +0.000 C 
ATOM     26  C   UNL     1       5.685   4.215  14.422  0.00  0.00    +0.000 C 
ENDBRANCH   1  25
TORSDOF 6
ENDMDL
MODEL 8
REMARK VINA RESULT:      -7.0      1.038      1.074
REMARK  Name = 
REMARK  8 active torsions:
REMARK  status: ('A' for Active; 'I' for Inactive)
REMARK    1  A    between atoms: C_1  and  C_2
REMARK    2  A    between atoms: C_2  and  C_3
REMARK    3  A    between atoms: C_2  and  N_4
REMARK    4  A    between atoms: C_10  and  N_11
REMARK    5  A    between atoms: C_12  and  C_14
REMARK    6  A    between atoms: C_14  and  C_15
REMARK    7  A    between atoms: C_15  and  C_16
REMARK    8  A    between atoms: C_16  and  N_17
REMARK                            x       y       z     vdW  Elec       q    Type
REMARK                         _______ _______ _______ _____ _____    ______ ____
ROOT
ATOM      1  N   UNL     1       0.930  11.021  19.326  0.00  0.00    +0.000 N 
ATOM      2  C   UNL     1       0.594  10.649  20.607  0.00  0.00    +0.000 A 
ATOM      3  N   UNL     1       0.788   9.484  21.117  0.00  0.00    +0.000 NA
ATOM      4  C   UNL     1       1.361   8.514  20.295  0.00  0.00    +0.000 A 
ATOM      5  C   UNL     1       1.439   7.219  20.786  0.00  0.00    +0.000 A 
ATOM      6  C   UNL     1       1.975   6.198  20.005  0.00  0.00    +0.000 A 
ATOM      7  C   UNL     1       2.488   6.451  18.730  0.00  0.00    +0.000 A 
ATOM      8  C   UNL     1       2.411   7.758  18.227  0.00  0.00    +0.000 A 
ATOM      9  C   UNL     1       1.825   8.774  19.007  0.00  0.00    +0.000 A 
ATOM     10  C   UNL     1       1.614  10.143  18.484  0.00  0.00    +0.000 A 
ATOM     11  O   UNL     1       2.020  10.429  17.360  0.00  0.00    +0.000 OA
ENDROOT
BRANCH   7  12
ATOM     12  N   UNL     1       3.070   5.438  17.927  0.00  0.00    +0.000 N 
ATOM     13  C   UNL     1       4.081   4.575  18.320  0.00  0.00    +0.000 C 
ATOM     14  O   UNL     1       4.637   4.549  19.414  0.00  0.00    +0.000 OA
ATOM     15  H   UNL     1       2.709   5.351  16.984  0.00  0.00    +0.000 HD
BRANCH  13  16
ATOM     16  C   UNL     1       4.460   3.541  17.281  0.00  0.00    +0.000 C 
BRANCH  16  17
ATOM     17  C   UNL     1       5.086   4.232  16.068  0.00  0.00    +0.000 C 
BRANCH  17  18
ATOM     18  C   UNL     1       6.611   4.260  16.152  0.00  0.00    +0.000 C 
BRANCH  18  19
ATOM     19  N   UNL     1       7.088   5.357  16.972  0.00  0.00    +0.000 N 
ATOM     20  C   UNL     1       7.668   5.264  18.203  0.00  0.00    +0.000 A 
ATOM     21  C   UNL     1       7.953   6.554  18.584  0.00  0.00    +0.000 A 
ATOM     22  C   UNL     1       7.506   7.349  17.513  0.00  0.00    +0.000 A 
ATOM     23  N   UNL     1       6.980   6.622  16.524  0.00  0.00    +0.000 NA
ENDBRANCH  18  19
ENDBRANCH  17  18
ENDBRANCH  16  17
ENDBRANCH  13  16
ENDBRANCH   7  12
BRANCH   1  25
ATOM     24  C   UNL     1      -0.989  12.544  18.985  0.00  0.00    +0.000 C 
ATOM     25  C   UNL     1       0.525  12.345  18.831  0.00  0.00    +0.000 C 
ATOM     26  C   UNL     1       1.296  13.473  19.523  0.00  0.00    +0.000 C 
ENDBRANCH   1  25
TORSDOF 6
ENDMDL
MODEL 9
REMARK VINA RESULT:      -7.0      4.218      6.725
REMARK  Name = 
REMARK  8 active torsions:
REMARK  status: ('A' for Active; 'I' for Inactive)
REMARK    1  A    between atoms: C_1  and  C_2
REMARK    2  A    between atoms: C_2  and  C_3
REMARK    3  A    between atoms: C_2  and  N_4
REMARK    4  A    between atoms: C_10  and  N_11
REMARK    5  A    between atoms: C_12  and  C_14
REMARK    6  A    between atoms: C_14  and  C_15
REMARK    7  A    between atoms: C_15  and  C_16
REMARK    8  A    between atoms: C_16  and  N_17
REMARK                            x       y       z     vdW  Elec       q    Type
REMARK                         _______ _______ _______ _____ _____    ______ ____
ROOT
ATOM      1  N   UNL     1       2.849   3.183  19.219  0.00  0.00    +0.000 N 
ATOM      2  C   UNL     1       3.101   2.294  18.200  0.00  0.00    +0.000 A 
ATOM      3  N   UNL     1       3.929   2.486  17.235  0.00  0.00    +0.000 NA
ATOM      4  C   UNL     1       4.608   3.704  17.207  0.00  0.00    +0.000 A 
ATOM      5  C   UNL     1       5.390   3.980  16.096  0.00  0.00    +0.000 A 
ATOM      6  C   UNL     1       6.071   5.190  15.993  0.00  0.00    +0.000 A 
ATOM      7  C   UNL     1       6.024   6.140  17.017  0.00  0.00    +0.000 A 
ATOM      8  C   UNL     1       5.233   5.868  18.143  0.00  0.00    +0.000 A 
ATOM      9  C   UNL     1       4.513   4.660  18.216  0.00  0.00    +0.000 A 
ATOM     10  C   UNL     1       3.574   4.371  19.325  0.00  0.00    +0.000 A 
ATOM     11  O   UNL     1       3.466   5.174  20.249  0.00  0.00    +0.000 OA
ENDROOT
BRANCH   7  12
ATOM     12  N   UNL     1       6.734   7.365  16.955  0.00  0.00    +0.000 N 
ATOM     13  C   UNL     1       7.780   7.737  17.784  0.00  0.00    +0.000 C 
ATOM     14  O   UNL     1       8.258   7.077  18.703  0.00  0.00    +0.000 OA
ATOM     15  H   UNL     1       6.437   8.019  16.240  0.00  0.00    +0.000 HD
BRANCH  13  16
ATOM     16  C   UNL     1       8.404   9.075  17.444  0.00  0.00    +0.000 C 
BRANCH  16  17
ATOM     17  C   UNL     1       8.339   9.999  18.661  0.00  0.00    +0.000 C 
BRANCH  17  18
ATOM     18  C   UNL     1       9.724  10.493  19.075  0.00  0.00    +0.000 C 
BRANCH  18  19
ATOM     19  N   UNL     1      10.092  11.713  18.382  0.00  0.00    +0.000 N 
ATOM     20  C   UNL     1      11.225  11.928  17.653  0.00  0.00    +0.000 A 
ATOM     21  C   UNL     1      11.137  13.218  17.189  0.00  0.00    +0.000 A 
ATOM     22  C   UNL     1       9.913  13.695  17.694  0.00  0.00    +0.000 A 
ATOM     23  N   UNL     1       9.270  12.778  18.420  0.00  0.00    +0.000 NA
ENDBRANCH  18  19
ENDBRANCH  17  18
ENDBRANCH  16  17
ENDBRANCH  13  16
ENDBRANCH   7  12
BRANCH   1  25
ATOM     24  C   UNL     1       2.348   2.670  21.586  0.00  0.00    +0.000 C 
ATOM     25  C   UNL     1       1.775   2.892  20.180  0.00  0.00    +0.000 C 
ATOM     26  C   UNL     1       0.708   3.991  20.193  0.00  0.00    +0.000 C 
ENDBRANCH   1  25
TORSDOF 6
ENDMDL
