MODEL 1
REMARK VINA RESULT:      -8.5      0.000      0.000
REMARK  Name = 
REMARK  6 active torsions:
REMARK  status: ('A' for Active; 'I' for Inactive)
REMARK    1  A    between atoms: C_1  and  N_2
REMARK    2  A    between atoms: C_12  and  S_13
REMARK    3  A    between atoms: S_13  and  C_14
REMARK    4  A    between atoms: C_14  and  C_15
REMARK    5  A    between atoms: C_15  and  N_16
REMARK    6  A    between atoms: N_16  and  C_17
REMARK                            x       y       z     vdW  Elec       q    Type
REMARK                         _______ _______ _______ _____ _____    ______ ____
ROOT
ATOM      1  S   UNL     1       3.186   2.534  21.000  0.00  0.00    +0.000 S 
ENDROOT
BRANCH   1  13
ATOM      2  C   UNL     1       7.188   5.448  18.656  0.00  0.00    +0.000 C 
ATOM      3  N   UNL     1       6.304   4.802  17.706  0.00  0.00    +0.000 N 
ATOM      4  C   UNL     1       6.482   4.779  16.336  0.00  0.00    +0.000 A 
ATOM      5  C   UNL     1       7.482   5.323  15.512  0.00  0.00    +0.000 A 
ATOM      6  C   UNL     1       7.423   5.119  14.140  0.00  0.00    +0.000 A 
ATOM      7  C   UNL     1       6.372   4.381  13.583  0.00  0.00    +0.000 A 
ATOM      8  C   UNL     1       5.378   3.846  14.413  0.00  0.00    +0.000 A 
ATOM      9  C   UNL     1       5.415   4.034  15.812  0.00  0.00    +0.000 A 
ATOM     10  C   UNL     1       4.607   3.586  16.911  0.00  0.00    +0.000 A 
ATOM     11  N   UNL     1       3.486   2.804  16.982  0.00  0.00    +0.000 NA
ATOM     12  N   UNL     1       3.040   2.531  18.245  0.00  0.00    +0.000 NA
ATOM     13  C   UNL     1       3.669   3.011  19.341  0.00  0.00    +0.000 A 
ATOM     14  N   UNL     1       4.760   3.817  19.319  0.00  0.00    +0.000 NA
ATOM     15  C   UNL     1       5.194   4.066  18.064  0.00  0.00    +0.000 A 
ENDBRANCH   1  13
BRANCH   1  16
ATOM     16  C   UNL     1       1.820   3.629  21.590  0.00  0.00    +0.000 C 
BRANCH  16  17
ATOM     17  C   UNL     1       1.407   4.811  20.672  0.00  0.00    +0.000 C 
BRANCH  17  18
ATOM     18  N   UNL     1       2.408   5.901  20.697  0.00  0.00    +0.000 N 
ATOM     19  H   UNL     1       2.438   6.275  21.649  0.00  0.00    +0.000 HD
BRANCH  18  20
ATOM     20  C   UNL     1       2.310   7.001  19.811  0.00  0.00    +0.000 A 
ATOM     21  C   UNL     1       2.777   6.929  18.504  0.00  0.00    +0.000 A 
ATOM     22  C   UNL     1       2.690   8.064  17.723  0.00  0.00    +0.000 A 
ATOM     23  N   UNL     1       1.889   9.111  17.995  0.00  0.00    +0.000 NA
ATOM     24  C   UNL     1       1.322   9.150  19.202  0.00  0.00    +0.000 A 
ATOM     25  C   UNL     1       0.499  10.233  19.451  0.00  0.00    +0.000 A 
ATOM     26  C   UNL     1       0.094  10.519  20.745  0.00  0.00    +0.000 A 
ATOM     27 CL   UNL     1      -0.798  11.957  21.054  0.00  0.00    +0.000 Cl
ATOM     28  C   UNL     1       0.475   9.684  21.787  0.00  0.00    +0.000 A 
ATOM     29  C   UNL     1       1.181   8.501  21.513  0.00  0.00    +0.000 A 
ATOM     30  C   UNL     1       1.591   8.182  20.196  0.00  0.00    +0.000 A 
ENDBRANCH  18  20
ENDBRANCH  17  18
ENDBRANCH  16  17
ENDBRANCH   1  16
TORSDOF 5
ENDMDL
MODEL 2
REMARK VINA RESULT:      -8.0      7.602      9.846
REMARK  Name = 
REMARK  6 active torsions:
REMARK  status: ('A' for Active; 'I' for Inactive)
REMARK    1  A    between atoms: C_1  and  N_2
REMARK    2  A    between atoms: C_12  and  S_13
REMARK    3  A    between atoms: S_13  and  C_14
REMARK    4  A    between atoms: C_14  and  C_15
REMARK    5  A    between atoms: C_15  and  N_16
REMARK    6  A    between atoms: N_16  and  C_17
REMARK                            x       y       z     vdW  Elec       q    Type
REMARK                         _______ _______ _______ _____ _____    ______ ____
ROOT
ATOM      1  S   UNL     1       9.302   9.967  18.981  0.00  0.00    +0.000 S 
ENDROOT
BRANCH   1  13
ATOM      2  C   UNL     1       7.475  15.083  18.280  0.00  0.00    +0.000 C 
ATOM      3  N   UNL     1       8.899  14.936  18.052  0.00  0.00    +0.000 N 
ATOM      4  C   UNL     1       9.782  15.971  17.810  0.00  0.00    +0.000 A 
ATOM      5  C   UNL     1       9.592  17.361  17.718  0.00  0.00    +0.000 A 
ATOM      6  C   UNL     1      10.686  18.186  17.486  0.00  0.00    +0.000 A 
ATOM      7  C   UNL     1      11.964  17.635  17.342  0.00  0.00    +0.000 A 
ATOM      8  C   UNL     1      12.141  16.248  17.432  0.00  0.00    +0.000 A 
ATOM      9  C   UNL     1      11.049  15.386  17.670  0.00  0.00    +0.000 A 
ATOM     10  C   UNL     1      10.906  13.970  17.865  0.00  0.00    +0.000 A 
ATOM     11  N   UNL     1      11.805  12.939  17.882  0.00  0.00    +0.000 NA
ATOM     12  N   UNL     1      11.284  11.711  18.180  0.00  0.00    +0.000 NA
ATOM     13  C   UNL     1       9.968  11.540  18.436  0.00  0.00    +0.000 A 
ATOM     14  N   UNL     1       9.035  12.524  18.398  0.00  0.00    +0.000 NA
ATOM     15  C   UNL     1       9.569  13.732  18.113  0.00  0.00    +0.000 A 
ENDBRANCH   1  13
BRANCH   1  16
ATOM     16  C   UNL     1       7.975   9.417  17.819  0.00  0.00    +0.000 C 
BRANCH  16  17
ATOM     17  C   UNL     1       7.765   7.888  17.649  0.00  0.00    +0.000 C 
BRANCH  17  18
ATOM     18  N   UNL     1       6.421   7.575  17.114  0.00  0.00    +0.000 N 
ATOM     19  H   UNL     1       5.734   7.829  17.829  0.00  0.00    +0.000 HD
BRANCH  18  20
ATOM     20  C   UNL     1       6.102   6.271  16.664  0.00  0.00    +0.000 A 
ATOM     21  C   UNL     1       7.010   5.507  15.940  0.00  0.00    +0.000 A 
ATOM     22  C   UNL     1       6.600   4.266  15.495  0.00  0.00    +0.000 A 
ATOM     23  N   UNL     1       5.541   3.596  15.986  0.00  0.00    +0.000 NA
ATOM     24  C   UNL     1       4.711   4.267  16.788  0.00  0.00    +0.000 A 
ATOM     25  C   UNL     1       3.636   3.552  17.283  0.00  0.00    +0.000 A 
ATOM     26  C   UNL     1       2.575   4.213  17.882  0.00  0.00    +0.000 A 
ATOM     27 CL   UNL     1       1.180   3.322  18.349  0.00  0.00    +0.000 Cl
ATOM     28  C   UNL     1       2.617   5.593  18.029  0.00  0.00    +0.000 A 
ATOM     29  C   UNL     1       3.774   6.300  17.666  0.00  0.00    +0.000 A 
ATOM     30  C   UNL     1       4.876   5.643  17.067  0.00  0.00    +0.000 A 
ENDBRANCH  18  20
ENDBRANCH  17  18
ENDBRANCH  16  17
ENDBRANCH   1  16
TORSDOF 5
ENDMDL
MODEL 3
REMARK VINA RESULT:      -7.8      3.348      8.926
REMARK  Name = 
REMARK  6 active torsions:
REMARK  status: ('A' for Active; 'I' for Inactive)
REMARK    1  A    between atoms: C_1  and  N_2
REMARK    2  A    between atoms: C_12  and  S_13
REMARK    3  A    between atoms: S_13  and  C_14
REMARK    4  A    between atoms: C_14  and  C_15
REMARK    5  A    between atoms: C_15  and  N_16
REMARK    6  A    between atoms: N_16  and  C_17
REMARK                            x       y       z     vdW  Elec       q    Type
REMARK                         _______ _______ _______ _____ _____    ______ ____
ROOT
ATOM      1  S   UNL     1       3.034   7.564  18.107  0.00  0.00    +0.000 S 
ENDROOT
BRANCH   1  13
ATOM      2  C   UNL     1       0.825   9.250  22.827  0.00  0.00    +0.000 C 
ATOM      3  N   UNL     1       0.247   9.878  21.655  0.00  0.00    +0.000 N 
ATOM      4  C   UNL     1      -0.679  10.903  21.672  0.00  0.00    +0.000 A 
ATOM      5  C   UNL     1      -1.293  11.594  22.732  0.00  0.00    +0.000 A 
ATOM      6  C   UNL     1      -2.186  12.619  22.452  0.00  0.00    +0.000 A 
ATOM      7  C   UNL     1      -2.475  12.959  21.126  0.00  0.00    +0.000 A 
ATOM      8  C   UNL     1      -1.861  12.262  20.077  0.00  0.00    +0.000 A 
ATOM      9  C   UNL     1      -0.946  11.217  20.331  0.00  0.00    +0.000 A 
ATOM     10  C   UNL     1      -0.130  10.369  19.508  0.00  0.00    +0.000 A 
ATOM     11  N   UNL     1       0.042  10.275  18.154  0.00  0.00    +0.000 NA
ATOM     12  N   UNL     1       0.985   9.376  17.743  0.00  0.00    +0.000 NA
ATOM     13  C   UNL     1       1.690   8.631  18.624  0.00  0.00    +0.000 A 
ATOM     14  N   UNL     1       1.530   8.664  19.971  0.00  0.00    +0.000 NA
ATOM     15  C   UNL     1       0.603   9.568  20.359  0.00  0.00    +0.000 A 
ENDBRANCH   1  13
BRANCH   1  16
ATOM     16  C   UNL     1       2.724   5.842  18.698  0.00  0.00    +0.000 C 
BRANCH  16  17
ATOM     17  C   UNL     1       3.773   5.218  19.658  0.00  0.00    +0.000 C 
BRANCH  17  18
ATOM     18  N   UNL     1       4.831   4.492  18.920  0.00  0.00    +0.000 N 
ATOM     19  H   UNL     1       5.386   3.970  19.603  0.00  0.00    +0.000 HD
BRANCH  18  20
ATOM     20  C   UNL     1       5.734   5.181  18.075  0.00  0.00    +0.000 A 
ATOM     21  C   UNL     1       6.626   6.123  18.575  0.00  0.00    +0.000 A 
ATOM     22  C   UNL     1       7.436   6.787  17.675  0.00  0.00    +0.000 A 
ATOM     23  N   UNL     1       7.683   6.363  16.422  0.00  0.00    +0.000 NA
ATOM     24  C   UNL     1       6.924   5.371  15.950  0.00  0.00    +0.000 A 
ATOM     25  C   UNL     1       7.204   4.951  14.663  0.00  0.00    +0.000 A 
ATOM     26  C   UNL     1       6.310   4.140  13.983  0.00  0.00    +0.000 A 
ATOM     27 CL   UNL     1       6.602   3.759  12.331  0.00  0.00    +0.000 Cl
ATOM     28  C   UNL     1       5.153   3.707  14.617  0.00  0.00    +0.000 A 
ATOM     29  C   UNL     1       4.944   4.007  15.973  0.00  0.00    +0.000 A 
ATOM     30  C   UNL     1       5.853   4.820  16.691  0.00  0.00    +0.000 A 
ENDBRANCH  18  20
ENDBRANCH  17  18
ENDBRANCH  16  17
ENDBRANCH   1  16
TORSDOF 5
ENDMDL
MODEL 4
REMARK VINA RESULT:      -7.8      2.576      8.013
REMARK  Name = 
REMARK  6 active torsions:
REMARK  status: ('A' for Active; 'I' for Inactive)
REMARK    1  A    between atoms: C_1  and  N_2
REMARK    2  A    between atoms: C_12  and  S_13
REMARK    3  A    between atoms: S_13  and  C_14
REMARK    4  A    between atoms: C_14  and  C_15
REMARK    5  A    between atoms: C_15  and  N_16
REMARK    6  A    between atoms: N_16  and  C_17
REMARK                            x       y       z     vdW  Elec       q    Type
REMARK                         _______ _______ _______ _____ _____    ______ ____
ROOT
ATOM      1  S   UNL     1       3.125   6.223  17.726  0.00  0.00    +0.000 S 
ENDROOT
BRANCH   1  13
ATOM      2  C   UNL     1       1.235  11.285  18.626  0.00  0.00    +0.000 C 
ATOM      3  N   UNL     1       0.993  10.368  19.723  0.00  0.00    +0.000 N 
ATOM      4  C   UNL     1       0.247  10.651  20.851  0.00  0.00    +0.000 A 
ATOM      5  C   UNL     1      -0.445  11.808  21.251  0.00  0.00    +0.000 A 
ATOM      6  C   UNL     1      -1.146  11.804  22.450  0.00  0.00    +0.000 A 
ATOM      7  C   UNL     1      -1.160  10.658  23.253  0.00  0.00    +0.000 A 
ATOM      8  C   UNL     1      -0.465   9.512  22.847  0.00  0.00    +0.000 A 
ATOM      9  C   UNL     1       0.254   9.486  21.632  0.00  0.00    +0.000 A 
ATOM     10  C   UNL     1       1.002   8.485  20.924  0.00  0.00    +0.000 A 
ATOM     11  N   UNL     1       1.289   7.174  21.195  0.00  0.00    +0.000 NA
ATOM     12  N   UNL     1       1.982   6.512  20.221  0.00  0.00    +0.000 NA
ATOM     13  C   UNL     1       2.356   7.121  19.074  0.00  0.00    +0.000 A 
ATOM     14  N   UNL     1       2.125   8.425  18.777  0.00  0.00    +0.000 NA
ATOM     15  C   UNL     1       1.429   9.061  19.745  0.00  0.00    +0.000 A 
ENDBRANCH   1  13
BRANCH   1  16
ATOM     16  C   UNL     1       2.820   4.413  17.932  0.00  0.00    +0.000 C 
BRANCH  16  17
ATOM     17  C   UNL     1       3.979   3.555  18.507  0.00  0.00    +0.000 C 
BRANCH  17  18
ATOM     18  N   UNL     1       4.830   2.991  17.435  0.00  0.00    +0.000 N 
ATOM     19  H   UNL     1       5.437   2.284  17.858  0.00  0.00    +0.000 HD
BRANCH  18  20
ATOM     20  C   UNL     1       5.645   3.828  16.636  0.00  0.00    +0.000 A 
ATOM     21  C   UNL     1       5.635   3.746  15.248  0.00  0.00    +0.000 A 
ATOM     22  C   UNL     1       6.499   4.563  14.546  0.00  0.00    +0.000 A 
ATOM     23  N   UNL     1       7.089   5.659  15.058  0.00  0.00    +0.000 NA
ATOM     24  C   UNL     1       7.012   5.836  16.379  0.00  0.00    +0.000 A 
ATOM     25  C   UNL     1       7.621   6.974  16.875  0.00  0.00    +0.000 A 
ATOM     26  C   UNL     1       7.846   7.108  18.236  0.00  0.00    +0.000 A 
ATOM     27 CL   UNL     1       8.743   8.455  18.816  0.00  0.00    +0.000 Cl
ATOM     28  C   UNL     1       7.412   6.117  19.107  0.00  0.00    +0.000 A 
ATOM     29  C   UNL     1       6.659   5.037  18.619  0.00  0.00    +0.000 A 
ATOM     30  C   UNL     1       6.404   4.889  17.234  0.00  0.00    +0.000 A 
ENDBRANCH  18  20
ENDBRANCH  17  18
ENDBRANCH  16  17
ENDBRANCH   1  16
TORSDOF 5
ENDMDL
MODEL 5
REMARK VINA RESULT:      -7.8      2.642      7.857
REMARK  Name = 
REMARK  6 active torsions:
REMARK  status: ('A' for Active; 'I' for Inactive)
REMARK    1  A    between atoms: C_1  and  N_2
REMARK    2  A    between atoms: C_12  and  S_13
REMARK    3  A    between atoms: S_13  and  C_14
REMARK    4  A    between atoms: C_14  and  C_15
REMARK    5  A    between atoms: C_15  and  N_16
REMARK    6  A    between atoms: N_16  and  C_17
REMARK                            x       y       z     vdW  Elec       q    Type
REMARK                         _______ _______ _______ _____ _____    ______ ____
ROOT
ATOM      1  S   UNL     1       3.082   5.787  19.588  0.00  0.00    +0.000 S 
ENDROOT
BRANCH   1  13
ATOM      2  C   UNL     1       0.426   9.363  22.776  0.00  0.00    +0.000 C 
ATOM      3  N   UNL     1       0.543   9.788  21.394  0.00  0.00    +0.000 N 
ATOM      4  C   UNL     1       0.159  11.020  20.902  0.00  0.00    +0.000 A 
ATOM      5  C   UNL     1      -0.411  12.143  21.527  0.00  0.00    +0.000 A 
ATOM      6  C   UNL     1      -0.675  13.282  20.777  0.00  0.00    +0.000 A 
ATOM      7  C   UNL     1      -0.380  13.308  19.409  0.00  0.00    +0.000 A 
ATOM      8  C   UNL     1       0.185  12.182  18.795  0.00  0.00    +0.000 A 
ATOM      9  C   UNL     1       0.468  11.012  19.533  0.00  0.00    +0.000 A 
ATOM     10  C   UNL     1       1.075   9.748  19.225  0.00  0.00    +0.000 A 
ATOM     11  N   UNL     1       1.599   9.225  18.074  0.00  0.00    +0.000 NA
ATOM     12  N   UNL     1       2.169   7.989  18.197  0.00  0.00    +0.000 NA
ATOM     13  C   UNL     1       2.202   7.335  19.380  0.00  0.00    +0.000 A 
ATOM     14  N   UNL     1       1.666   7.798  20.538  0.00  0.00    +0.000 NA
ATOM     15  C   UNL     1       1.118   9.026  20.400  0.00  0.00    +0.000 A 
ENDBRANCH   1  13
BRANCH   1  16
ATOM     16  C   UNL     1       2.831   4.725  18.097  0.00  0.00    +0.000 C 
BRANCH  16  17
ATOM     17  C   UNL     1       3.273   3.240  18.198  0.00  0.00    +0.000 C 
BRANCH  17  18
ATOM     18  N   UNL     1       4.701   3.067  17.851  0.00  0.00    +0.000 N 
ATOM     19  H   UNL     1       5.237   3.071  18.723  0.00  0.00    +0.000 HD
BRANCH  18  20
ATOM     20  C   UNL     1       5.345   3.951  16.953  0.00  0.00    +0.000 A 
ATOM     21  C   UNL     1       5.065   3.940  15.591  0.00  0.00    +0.000 A 
ATOM     22  C   UNL     1       5.777   4.801  14.779  0.00  0.00    +0.000 A 
ATOM     23  N   UNL     1       6.454   5.876  15.222  0.00  0.00    +0.000 NA
ATOM     24  C   UNL     1       6.636   5.984  16.540  0.00  0.00    +0.000 A 
ATOM     25  C   UNL     1       7.329   7.102  16.967  0.00  0.00    +0.000 A 
ATOM     26  C   UNL     1       7.814   7.169  18.263  0.00  0.00    +0.000 A 
ATOM     27 CL   UNL     1       8.807   8.495  18.727  0.00  0.00    +0.000 Cl
ATOM     28  C   UNL     1       7.558   6.130  19.150  0.00  0.00    +0.000 A 
ATOM     29  C   UNL     1       6.725   5.069  18.761  0.00  0.00    +0.000 A 
ATOM     30  C   UNL     1       6.206   4.989  17.447  0.00  0.00    +0.000 A 
ENDBRANCH  18  20
ENDBRANCH  17  18
ENDBRANCH  16  17
ENDBRANCH   1  16
TORSDOF 5
ENDMDL
MODEL 6
REMARK VINA RESULT:      -7.7      2.942      4.792
REMARK  Name = 
REMARK  6 active torsions:
REMARK  status: ('A' for Active; 'I' for Inactive)
REMARK    1  A    between atoms: C_1  and  N_2
REMARK    2  A    between atoms: C_12  and  S_13
REMARK    3  A    between atoms: S_13  and  C_14
REMARK    4  A    between atoms: C_14  and  C_15
REMARK    5  A    between atoms: C_15  and  N_16
REMARK    6  A    between atoms: N_16  and  C_17
REMARK                            x       y       z     vdW  Elec       q    Type
REMARK                         _______ _______ _______ _____ _____    ______ ____
ROOT
ATOM      1  S   UNL     1       0.804   7.651  21.146  0.00  0.00    +0.000 S 
ENDROOT
BRANCH   1  13
ATOM      2  C   UNL     1       3.969   3.496  19.498  0.00  0.00    +0.000 C 
ATOM      3  N   UNL     1       4.036   4.659  18.634  0.00  0.00    +0.000 N 
ATOM      4  C   UNL     1       4.712   4.722  17.431  0.00  0.00    +0.000 A 
ATOM      5  C   UNL     1       5.472   3.769  16.731  0.00  0.00    +0.000 A 
ATOM      6  C   UNL     1       6.027   4.105  15.503  0.00  0.00    +0.000 A 
ATOM      7  C   UNL     1       5.833   5.384  14.970  0.00  0.00    +0.000 A 
ATOM      8  C   UNL     1       5.076   6.328  15.676  0.00  0.00    +0.000 A 
ATOM      9  C   UNL     1       4.497   6.014  16.925  0.00  0.00    +0.000 A 
ATOM     10  C   UNL     1       3.648   6.714  17.848  0.00  0.00    +0.000 A 
ATOM     11  N   UNL     1       3.097   7.966  17.837  0.00  0.00    +0.000 NA
ATOM     12  N   UNL     1       2.264   8.250  18.882  0.00  0.00    +0.000 NA
ATOM     13  C   UNL     1       2.013   7.348  19.857  0.00  0.00    +0.000 A 
ATOM     14  N   UNL     1       2.562   6.109  19.929  0.00  0.00    +0.000 NA
ATOM     15  C   UNL     1       3.373   5.842  18.881  0.00  0.00    +0.000 A 
ENDBRANCH   1  13
BRANCH   1  16
ATOM     16  C   UNL     1       1.280   9.159  22.102  0.00  0.00    +0.000 C 
BRANCH  16  17
ATOM     17  C   UNL     1       0.159  10.186  22.417  0.00  0.00    +0.000 C 
BRANCH  17  18
ATOM     18  N   UNL     1       0.061  11.230  21.373  0.00  0.00    +0.000 N 
ATOM     19  H   UNL     1       0.495  12.081  21.741  0.00  0.00    +0.000 HD
BRANCH  18  20
ATOM     20  C   UNL     1      -1.191  11.595  20.823  0.00  0.00    +0.000 A 
ATOM     21  C   UNL     1      -2.056  12.458  21.486  0.00  0.00    +0.000 A 
ATOM     22  C   UNL     1      -3.279  12.721  20.902  0.00  0.00    +0.000 A 
ATOM     23  N   UNL     1      -3.564  12.498  19.606  0.00  0.00    +0.000 NA
ATOM     24  C   UNL     1      -2.691  11.773  18.903  0.00  0.00    +0.000 A 
ATOM     25  C   UNL     1      -3.006  11.566  17.573  0.00  0.00    +0.000 A 
ATOM     26  C   UNL     1      -2.329  10.607  16.836  0.00  0.00    +0.000 A 
ATOM     27 CL   UNL     1      -2.841  10.256  15.232  0.00  0.00    +0.000 Cl
ATOM     28  C   UNL     1      -1.296   9.889  17.425  0.00  0.00    +0.000 A 
ATOM     29  C   UNL     1      -0.876  10.207  18.726  0.00  0.00    +0.000 A 
ATOM     30  C   UNL     1      -1.543  11.194  19.490  0.00  0.00    +0.000 A 
ENDBRANCH  18  20
ENDBRANCH  17  18
ENDBRANCH  16  17
ENDBRANCH   1  16
TORSDOF 5
ENDMDL
MODEL 7
REMARK VINA RESULT:      -7.7      2.460      6.731
REMARK  Name = 
REMARK  6 active torsions:
REMARK  status: ('A' for Active; 'I' for Inactive)
REMARK    1  A    between atoms: C_1  and  N_2
REMARK    2  A    between atoms: C_12  and  S_13
REMARK    3  A    between atoms: S_13  and  C_14
REMARK    4  A    between atoms: C_14  and  C_15
REMARK    5  A    between atoms: C_15  and  N_16
REMARK    6  A    between atoms: N_16  and  C_17
REMARK                            x       y       z     vdW  Elec       q    Type
REMARK                         _______ _______ _______ _____ _____    ______ ____
ROOT
ATOM      1  S   UNL     1       2.440   3.928  20.849  0.00  0.00    +0.000 S 
ENDROOT
BRANCH   1  13
ATOM      2  C   UNL     1       0.480   8.825  22.326  0.00  0.00    +0.000 C 
ATOM      3  N   UNL     1       1.030   8.797  20.984  0.00  0.00    +0.000 N 
ATOM      4  C   UNL     1       1.191   9.896  20.163  0.00  0.00    +0.000 A 
ATOM      5  C   UNL     1       0.900  11.259  20.354  0.00  0.00    +0.000 A 
ATOM      6  C   UNL     1       1.196  12.168  19.347  0.00  0.00    +0.000 A 
ATOM      7  C   UNL     1       1.776  11.729  18.151  0.00  0.00    +0.000 A 
ATOM      8  C   UNL     1       2.058  10.369  17.970  0.00  0.00    +0.000 A 
ATOM      9  C   UNL     1       1.771   9.422  18.977  0.00  0.00    +0.000 A 
ATOM     10  C   UNL     1       1.981   8.009  19.123  0.00  0.00    +0.000 A 
ATOM     11  N   UNL     1       2.542   7.064  18.307  0.00  0.00    +0.000 NA
ATOM     12  N   UNL     1       2.631   5.808  18.838  0.00  0.00    +0.000 NA
ATOM     13  C   UNL     1       2.188   5.530  20.085  0.00  0.00    +0.000 A 
ATOM     14  N   UNL     1       1.594   6.424  20.915  0.00  0.00    +0.000 NA
ATOM     15  C   UNL     1       1.525   7.662  20.378  0.00  0.00    +0.000 A 
ENDBRANCH   1  13
BRANCH   1  16
ATOM     16  C   UNL     1       2.473   2.617  19.548  0.00  0.00    +0.000 C 
BRANCH  16  17
ATOM     17  C   UNL     1       3.865   2.137  19.054  0.00  0.00    +0.000 C 
BRANCH  17  18
ATOM     18  N   UNL     1       4.873   3.218  19.116  0.00  0.00    +0.000 N 
ATOM     19  H   UNL     1       4.570   3.886  19.830  0.00  0.00    +0.000 HD
BRANCH  18  20
ATOM     20  C   UNL     1       5.218   3.959  17.960  0.00  0.00    +0.000 A 
ATOM     21  C   UNL     1       4.618   3.715  16.730  0.00  0.00    +0.000 A 
ATOM     22  C   UNL     1       5.050   4.448  15.643  0.00  0.00    +0.000 A 
ATOM     23  N   UNL     1       5.740   5.600  15.732  0.00  0.00    +0.000 NA
ATOM     24  C   UNL     1       6.229   5.930  16.930  0.00  0.00    +0.000 A 
ATOM     25  C   UNL     1       6.927   7.122  16.993  0.00  0.00    +0.000 A 
ATOM     26  C   UNL     1       7.707   7.416  18.100  0.00  0.00    +0.000 A 
ATOM     27 CL   UNL     1       8.690   8.827  18.092  0.00  0.00    +0.000 Cl
ATOM     28  C   UNL     1       7.745   6.532  19.171  0.00  0.00    +0.000 A 
ATOM     29  C   UNL     1       6.916   5.398  19.172  0.00  0.00    +0.000 A 
ATOM     30  C   UNL     1       6.100   5.088  18.058  0.00  0.00    +0.000 A 
ENDBRANCH  18  20
ENDBRANCH  17  18
ENDBRANCH  16  17
ENDBRANCH   1  16
TORSDOF 5
ENDMDL
MODEL 8
REMARK VINA RESULT:      -7.6      6.177      8.259
REMARK  Name = 
REMARK  6 active torsions:
REMARK  status: ('A' for Active; 'I' for Inactive)
REMARK    1  A    between atoms: C_1  and  N_2
REMARK    2  A    between atoms: C_12  and  S_13
REMARK    3  A    between atoms: S_13  and  C_14
REMARK    4  A    between atoms: C_14  and  C_15
REMARK    5  A    between atoms: C_15  and  N_16
REMARK    6  A    between atoms: N_16  and  C_17
REMARK                            x       y       z     vdW  Elec       q    Type
REMARK                         _______ _______ _______ _____ _____    ______ ____
ROOT
ATOM      1  S   UNL     1       7.480   7.111  17.312  0.00  0.00    +0.000 S 
ENDROOT
BRANCH   1  13
ATOM      2  C   UNL     1       2.347   7.198  19.221  0.00  0.00    +0.000 C 
ATOM      3  N   UNL     1       3.005   5.915  19.374  0.00  0.00    +0.000 N 
ATOM      4  C   UNL     1       2.402   4.757  19.827  0.00  0.00    +0.000 A 
ATOM      5  C   UNL     1       1.087   4.486  20.242  0.00  0.00    +0.000 A 
ATOM      6  C   UNL     1       0.745   3.197  20.631  0.00  0.00    +0.000 A 
ATOM      7  C   UNL     1       1.705   2.179  20.613  0.00  0.00    +0.000 A 
ATOM      8  C   UNL     1       3.014   2.460  20.201  0.00  0.00    +0.000 A 
ATOM      9  C   UNL     1       3.389   3.760  19.796  0.00  0.00    +0.000 A 
ATOM     10  C   UNL     1       4.595   4.348  19.283  0.00  0.00    +0.000 A 
ATOM     11  N   UNL     1       5.834   3.837  19.007  0.00  0.00    +0.000 NA
ATOM     12  N   UNL     1       6.719   4.713  18.445  0.00  0.00    +0.000 NA
ATOM     13  C   UNL     1       6.383   5.997  18.189  0.00  0.00    +0.000 A 
ATOM     14  N   UNL     1       5.181   6.558  18.477  0.00  0.00    +0.000 NA
ATOM     15  C   UNL     1       4.315   5.673  19.020  0.00  0.00    +0.000 A 
ENDBRANCH   1  13
BRANCH   1  16
ATOM     16  C   UNL     1       8.489   8.073  18.525  0.00  0.00    +0.000 C 
BRANCH  16  17
ATOM     17  C   UNL     1       8.570   9.610  18.323  0.00  0.00    +0.000 C 
BRANCH  17  18
ATOM     18  N   UNL     1       9.686  10.207  19.091  0.00  0.00    +0.000 N 
ATOM     19  H   UNL     1       9.899   9.580  19.871  0.00  0.00    +0.000 HD
BRANCH  18  20
ATOM     20  C   UNL     1       9.592  11.519  19.613  0.00  0.00    +0.000 A 
ATOM     21  C   UNL     1       9.079  11.764  20.882  0.00  0.00    +0.000 A 
ATOM     22  C   UNL     1       8.975  13.078  21.294  0.00  0.00    +0.000 A 
ATOM     23  N   UNL     1       9.636  14.104  20.728  0.00  0.00    +0.000 NA
ATOM     24  C   UNL     1      10.247  13.872  19.564  0.00  0.00    +0.000 A 
ATOM     25  C   UNL     1      10.924  14.943  19.010  0.00  0.00    +0.000 A 
ATOM     26  C   UNL     1      11.345  14.895  17.691  0.00  0.00    +0.000 A 
ATOM     27 CL   UNL     1      12.044  16.293  16.975  0.00  0.00    +0.000 Cl
ATOM     28  C   UNL     1      11.130  13.746  16.940  0.00  0.00    +0.000 A 
ATOM     29  C   UNL     1      10.582  12.605  17.548  0.00  0.00    +0.000 A 
ATOM     30  C   UNL     1      10.159  12.628  18.899  0.00  0.00    +0.000 A 
ENDBRANCH  18  20
ENDBRANCH  17  18
ENDBRANCH  16  17
ENDBRANCH   1  16
TORSDOF 5
ENDMDL
MODEL 9
REMARK VINA RESULT:      -7.5      4.798     10.048
REMARK  Name = 
REMARK  6 active torsions:
REMARK  status: ('A' for Active; 'I' for Inactive)
REMARK    1  A    between atoms: C_1  and  N_2
REMARK    2  A    between atoms: C_12  and  S_13
REMARK    3  A    between atoms: S_13  and  C_14
REMARK    4  A    between atoms: C_14  and  C_15
REMARK    5  A    between atoms: C_15  and  N_16
REMARK    6  A    between atoms: N_16  and  C_17
REMARK                            x       y       z     vdW  Elec       q    Type
REMARK                         _______ _______ _______ _____ _____    ______ ____
ROOT
ATOM      1  S   UNL     1       0.776   9.857  18.353  0.00  0.00    +0.000 S 
ENDROOT
BRANCH   1  13
ATOM      2  C   UNL     1      -2.894  12.852  21.104  0.00  0.00    +0.000 C 
ATOM      3  N   UNL     1      -3.409  12.283  19.874  0.00  0.00    +0.000 N 
ATOM      4  C   UNL     1      -4.653  12.544  19.331  0.00  0.00    +0.000 A 
ATOM      5  C   UNL     1      -5.709  13.367  19.762  0.00  0.00    +0.000 A 
ATOM      6  C   UNL     1      -6.859  13.462  18.990  0.00  0.00    +0.000 A 
ATOM      7  C   UNL     1      -6.967  12.741  17.796  0.00  0.00    +0.000 A 
ATOM      8  C   UNL     1      -5.911  11.921  17.378  0.00  0.00    +0.000 A 
ATOM      9  C   UNL     1      -4.727  11.808  18.140  0.00  0.00    +0.000 A 
ATOM     10  C   UNL     1      -3.479  11.118  17.968  0.00  0.00    +0.000 A 
ATOM     11  N   UNL     1      -2.995  10.306  16.980  0.00  0.00    +0.000 NA
ATOM     12  N   UNL     1      -1.702   9.892  17.140  0.00  0.00    +0.000 NA
ATOM     13  C   UNL     1      -0.964  10.264  18.210  0.00  0.00    +0.000 A 
ATOM     14  N   UNL     1      -1.411  11.038  19.231  0.00  0.00    +0.000 NA
ATOM     15  C   UNL     1      -2.687  11.448  19.049  0.00  0.00    +0.000 A 
ENDBRANCH   1  13
BRANCH   1  16
ATOM     16  C   UNL     1       1.150   9.323  20.082  0.00  0.00    +0.000 C 
BRANCH  16  17
ATOM     17  C   UNL     1       1.616   7.857  20.290  0.00  0.00    +0.000 C 
BRANCH  17  18
ATOM     18  N   UNL     1       2.480   7.393  19.182  0.00  0.00    +0.000 N 
ATOM     19  H   UNL     1       1.976   7.551  18.306  0.00  0.00    +0.000 HD
BRANCH  18  20
ATOM     20  C   UNL     1       2.979   6.069  19.153  0.00  0.00    +0.000 A 
ATOM     21  C   UNL     1       2.588   5.121  20.092  0.00  0.00    +0.000 A 
ATOM     22  C   UNL     1       3.162   3.867  20.022  0.00  0.00    +0.000 A 
ATOM     23  N   UNL     1       3.792   3.381  18.936  0.00  0.00    +0.000 NA
ATOM     24  C   UNL     1       4.074   4.243  17.956  0.00  0.00    +0.000 A 
ATOM     25  C   UNL     1       4.715   3.714  16.850  0.00  0.00    +0.000 A 
ATOM     26  C   UNL     1       5.300   4.553  15.916  0.00  0.00    +0.000 A 
ATOM     27 CL   UNL     1       6.226   3.877  14.634  0.00  0.00    +0.000 Cl
ATOM     28  C   UNL     1       5.198   5.931  16.067  0.00  0.00    +0.000 A 
ATOM     29  C   UNL     1       4.417   6.464  17.104  0.00  0.00    +0.000 A 
ATOM     30  C   UNL     1       3.797   5.625  18.060  0.00  0.00    +0.000 A 
ENDBRANCH  18  20
ENDBRANCH  17  18
ENDBRANCH  16  17
ENDBRANCH   1  16
TORSDOF 5
ENDMDL
