MODEL 1
REMARK VINA RESULT:      -8.2      0.000      0.000
REMARK  Name = 
REMARK  8 active torsions:
REMARK  status: ('A' for Active; 'I' for Inactive)
REMARK    1  A    between atoms: C_1  and  C_2
REMARK    2  A    between atoms: C_5  and  C_6
REMARK    3  A    between atoms: N_7  and  O_8
REMARK    4  A    between atoms: C_14  and  O_15
REMARK    5  A    between atoms: O_15  and  C_16
REMARK    6  A    between atoms: C_20  and  C_21
REMARK    7  A    between atoms: C_21  and  C_22
REMARK    8  A    between atoms: C_21  and  C_23
REMARK                            x       y       z     vdW  Elec       q    Type
REMARK                         _______ _______ _______ _____ _____    ______ ____
ROOT
ATOM      1  C   UNL     1       7.606   7.409  17.371  0.00  0.00    +0.000 C 
ATOM      2  C   UNL     1       6.549   6.465  17.855  0.00  0.00    +0.000 A 
ATOM      3  C   UNL     1       6.871   5.267  18.472  0.00  0.00    +0.000 A 
ATOM      4  C   UNL     1       5.839   4.384  18.780  0.00  0.00    +0.000 A 
ATOM      5  C   UNL     1       4.509   4.708  18.480  0.00  0.00    +0.000 A 
ATOM      6  C   UNL     1       4.272   5.964  17.930  0.00  0.00    +0.000 A 
ATOM      7  N   UNL     1       5.276   6.825  17.604  0.00  0.00    +0.000 NA
ENDROOT
BRANCH   5   8
ATOM      8  C   UNL     1       3.490   3.603  18.613  0.00  0.00    +0.000 C 
ATOM      9  N   UNL     1       3.394   2.859  17.537  0.00  0.00    +0.000 NA
ATOM     10  N   UNL     1       2.725   3.380  19.788  0.00  0.00    +0.000 N 
ATOM     11  C   UNL     1       1.505   2.732  19.925  0.00  0.00    +0.000 A 
ATOM     12  C   UNL     1       1.186   2.763  21.253  0.00  0.00    +0.000 A 
ATOM     13  N   UNL     1       2.150   3.414  21.961  0.00  0.00    +0.000 NA
ATOM     14  C   UNL     1       3.048   3.775  21.071  0.00  0.00    +0.000 A 
BRANCH   9  15
ATOM     15  O   UNL     1       2.609   1.713  17.659  0.00  0.00    +0.000 OA
ATOM     16  H   UNL     1       2.364   1.518  16.736  0.00  0.00    +0.000 HD
ENDBRANCH   9  15
ENDBRANCH   5   8
BRANCH   6  17
ATOM     17  O   UNL     1       2.986   6.364  17.609  0.00  0.00    +0.000 OA
BRANCH  17  18
ATOM     18  C   UNL     1       2.445   7.436  18.304  0.00  0.00    +0.000 A 
ATOM     19  C   UNL     1       2.116   8.563  17.550  0.00  0.00    +0.000 A 
ATOM     20  C   UNL     1       1.466   9.645  18.153  0.00  0.00    +0.000 A 
ATOM     21  C   UNL     1       1.108   9.586  19.502  0.00  0.00    +0.000 A 
ATOM     22  C   UNL     1       1.407   8.455  20.275  0.00  0.00    +0.000 A 
ATOM     23  C   UNL     1       2.107   7.395  19.665  0.00  0.00    +0.000 A 
BRANCH  22  24
ATOM     24  C   UNL     1       0.886   8.356  21.702  0.00  0.00    +0.000 C 
ATOM     25  C   UNL     1       1.622   9.342  22.616  0.00  0.00    +0.000 C 
ATOM     26  C   UNL     1      -0.626   8.555  21.816  0.00  0.00    +0.000 C 
ENDBRANCH  22  24
ENDBRANCH  17  18
ENDBRANCH   6  17
TORSDOF 5
ENDMDL
MODEL 2
REMARK VINA RESULT:      -8.1      1.932      4.393
REMARK  Name = 
REMARK  8 active torsions:
REMARK  status: ('A' for Active; 'I' for Inactive)
REMARK    1  A    between atoms: C_1  and  C_2
REMARK    2  A    between atoms: C_5  and  C_6
REMARK    3  A    between atoms: N_7  and  O_8
REMARK    4  A    between atoms: C_14  and  O_15
REMARK    5  A    between atoms: O_15  and  C_16
REMARK    6  A    between atoms: C_20  and  C_21
REMARK    7  A    between atoms: C_21  and  C_22
REMARK    8  A    between atoms: C_21  and  C_23
REMARK                            x       y       z     vdW  Elec       q    Type
REMARK                         _______ _______ _______ _____ _____    ______ ____
ROOT
ATOM      1  C   UNL     1       1.042   2.962  21.115  0.00  0.00    +0.000 C 
ATOM      2  C   UNL     1       2.256   3.236  20.282  0.00  0.00    +0.000 A 
ATOM      3  C   UNL     1       3.416   2.491  20.421  0.00  0.00    +0.000 A 
ATOM      4  C   UNL     1       4.543   2.885  19.704  0.00  0.00    +0.000 A 
ATOM      5  C   UNL     1       4.497   4.001  18.858  0.00  0.00    +0.000 A 
ATOM      6  C   UNL     1       3.270   4.643  18.722  0.00  0.00    +0.000 A 
ATOM      7  N   UNL     1       2.168   4.280  19.436  0.00  0.00    +0.000 NA
ENDROOT
BRANCH   5   8
ATOM      8  C   UNL     1       5.814   4.506  18.320  0.00  0.00    +0.000 C 
ATOM      9  N   UNL     1       6.628   4.924  19.260  0.00  0.00    +0.000 NA
ATOM     10  N   UNL     1       6.145   4.512  16.940  0.00  0.00    +0.000 N 
ATOM     11  C   UNL     1       7.072   5.298  16.269  0.00  0.00    +0.000 A 
ATOM     12  C   UNL     1       7.035   4.922  14.955  0.00  0.00    +0.000 A 
ATOM     13  N   UNL     1       6.114   3.936  14.767  0.00  0.00    +0.000 NA
ATOM     14  C   UNL     1       5.597   3.715  15.955  0.00  0.00    +0.000 A 
BRANCH   9  15
ATOM     15  O   UNL     1       7.926   5.227  18.849  0.00  0.00    +0.000 OA
ATOM     16  H   UNL     1       7.784   5.667  17.991  0.00  0.00    +0.000 HD
ENDBRANCH   9  15
ENDBRANCH   5   8
BRANCH   6  17
ATOM     17  O   UNL     1       3.138   5.750  17.902  0.00  0.00    +0.000 OA
BRANCH  17  18
ATOM     18  C   UNL     1       2.638   6.918  18.459  0.00  0.00    +0.000 A 
ATOM     19  C   UNL     1       2.440   7.988  17.586  0.00  0.00    +0.000 A 
ATOM     20  C   UNL     1       1.838   9.164  18.045  0.00  0.00    +0.000 A 
ATOM     21  C   UNL     1       1.396   9.259  19.366  0.00  0.00    +0.000 A 
ATOM     22  C   UNL     1       1.563   8.188  20.256  0.00  0.00    +0.000 A 
ATOM     23  C   UNL     1       2.217   7.029  19.793  0.00  0.00    +0.000 A 
BRANCH  22  24
ATOM     24  C   UNL     1       0.951   8.261  21.648  0.00  0.00    +0.000 C 
ATOM     25  C   UNL     1       1.608   9.376  22.470  0.00  0.00    +0.000 C 
ATOM     26  C   UNL     1      -0.568   8.434  21.641  0.00  0.00    +0.000 C 
ENDBRANCH  22  24
ENDBRANCH  17  18
ENDBRANCH   6  17
TORSDOF 5
ENDMDL
MODEL 3
REMARK VINA RESULT:      -8.1      1.869      4.216
REMARK  Name = 
REMARK  8 active torsions:
REMARK  status: ('A' for Active; 'I' for Inactive)
REMARK    1  A    between atoms: C_1  and  C_2
REMARK    2  A    between atoms: C_5  and  C_6
REMARK    3  A    between atoms: N_7  and  O_8
REMARK    4  A    between atoms: C_14  and  O_15
REMARK    5  A    between atoms: O_15  and  C_16
REMARK    6  A    between atoms: C_20  and  C_21
REMARK    7  A    between atoms: C_21  and  C_22
REMARK    8  A    between atoms: C_21  and  C_23
REMARK                            x       y       z     vdW  Elec       q    Type
REMARK                         _______ _______ _______ _____ _____    ______ ____
ROOT
ATOM      1  C   UNL     1       0.445   2.562  19.082  0.00  0.00    +0.000 C 
ATOM      2  C   UNL     1       1.524   3.438  18.524  0.00  0.00    +0.000 A 
ATOM      3  C   UNL     1       2.229   3.084  17.384  0.00  0.00    +0.000 A 
ATOM      4  C   UNL     1       3.302   3.884  16.997  0.00  0.00    +0.000 A 
ATOM      5  C   UNL     1       3.649   5.021  17.740  0.00  0.00    +0.000 A 
ATOM      6  C   UNL     1       2.839   5.341  18.825  0.00  0.00    +0.000 A 
ATOM      7  N   UNL     1       1.801   4.554  19.225  0.00  0.00    +0.000 NA
ENDROOT
BRANCH   5   8
ATOM      8  C   UNL     1       4.963   5.682  17.403  0.00  0.00    +0.000 C 
ATOM      9  N   UNL     1       4.921   6.377  16.291  0.00  0.00    +0.000 NA
ATOM     10  N   UNL     1       6.123   5.578  18.215  0.00  0.00    +0.000 N 
ATOM     11  C   UNL     1       7.455   5.740  17.859  0.00  0.00    +0.000 A 
ATOM     12  C   UNL     1       8.195   5.554  18.993  0.00  0.00    +0.000 A 
ATOM     13  N   UNL     1       7.385   5.269  20.050  0.00  0.00    +0.000 NA
ATOM     14  C   UNL     1       6.164   5.284  19.563  0.00  0.00    +0.000 A 
BRANCH   9  15
ATOM     15  O   UNL     1       6.042   7.161  16.021  0.00  0.00    +0.000 OA
ATOM     16  H   UNL     1       6.687   6.510  15.688  0.00  0.00    +0.000 HD
ENDBRANCH   9  15
ENDBRANCH   5   8
BRANCH   6  17
ATOM     17  O   UNL     1       3.109   6.451  19.607  0.00  0.00    +0.000 OA
BRANCH  17  18
ATOM     18  C   UNL     1       2.323   7.580  19.429  0.00  0.00    +0.000 A 
ATOM     19  C   UNL     1       2.176   8.037  18.119  0.00  0.00    +0.000 A 
ATOM     20  C   UNL     1       1.314   9.101  17.840  0.00  0.00    +0.000 A 
ATOM     21  C   UNL     1       0.565   9.686  18.864  0.00  0.00    +0.000 A 
ATOM     22  C   UNL     1       0.677   9.229  20.185  0.00  0.00    +0.000 A 
ATOM     23  C   UNL     1       1.588   8.190  20.458  0.00  0.00    +0.000 A 
BRANCH  22  24
ATOM     24  C   UNL     1      -0.248   9.786  21.258  0.00  0.00    +0.000 C 
ATOM     25  C   UNL     1       0.181   9.301  22.648  0.00  0.00    +0.000 C 
ATOM     26  C   UNL     1      -0.357  11.311  21.240  0.00  0.00    +0.000 C 
ENDBRANCH  22  24
ENDBRANCH  17  18
ENDBRANCH   6  17
TORSDOF 5
ENDMDL
MODEL 4
REMARK VINA RESULT:      -7.9      0.817      1.921
REMARK  Name = 
REMARK  8 active torsions:
REMARK  status: ('A' for Active; 'I' for Inactive)
REMARK    1  A    between atoms: C_1  and  C_2
REMARK    2  A    between atoms: C_5  and  C_6
REMARK    3  A    between atoms: N_7  and  O_8
REMARK    4  A    between atoms: C_14  and  O_15
REMARK    5  A    between atoms: O_15  and  C_16
REMARK    6  A    between atoms: C_20  and  C_21
REMARK    7  A    between atoms: C_21  and  C_22
REMARK    8  A    between atoms: C_21  and  C_23
REMARK                            x       y       z     vdW  Elec       q    Type
REMARK                         _______ _______ _______ _____ _____    ______ ____
ROOT
ATOM      1  C   UNL     1       7.522   7.451  17.373  0.00  0.00    +0.000 C 
ATOM      2  C   UNL     1       6.473   6.497  17.854  0.00  0.00    +0.000 A 
ATOM      3  C   UNL     1       6.806   5.314  18.494  0.00  0.00    +0.000 A 
ATOM      4  C   UNL     1       5.784   4.418  18.800  0.00  0.00    +0.000 A 
ATOM      5  C   UNL     1       4.453   4.715  18.475  0.00  0.00    +0.000 A 
ATOM      6  C   UNL     1       4.204   5.958  17.903  0.00  0.00    +0.000 A 
ATOM      7  N   UNL     1       5.198   6.832  17.579  0.00  0.00    +0.000 NA
ENDROOT
BRANCH   5   8
ATOM      8  C   UNL     1       3.451   3.595  18.608  0.00  0.00    +0.000 C 
ATOM      9  N   UNL     1       3.341   2.869  17.521  0.00  0.00    +0.000 NA
ATOM     10  N   UNL     1       2.714   3.341  19.794  0.00  0.00    +0.000 N 
ATOM     11  C   UNL     1       1.505   2.675  19.945  0.00  0.00    +0.000 A 
ATOM     12  C   UNL     1       1.214   2.678  21.280  0.00  0.00    +0.000 A 
ATOM     13  N   UNL     1       2.185   3.328  21.980  0.00  0.00    +0.000 NA
ATOM     14  C   UNL     1       3.059   3.716  21.078  0.00  0.00    +0.000 A 
BRANCH   9  15
ATOM     15  O   UNL     1       2.573   1.711  17.638  0.00  0.00    +0.000 OA
ATOM     16  H   UNL     1       2.468   1.618  18.603  0.00  0.00    +0.000 HD
ENDBRANCH   9  15
ENDBRANCH   5   8
BRANCH   6  17
ATOM     17  O   UNL     1       2.917   6.332  17.557  0.00  0.00    +0.000 OA
BRANCH  17  18
ATOM     18  C   UNL     1       2.268   7.257  18.363  0.00  0.00    +0.000 A 
ATOM     19  C   UNL     1       2.210   6.962  19.725  0.00  0.00    +0.000 A 
ATOM     20  C   UNL     1       1.672   7.891  20.621  0.00  0.00    +0.000 A 
ATOM     21  C   UNL     1       1.227   9.133  20.163  0.00  0.00    +0.000 A 
ATOM     22  C   UNL     1       1.296   9.461  18.801  0.00  0.00    +0.000 A 
ATOM     23  C   UNL     1       1.794   8.496  17.905  0.00  0.00    +0.000 A 
BRANCH  22  24
ATOM     24  C   UNL     1       0.935  10.868  18.344  0.00  0.00    +0.000 C 
ATOM     25  C   UNL     1      -0.346  11.350  19.035  0.00  0.00    +0.000 C 
ATOM     26  C   UNL     1       2.060  11.885  18.547  0.00  0.00    +0.000 C 
ENDBRANCH  22  24
ENDBRANCH  17  18
ENDBRANCH   6  17
TORSDOF 5
ENDMDL
MODEL 5
REMARK VINA RESULT:      -7.8      2.177      4.613
REMARK  Name = 
REMARK  8 active torsions:
REMARK  status: ('A' for Active; 'I' for Inactive)
REMARK    1  A    between atoms: C_1  and  C_2
REMARK    2  A    between atoms: C_5  and  C_6
REMARK    3  A    between atoms: N_7  and  O_8
REMARK    4  A    between atoms: C_14  and  O_15
REMARK    5  A    between atoms: O_15  and  C_16
REMARK    6  A    between atoms: C_20  and  C_21
REMARK    7  A    between atoms: C_21  and  C_22
REMARK    8  A    between atoms: C_21  and  C_23
REMARK                            x       y       z     vdW  Elec       q    Type
REMARK                         _______ _______ _______ _____ _____    ______ ____
ROOT
ATOM      1  C   UNL     1       0.377   2.528  19.513  0.00  0.00    +0.000 C 
ATOM      2  C   UNL     1       1.640   3.044  18.895  0.00  0.00    +0.000 A 
ATOM      3  C   UNL     1       2.326   2.320  17.933  0.00  0.00    +0.000 A 
ATOM      4  C   UNL     1       3.557   2.804  17.496  0.00  0.00    +0.000 A 
ATOM      5  C   UNL     1       4.079   3.998  18.013  0.00  0.00    +0.000 A 
ATOM      6  C   UNL     1       3.287   4.696  18.919  0.00  0.00    +0.000 A 
ATOM      7  N   UNL     1       2.092   4.221  19.369  0.00  0.00    +0.000 NA
ENDROOT
BRANCH   5   8
ATOM      8  C   UNL     1       5.516   4.316  17.680  0.00  0.00    +0.000 C 
ATOM      9  N   UNL     1       6.283   4.409  18.740  0.00  0.00    +0.000 NA
ATOM     10  N   UNL     1       5.994   4.481  16.353  0.00  0.00    +0.000 N 
ATOM     11  C   UNL     1       7.114   5.170  15.909  0.00  0.00    +0.000 A 
ATOM     12  C   UNL     1       7.156   5.027  14.551  0.00  0.00    +0.000 A 
ATOM     13  N   UNL     1       6.101   4.283  14.116  0.00  0.00    +0.000 NA
ATOM     14  C   UNL     1       5.425   3.977  15.201  0.00  0.00    +0.000 A 
BRANCH   9  15
ATOM     15  O   UNL     1       7.651   4.516  18.493  0.00  0.00    +0.000 OA
ATOM     16  H   UNL     1       7.830   5.458  18.669  0.00  0.00    +0.000 HD
ENDBRANCH   9  15
ENDBRANCH   5   8
BRANCH   6  17
ATOM     17  O   UNL     1       3.726   5.886  19.472  0.00  0.00    +0.000 OA
BRANCH  17  18
ATOM     18  C   UNL     1       2.952   7.021  19.276  0.00  0.00    +0.000 A 
ATOM     19  C   UNL     1       2.934   7.545  17.983  0.00  0.00    +0.000 A 
ATOM     20  C   UNL     1       2.095   8.621  17.674  0.00  0.00    +0.000 A 
ATOM     21  C   UNL     1       1.243   9.149  18.646  0.00  0.00    +0.000 A 
ATOM     22  C   UNL     1       1.226   8.623  19.947  0.00  0.00    +0.000 A 
ATOM     23  C   UNL     1       2.113   7.573  20.255  0.00  0.00    +0.000 A 
BRANCH  22  24
ATOM     24  C   UNL     1       0.193   9.120  20.948  0.00  0.00    +0.000 C 
ATOM     25  C   UNL     1       0.798   9.204  22.354  0.00  0.00    +0.000 C 
ATOM     26  C   UNL     1      -0.438  10.459  20.563  0.00  0.00    +0.000 C 
ENDBRANCH  22  24
ENDBRANCH  17  18
ENDBRANCH   6  17
TORSDOF 5
ENDMDL
MODEL 6
REMARK VINA RESULT:      -7.6      2.218      4.898
REMARK  Name = 
REMARK  8 active torsions:
REMARK  status: ('A' for Active; 'I' for Inactive)
REMARK    1  A    between atoms: C_1  and  C_2
REMARK    2  A    between atoms: C_5  and  C_6
REMARK    3  A    between atoms: N_7  and  O_8
REMARK    4  A    between atoms: C_14  and  O_15
REMARK    5  A    between atoms: O_15  and  C_16
REMARK    6  A    between atoms: C_20  and  C_21
REMARK    7  A    between atoms: C_21  and  C_22
REMARK    8  A    between atoms: C_21  and  C_23
REMARK                            x       y       z     vdW  Elec       q    Type
REMARK                         _______ _______ _______ _____ _____    ______ ____
ROOT
ATOM      1  C   UNL     1       0.451   2.908  19.802  0.00  0.00    +0.000 C 
ATOM      2  C   UNL     1       1.730   3.215  19.087  0.00  0.00    +0.000 A 
ATOM      3  C   UNL     1       2.668   2.230  18.822  0.00  0.00    +0.000 A 
ATOM      4  C   UNL     1       3.887   2.613  18.267  0.00  0.00    +0.000 A 
ATOM      5  C   UNL     1       4.149   3.959  17.977  0.00  0.00    +0.000 A 
ATOM      6  C   UNL     1       3.121   4.867  18.206  0.00  0.00    +0.000 A 
ATOM      7  N   UNL     1       1.933   4.508  18.769  0.00  0.00    +0.000 NA
ENDROOT
BRANCH   5   8
ATOM      8  C   UNL     1       5.570   4.317  17.619  0.00  0.00    +0.000 C 
ATOM      9  N   UNL     1       6.345   4.464  18.668  0.00  0.00    +0.000 NA
ATOM     10  N   UNL     1       6.029   4.463  16.284  0.00  0.00    +0.000 N 
ATOM     11  C   UNL     1       7.120   5.177  15.809  0.00  0.00    +0.000 A 
ATOM     12  C   UNL     1       7.153   4.999  14.454  0.00  0.00    +0.000 A 
ATOM     13  N   UNL     1       6.118   4.209  14.051  0.00  0.00    +0.000 NA
ATOM     14  C   UNL     1       5.465   3.909  15.151  0.00  0.00    +0.000 A 
BRANCH   9  15
ATOM     15  O   UNL     1       7.706   4.610  18.402  0.00  0.00    +0.000 OA
ATOM     16  H   UNL     1       8.047   5.005  19.226  0.00  0.00    +0.000 HD
ENDBRANCH   9  15
ENDBRANCH   5   8
BRANCH   6  17
ATOM     17  O   UNL     1       3.295   6.215  17.941  0.00  0.00    +0.000 OA
BRANCH  17  18
ATOM     18  C   UNL     1       2.497   7.122  18.623  0.00  0.00    +0.000 A 
ATOM     19  C   UNL     1       2.353   6.915  19.995  0.00  0.00    +0.000 A 
ATOM     20  C   UNL     1       1.656   7.843  20.775  0.00  0.00    +0.000 A 
ATOM     21  C   UNL     1       1.136   9.001  20.192  0.00  0.00    +0.000 A 
ATOM     22  C   UNL     1       1.288   9.242  18.818  0.00  0.00    +0.000 A 
ATOM     23  C   UNL     1       1.948   8.273  18.038  0.00  0.00    +0.000 A 
BRANCH  22  24
ATOM     24  C   UNL     1       0.836  10.572  18.231  0.00  0.00    +0.000 C 
ATOM     25  C   UNL     1      -0.685  10.728  18.351  0.00  0.00    +0.000 C 
ATOM     26  C   UNL     1       1.541  11.783  18.844  0.00  0.00    +0.000 C 
ENDBRANCH  22  24
ENDBRANCH  17  18
ENDBRANCH   6  17
TORSDOF 5
ENDMDL
MODEL 7
REMARK VINA RESULT:      -7.6      1.457      1.689
REMARK  Name = 
REMARK  8 active torsions:
REMARK  status: ('A' for Active; 'I' for Inactive)
REMARK    1  A    between atoms: C_1  and  C_2
REMARK    2  A    between atoms: C_5  and  C_6
REMARK    3  A    between atoms: N_7  and  O_8
REMARK    4  A    between atoms: C_14  and  O_15
REMARK    5  A    between atoms: O_15  and  C_16
REMARK    6  A    between atoms: C_20  and  C_21
REMARK    7  A    between atoms: C_21  and  C_22
REMARK    8  A    between atoms: C_21  and  C_23
REMARK                            x       y       z     vdW  Elec       q    Type
REMARK                         _______ _______ _______ _____ _____    ______ ____
ROOT
ATOM      1  C   UNL     1       6.096   6.579  15.759  0.00  0.00    +0.000 C 
ATOM      2  C   UNL     1       5.194   5.712  16.582  0.00  0.00    +0.000 A 
ATOM      3  C   UNL     1       4.869   4.424  16.190  0.00  0.00    +0.000 A 
ATOM      4  C   UNL     1       3.926   3.723  16.939  0.00  0.00    +0.000 A 
ATOM      5  C   UNL     1       3.330   4.309  18.064  0.00  0.00    +0.000 A 
ATOM      6  C   UNL     1       3.773   5.577  18.427  0.00  0.00    +0.000 A 
ATOM      7  N   UNL     1       4.678   6.279  17.689  0.00  0.00    +0.000 NA
ENDROOT
BRANCH   5   8
ATOM      8  C   UNL     1       2.147   3.590  18.664  0.00  0.00    +0.000 C 
ATOM      9  N   UNL     1       1.170   3.403  17.809  0.00  0.00    +0.000 NA
ATOM     10  N   UNL     1       2.102   3.144  20.011  0.00  0.00    +0.000 N 
ATOM     11  C   UNL     1       0.995   2.878  20.805  0.00  0.00    +0.000 A 
ATOM     12  C   UNL     1       1.467   2.463  22.019  0.00  0.00    +0.000 A 
ATOM     13  N   UNL     1       2.829   2.466  22.028  0.00  0.00    +0.000 NA
ATOM     14  C   UNL     1       3.181   2.878  20.830  0.00  0.00    +0.000 A 
BRANCH   9  15
ATOM     15  O   UNL     1       0.129   2.584  18.245  0.00  0.00    +0.000 OA
ATOM     16  H   UNL     1       0.158   1.842  17.613  0.00  0.00    +0.000 HD
ENDBRANCH   9  15
ENDBRANCH   5   8
BRANCH   6  17
ATOM     17  O   UNL     1       3.241   6.223  19.529  0.00  0.00    +0.000 OA
BRANCH  17  18
ATOM     18  C   UNL     1       2.514   7.386  19.315  0.00  0.00    +0.000 A 
ATOM     19  C   UNL     1       2.438   7.838  17.998  0.00  0.00    +0.000 A 
ATOM     20  C   UNL     1       1.636   8.938  17.679  0.00  0.00    +0.000 A 
ATOM     21  C   UNL     1       0.877   9.565  18.670  0.00  0.00    +0.000 A 
ATOM     22  C   UNL     1       0.919   9.114  19.997  0.00  0.00    +0.000 A 
ATOM     23  C   UNL     1       1.770   8.037  20.311  0.00  0.00    +0.000 A 
BRANCH  22  24
ATOM     24  C   UNL     1      -0.020   9.722  21.031  0.00  0.00    +0.000 C 
ATOM     25  C   UNL     1       0.187   9.066  22.402  0.00  0.00    +0.000 C 
ATOM     26  C   UNL     1       0.100  11.242  21.148  0.00  0.00    +0.000 C 
ENDBRANCH  22  24
ENDBRANCH  17  18
ENDBRANCH   6  17
TORSDOF 5
ENDMDL
MODEL 8
REMARK VINA RESULT:      -7.5      1.777      4.607
REMARK  Name = 
REMARK  8 active torsions:
REMARK  status: ('A' for Active; 'I' for Inactive)
REMARK    1  A    between atoms: C_1  and  C_2
REMARK    2  A    between atoms: C_5  and  C_6
REMARK    3  A    between atoms: N_7  and  O_8
REMARK    4  A    between atoms: C_14  and  O_15
REMARK    5  A    between atoms: O_15  and  C_16
REMARK    6  A    between atoms: C_20  and  C_21
REMARK    7  A    between atoms: C_21  and  C_22
REMARK    8  A    between atoms: C_21  and  C_23
REMARK                            x       y       z     vdW  Elec       q    Type
REMARK                         _______ _______ _______ _____ _____    ______ ____
ROOT
ATOM      1  C   UNL     1       0.493   2.135  18.795  0.00  0.00    +0.000 C 
ATOM      2  C   UNL     1       1.747   2.941  18.652  0.00  0.00    +0.000 A 
ATOM      3  C   UNL     1       2.802   2.509  17.866  0.00  0.00    +0.000 A 
ATOM      4  C   UNL     1       3.983   3.248  17.881  0.00  0.00    +0.000 A 
ATOM      5  C   UNL     1       4.092   4.404  18.667  0.00  0.00    +0.000 A 
ATOM      6  C   UNL     1       2.957   4.804  19.365  0.00  0.00    +0.000 A 
ATOM      7  N   UNL     1       1.804   4.076  19.374  0.00  0.00    +0.000 NA
ENDROOT
BRANCH   5   8
ATOM      8  C   UNL     1       5.470   4.997  18.822  0.00  0.00    +0.000 C 
ATOM      9  N   UNL     1       6.004   4.759  19.997  0.00  0.00    +0.000 NA
ATOM     10  N   UNL     1       6.130   5.724  17.798  0.00  0.00    +0.000 N 
ATOM     11  C   UNL     1       7.149   6.661  17.910  0.00  0.00    +0.000 A 
ATOM     12  C   UNL     1       7.456   7.067  16.642  0.00  0.00    +0.000 A 
ATOM     13  N   UNL     1       6.666   6.432  15.732  0.00  0.00    +0.000 NA
ATOM     14  C   UNL     1       5.886   5.647  16.441  0.00  0.00    +0.000 A 
BRANCH   9  15
ATOM     15  O   UNL     1       7.344   5.117  20.139  0.00  0.00    +0.000 OA
ATOM     16  H   UNL     1       7.815   4.340  19.786  0.00  0.00    +0.000 HD
ENDBRANCH   9  15
ENDBRANCH   5   8
BRANCH   6  17
ATOM     17  O   UNL     1       2.978   5.937  20.159  0.00  0.00    +0.000 OA
BRANCH  17  18
ATOM     18  C   UNL     1       2.495   7.121  19.619  0.00  0.00    +0.000 A 
ATOM     19  C   UNL     1       2.684   7.302  18.249  0.00  0.00    +0.000 A 
ATOM     20  C   UNL     1       2.133   8.415  17.607  0.00  0.00    +0.000 A 
ATOM     21  C   UNL     1       1.356   9.328  18.324  0.00  0.00    +0.000 A 
ATOM     22  C   UNL     1       1.132   9.154  19.698  0.00  0.00    +0.000 A 
ATOM     23  C   UNL     1       1.737   8.056  20.340  0.00  0.00    +0.000 A 
BRANCH  22  24
ATOM     24  C   UNL     1       0.172  10.082  20.429  0.00  0.00    +0.000 C 
ATOM     25  C   UNL     1      -0.993  10.484  19.516  0.00  0.00    +0.000 C 
ATOM     26  C   UNL     1      -0.359   9.502  21.741  0.00  0.00    +0.000 C 
ENDBRANCH  22  24
ENDBRANCH  17  18
ENDBRANCH   6  17
TORSDOF 5
ENDMDL
MODEL 9
REMARK VINA RESULT:      -7.5      2.003      4.409
REMARK  Name = 
REMARK  8 active torsions:
REMARK  status: ('A' for Active; 'I' for Inactive)
REMARK    1  A    between atoms: C_1  and  C_2
REMARK    2  A    between atoms: C_5  and  C_6
REMARK    3  A    between atoms: N_7  and  O_8
REMARK    4  A    between atoms: C_14  and  O_15
REMARK    5  A    between atoms: O_15  and  C_16
REMARK    6  A    between atoms: C_20  and  C_21
REMARK    7  A    between atoms: C_21  and  C_22
REMARK    8  A    between atoms: C_21  and  C_23
REMARK                            x       y       z     vdW  Elec       q    Type
REMARK                         _______ _______ _______ _____ _____    ______ ____
ROOT
ATOM      1  C   UNL     1       0.345   2.709  19.315  0.00  0.00    +0.000 C 
ATOM      2  C   UNL     1       1.588   3.081  18.568  0.00  0.00    +0.000 A 
ATOM      3  C   UNL     1       2.485   2.120  18.128  0.00  0.00    +0.000 A 
ATOM      4  C   UNL     1       3.679   2.547  17.552  0.00  0.00    +0.000 A 
ATOM      5  C   UNL     1       3.958   3.914  17.415  0.00  0.00    +0.000 A 
ATOM      6  C   UNL     1       2.967   4.805  17.815  0.00  0.00    +0.000 A 
ATOM      7  N   UNL     1       1.805   4.399  18.400  0.00  0.00    +0.000 NA
ENDROOT
BRANCH   5   8
ATOM      8  C   UNL     1       5.365   4.289  17.019  0.00  0.00    +0.000 C 
ATOM      9  N   UNL     1       5.578   4.198  15.728  0.00  0.00    +0.000 NA
ATOM     10  N   UNL     1       6.353   4.713  17.946  0.00  0.00    +0.000 N 
ATOM     11  C   UNL     1       7.735   4.674  17.827  0.00  0.00    +0.000 A 
ATOM     12  C   UNL     1       8.249   5.208  18.975  0.00  0.00    +0.000 A 
ATOM     13  N   UNL     1       7.246   5.576  19.821  0.00  0.00    +0.000 NA
ATOM     14  C   UNL     1       6.134   5.268  19.191  0.00  0.00    +0.000 A 
BRANCH   9  15
ATOM     15  O   UNL     1       6.795   4.706  15.276  0.00  0.00    +0.000 OA
ATOM     16  H   UNL     1       7.225   5.003  16.099  0.00  0.00    +0.000 HD
ENDBRANCH   9  15
ENDBRANCH   5   8
BRANCH   6  17
ATOM     17  O   UNL     1       3.160   6.172  17.708  0.00  0.00    +0.000 OA
BRANCH  17  18
ATOM     18  C   UNL     1       2.427   7.001  18.546  0.00  0.00    +0.000 A 
ATOM     19  C   UNL     1       2.384   6.641  19.894  0.00  0.00    +0.000 A 
ATOM     20  C   UNL     1       1.761   7.480  20.823  0.00  0.00    +0.000 A 
ATOM     21  C   UNL     1       1.215   8.699  20.415  0.00  0.00    +0.000 A 
ATOM     22  C   UNL     1       1.267   9.092  19.070  0.00  0.00    +0.000 A 
ATOM     23  C   UNL     1       1.853   8.214  18.138  0.00  0.00    +0.000 A 
BRANCH  22  24
ATOM     24  C   UNL     1       0.790  10.483  18.671  0.00  0.00    +0.000 C 
ATOM     25  C   UNL     1      -0.099  11.084  19.766  0.00  0.00    +0.000 C 
ATOM     26  C   UNL     1       1.928  11.444  18.327  0.00  0.00    +0.000 C 
ENDBRANCH  22  24
ENDBRANCH  17  18
ENDBRANCH   6  17
TORSDOF 5
ENDMDL
