MODEL 1
REMARK VINA RESULT:      -7.2      0.000      0.000
REMARK  Name = 
REMARK  12 active torsions:
REMARK  status: ('A' for Active; 'I' for Inactive)
REMARK    1  A    between atoms: C_2  and  C_3
REMARK    2  A    between atoms: C_3  and  C_4
REMARK    3  A    between atoms: C_3  and  C_5
REMARK    4  A    between atoms: C_3  and  C_14
REMARK    5  A    between atoms: C_6  and  C_7
REMARK    6  A    between atoms: C_10  and  O_11
REMARK    7  A    between atoms: C_14  and  C_15
REMARK    8  A    between atoms: C_15  and  C_16
REMARK    9  A    between atoms: C_17  and  C_18
REMARK   10  A    between atoms: C_18  and  O_20
REMARK   11  A    between atoms: O_20  and  C_21
REMARK   12  A    between atoms: C_21  and  C_22
REMARK                            x       y       z     vdW  Elec       q    Type
REMARK                         _______ _______ _______ _____ _____    ______ ____
ROOT
ATOM      1  C   UNL     1       2.359   3.584  19.473  0.00  0.00    +0.000 C 
ATOM      2  C   UNL     1       1.357   2.614  18.792  0.00  0.00    +0.000 C 
ENDROOT
BRANCH   1   4
ATOM      3  C   UNL     1       1.595   2.584  21.732  0.00  0.00    +0.000 C 
ATOM      4  C   UNL     1       2.378   3.383  20.991  0.00  0.00    +0.000 C 
ENDBRANCH   1   4
BRANCH   1   5
ATOM      5  C   UNL     1       1.998   5.043  19.191  0.00  0.00    +0.000 C 
ATOM      6  C   UNL     1       2.627   6.143  19.650  0.00  0.00    +0.000 C 
BRANCH   6   7
ATOM      7  C   UNL     1       2.154   7.486  19.326  0.00  0.00    +0.000 A 
ATOM      8  C   UNL     1       1.461   8.232  20.288  0.00  0.00    +0.000 A 
ATOM      9  C   UNL     1       1.006   9.516  19.985  0.00  0.00    +0.000 A 
ATOM     10  C   UNL     1       1.244  10.046  18.721  0.00  0.00    +0.000 A 
ATOM     11  C   UNL     1       1.933   9.315  17.759  0.00  0.00    +0.000 A 
ATOM     12  C   UNL     1       2.387   8.031  18.060  0.00  0.00    +0.000 A 
BRANCH  10  13
ATOM     13  O   UNL     1       0.809  11.293  18.380  0.00  0.00    +0.000 OA
ATOM     14  H   UNL     1       0.326  11.233  17.541  0.00  0.00    +0.000 HD
ENDBRANCH  10  13
ENDBRANCH   6   7
ENDBRANCH   1   5
BRANCH   1  15
ATOM     15  C   UNL     1       3.773   3.268  18.876  0.00  0.00    +0.000 C 
BRANCH  15  16
ATOM     16  C   UNL     1       3.894   3.363  17.343  0.00  0.00    +0.000 C 
BRANCH  16  17
ATOM     17  C   UNL     1       4.791   4.484  16.904  0.00  0.00    +0.000 C 
ATOM     18  C   UNL     1       5.965   4.287  16.277  0.00  0.00    +0.000 C 
BRANCH  18  19
ATOM     19  C   UNL     1       6.779   5.438  15.844  0.00  0.00    +0.000 C 
ATOM     20  O   UNL     1       7.699   5.388  15.041  0.00  0.00    +0.000 OA
BRANCH  19  21
ATOM     21  O   UNL     1       6.402   6.509  16.584  0.00  0.00    +0.000 OA
BRANCH  21  22
ATOM     22  C   UNL     1       7.466   7.126  17.320  0.00  0.00    +0.000 C 
ATOM     23  C   UNL     1       7.695   6.300  18.573  0.00  0.00    +0.000 C 
ENDBRANCH  21  22
ENDBRANCH  19  21
ENDBRANCH  18  19
ENDBRANCH  16  17
ENDBRANCH  15  16
ENDBRANCH   1  15
TORSDOF 10
ENDMDL
MODEL 2
REMARK VINA RESULT:      -7.0      0.682      1.330
REMARK  Name = 
REMARK  12 active torsions:
REMARK  status: ('A' for Active; 'I' for Inactive)
REMARK    1  A    between atoms: C_2  and  C_3
REMARK    2  A    between atoms: C_3  and  C_4
REMARK    3  A    between atoms: C_3  and  C_5
REMARK    4  A    between atoms: C_3  and  C_14
REMARK    5  A    between atoms: C_6  and  C_7
REMARK    6  A    between atoms: C_10  and  O_11
REMARK    7  A    between atoms: C_14  and  C_15
REMARK    8  A    between atoms: C_15  and  C_16
REMARK    9  A    between atoms: C_17  and  C_18
REMARK   10  A    between atoms: C_18  and  O_20
REMARK   11  A    between atoms: O_20  and  C_21
REMARK   12  A    between atoms: C_21  and  C_22
REMARK                            x       y       z     vdW  Elec       q    Type
REMARK                         _______ _______ _______ _____ _____    ______ ____
ROOT
ATOM      1  C   UNL     1       2.439   3.588  19.420  0.00  0.00    +0.000 C 
ATOM      2  C   UNL     1       1.454   2.613  18.720  0.00  0.00    +0.000 C 
ENDROOT
BRANCH   1   4
ATOM      3  C   UNL     1       1.565   2.712  21.690  0.00  0.00    +0.000 C 
ATOM      4  C   UNL     1       2.468   3.352  20.932  0.00  0.00    +0.000 C 
ENDBRANCH   1   4
BRANCH   1   5
ATOM      5  C   UNL     1       2.046   5.045  19.173  0.00  0.00    +0.000 C 
ATOM      6  C   UNL     1       2.622   6.146  19.696  0.00  0.00    +0.000 C 
BRANCH   6   7
ATOM      7  C   UNL     1       2.123   7.485  19.399  0.00  0.00    +0.000 A 
ATOM      8  C   UNL     1       2.311   8.033  18.123  0.00  0.00    +0.000 A 
ATOM      9  C   UNL     1       1.837   9.312  17.831  0.00  0.00    +0.000 A 
ATOM     10  C   UNL     1       1.178  10.038  18.818  0.00  0.00    +0.000 A 
ATOM     11  C   UNL     1       0.982   9.504  20.087  0.00  0.00    +0.000 A 
ATOM     12  C   UNL     1       1.458   8.226  20.380  0.00  0.00    +0.000 A 
BRANCH  10  13
ATOM     13  O   UNL     1       0.706  11.295  18.579  0.00  0.00    +0.000 OA
ATOM     14  H   UNL     1       1.459  11.875  18.382  0.00  0.00    +0.000 HD
ENDBRANCH  10  13
ENDBRANCH   6   7
ENDBRANCH   1   5
BRANCH   1  15
ATOM     15  C   UNL     1       3.857   3.316  18.810  0.00  0.00    +0.000 C 
BRANCH  15  16
ATOM     16  C   UNL     1       3.890   2.967  17.310  0.00  0.00    +0.000 C 
BRANCH  16  17
ATOM     17  C   UNL     1       4.657   3.973  16.501  0.00  0.00    +0.000 C 
ATOM     18  C   UNL     1       4.780   5.265  16.856  0.00  0.00    +0.000 C 
BRANCH  18  19
ATOM     19  C   UNL     1       5.578   6.190  16.029  0.00  0.00    +0.000 C 
ATOM     20  O   UNL     1       5.190   6.732  15.006  0.00  0.00    +0.000 OA
BRANCH  19  21
ATOM     21  O   UNL     1       6.831   6.223  16.543  0.00  0.00    +0.000 OA
BRANCH  21  22
ATOM     22  C   UNL     1       6.893   6.558  17.936  0.00  0.00    +0.000 C 
ATOM     23  C   UNL     1       7.838   5.574  18.602  0.00  0.00    +0.000 C 
ENDBRANCH  21  22
ENDBRANCH  19  21
ENDBRANCH  18  19
ENDBRANCH  16  17
ENDBRANCH  15  16
ENDBRANCH   1  15
TORSDOF 10
ENDMDL
MODEL 3
REMARK VINA RESULT:      -6.9      1.051      1.191
REMARK  Name = 
REMARK  12 active torsions:
REMARK  status: ('A' for Active; 'I' for Inactive)
REMARK    1  A    between atoms: C_2  and  C_3
REMARK    2  A    between atoms: C_3  and  C_4
REMARK    3  A    between atoms: C_3  and  C_5
REMARK    4  A    between atoms: C_3  and  C_14
REMARK    5  A    between atoms: C_6  and  C_7
REMARK    6  A    between atoms: C_10  and  O_11
REMARK    7  A    between atoms: C_14  and  C_15
REMARK    8  A    between atoms: C_15  and  C_16
REMARK    9  A    between atoms: C_17  and  C_18
REMARK   10  A    between atoms: C_18  and  O_20
REMARK   11  A    between atoms: O_20  and  C_21
REMARK   12  A    between atoms: C_21  and  C_22
REMARK                            x       y       z     vdW  Elec       q    Type
REMARK                         _______ _______ _______ _____ _____    ______ ____
ROOT
ATOM      1  C   UNL     1       2.254   3.328  19.215  0.00  0.00    +0.000 C 
ATOM      2  C   UNL     1       0.941   2.513  19.071  0.00  0.00    +0.000 C 
ENDROOT
BRANCH   1   4
ATOM      3  C   UNL     1       2.205   2.827  21.751  0.00  0.00    +0.000 C 
ATOM      4  C   UNL     1       2.835   3.194  20.625  0.00  0.00    +0.000 C 
ENDBRANCH   1   4
BRANCH   1   5
ATOM      5  C   UNL     1       2.020   4.813  18.936  0.00  0.00    +0.000 C 
ATOM      6  C   UNL     1       2.529   5.861  19.613  0.00  0.00    +0.000 C 
BRANCH   6   7
ATOM      7  C   UNL     1       2.195   7.237  19.257  0.00  0.00    +0.000 A 
ATOM      8  C   UNL     1       1.499   8.044  20.167  0.00  0.00    +0.000 A 
ATOM      9  C   UNL     1       1.176   9.360  19.833  0.00  0.00    +0.000 A 
ATOM     10  C   UNL     1       1.549   9.861  18.590  0.00  0.00    +0.000 A 
ATOM     11  C   UNL     1       2.242   9.071  17.680  0.00  0.00    +0.000 A 
ATOM     12  C   UNL     1       2.564   7.754  18.012  0.00  0.00    +0.000 A 
BRANCH  10  13
ATOM     13  O   UNL     1       1.246  11.138  18.220  0.00  0.00    +0.000 OA
ATOM     14  H   UNL     1       1.267  11.702  19.010  0.00  0.00    +0.000 HD
ENDBRANCH  10  13
ENDBRANCH   6   7
ENDBRANCH   1   5
BRANCH   1  15
ATOM     15  C   UNL     1       3.265   2.749  18.166  0.00  0.00    +0.000 C 
BRANCH  15  16
ATOM     16  C   UNL     1       3.692   3.712  17.041  0.00  0.00    +0.000 C 
BRANCH  16  17
ATOM     17  C   UNL     1       5.176   3.935  17.007  0.00  0.00    +0.000 C 
ATOM     18  C   UNL     1       5.850   4.568  17.985  0.00  0.00    +0.000 C 
BRANCH  18  19
ATOM     19  C   UNL     1       7.314   4.722  17.900  0.00  0.00    +0.000 C 
ATOM     20  O   UNL     1       8.022   4.253  17.021  0.00  0.00    +0.000 OA
BRANCH  19  21
ATOM     21  O   UNL     1       7.726   5.362  19.021  0.00  0.00    +0.000 OA
BRANCH  21  22
ATOM     22  C   UNL     1       8.222   6.688  18.800  0.00  0.00    +0.000 C 
ATOM     23  C   UNL     1       7.462   7.271  17.622  0.00  0.00    +0.000 C 
ENDBRANCH  21  22
ENDBRANCH  19  21
ENDBRANCH  18  19
ENDBRANCH  16  17
ENDBRANCH  15  16
ENDBRANCH   1  15
TORSDOF 10
ENDMDL
MODEL 4
REMARK VINA RESULT:      -6.7      0.904      1.523
REMARK  Name = 
REMARK  12 active torsions:
REMARK  status: ('A' for Active; 'I' for Inactive)
REMARK    1  A    between atoms: C_2  and  C_3
REMARK    2  A    between atoms: C_3  and  C_4
REMARK    3  A    between atoms: C_3  and  C_5
REMARK    4  A    between atoms: C_3  and  C_14
REMARK    5  A    between atoms: C_6  and  C_7
REMARK    6  A    between atoms: C_10  and  O_11
REMARK    7  A    between atoms: C_14  and  C_15
REMARK    8  A    between atoms: C_15  and  C_16
REMARK    9  A    between atoms: C_17  and  C_18
REMARK   10  A    between atoms: C_18  and  O_20
REMARK   11  A    between atoms: O_20  and  C_21
REMARK   12  A    between atoms: C_21  and  C_22
REMARK                            x       y       z     vdW  Elec       q    Type
REMARK                         _______ _______ _______ _____ _____    ______ ____
ROOT
ATOM      1  C   UNL     1       2.103   3.563  18.847  0.00  0.00    +0.000 C 
ATOM      2  C   UNL     1       0.849   2.701  19.156  0.00  0.00    +0.000 C 
ENDROOT
BRANCH   1   4
ATOM      3  C   UNL     1       3.138   2.614  21.018  0.00  0.00    +0.000 C 
ATOM      4  C   UNL     1       3.205   3.327  19.883  0.00  0.00    +0.000 C 
ENDBRANCH   1   4
BRANCH   1   5
ATOM      5  C   UNL     1       1.764   5.054  18.845  0.00  0.00    +0.000 C 
ATOM      6  C   UNL     1       2.605   6.082  19.069  0.00  0.00    +0.000 C 
BRANCH   6   7
ATOM      7  C   UNL     1       2.139   7.466  19.068  0.00  0.00    +0.000 A 
ATOM      8  C   UNL     1       2.267   8.245  17.910  0.00  0.00    +0.000 A 
ATOM      9  C   UNL     1       1.823   9.568  17.902  0.00  0.00    +0.000 A 
ATOM     10  C   UNL     1       1.255  10.106  19.052  0.00  0.00    +0.000 A 
ATOM     11  C   UNL     1       1.120   9.342  20.206  0.00  0.00    +0.000 A 
ATOM     12  C   UNL     1       1.565   8.020  20.217  0.00  0.00    +0.000 A 
BRANCH  10  13
ATOM     13  O   UNL     1       0.817  11.397  19.090  0.00  0.00    +0.000 OA
ATOM     14  H   UNL     1       1.168  11.865  18.316  0.00  0.00    +0.000 HD
ENDBRANCH  10  13
ENDBRANCH   6   7
ENDBRANCH   1   5
BRANCH   1  15
ATOM     15  C   UNL     1       2.608   3.136  17.426  0.00  0.00    +0.000 C 
BRANCH  15  16
ATOM     16  C   UNL     1       4.135   3.026  17.259  0.00  0.00    +0.000 C 
BRANCH  16  17
ATOM     17  C   UNL     1       4.740   4.261  16.657  0.00  0.00    +0.000 C 
ATOM     18  C   UNL     1       5.740   4.950  17.237  0.00  0.00    +0.000 C 
BRANCH  18  19
ATOM     19  C   UNL     1       6.309   6.137  16.571  0.00  0.00    +0.000 C 
ATOM     20  O   UNL     1       5.734   6.818  15.735  0.00  0.00    +0.000 OA
BRANCH  19  21
ATOM     21  O   UNL     1       7.602   6.247  16.962  0.00  0.00    +0.000 OA
BRANCH  21  22
ATOM     22  C   UNL     1       7.799   7.041  18.139  0.00  0.00    +0.000 C 
ATOM     23  C   UNL     1       7.937   8.487  17.697  0.00  0.00    +0.000 C 
ENDBRANCH  21  22
ENDBRANCH  19  21
ENDBRANCH  18  19
ENDBRANCH  16  17
ENDBRANCH  15  16
ENDBRANCH   1  15
TORSDOF 10
ENDMDL
MODEL 5
REMARK VINA RESULT:      -6.7      1.238      1.942
REMARK  Name = 
REMARK  12 active torsions:
REMARK  status: ('A' for Active; 'I' for Inactive)
REMARK    1  A    between atoms: C_2  and  C_3
REMARK    2  A    between atoms: C_3  and  C_4
REMARK    3  A    between atoms: C_3  and  C_5
REMARK    4  A    between atoms: C_3  and  C_14
REMARK    5  A    between atoms: C_6  and  C_7
REMARK    6  A    between atoms: C_10  and  O_11
REMARK    7  A    between atoms: C_14  and  C_15
REMARK    8  A    between atoms: C_15  and  C_16
REMARK    9  A    between atoms: C_17  and  C_18
REMARK   10  A    between atoms: C_18  and  O_20
REMARK   11  A    between atoms: O_20  and  C_21
REMARK   12  A    between atoms: C_21  and  C_22
REMARK                            x       y       z     vdW  Elec       q    Type
REMARK                         _______ _______ _______ _____ _____    ______ ____
ROOT
ATOM      1  C   UNL     1       2.191   3.651  19.569  0.00  0.00    +0.000 C 
ATOM      2  C   UNL     1       1.053   2.758  19.007  0.00  0.00    +0.000 C 
ENDROOT
BRANCH   1   4
ATOM      3  C   UNL     1       1.890   2.520  21.875  0.00  0.00    +0.000 C 
ATOM      4  C   UNL     1       2.279   3.539  21.094  0.00  0.00    +0.000 C 
ENDBRANCH   1   4
BRANCH   1   5
ATOM      5  C   UNL     1       1.970   5.122  19.212  0.00  0.00    +0.000 C 
ATOM      6  C   UNL     1       2.250   6.198  19.974  0.00  0.00    +0.000 C 
BRANCH   6   7
ATOM      7  C   UNL     1       1.957   7.554  19.519  0.00  0.00    +0.000 A 
ATOM      8  C   UNL     1       1.264   8.437  20.358  0.00  0.00    +0.000 A 
ATOM      9  C   UNL     1       0.981   9.734  19.930  0.00  0.00    +0.000 A 
ATOM     10  C   UNL     1       1.389  10.141  18.664  0.00  0.00    +0.000 A 
ATOM     11  C   UNL     1       2.080   9.275  17.823  0.00  0.00    +0.000 A 
ATOM     12  C   UNL     1       2.362   7.977  18.250  0.00  0.00    +0.000 A 
BRANCH  10  13
ATOM     13  O   UNL     1       1.125  11.397  18.203  0.00  0.00    +0.000 OA
ATOM     14  H   UNL     1       1.421  12.039  18.868  0.00  0.00    +0.000 HD
ENDBRANCH  10  13
ENDBRANCH   6   7
ENDBRANCH   1   5
BRANCH   1  15
ATOM     15  C   UNL     1       3.526   3.148  18.921  0.00  0.00    +0.000 C 
BRANCH  15  16
ATOM     16  C   UNL     1       3.649   3.340  17.397  0.00  0.00    +0.000 C 
BRANCH  16  17
ATOM     17  C   UNL     1       4.914   4.047  17.005  0.00  0.00    +0.000 C 
ATOM     18  C   UNL     1       5.640   3.713  15.923  0.00  0.00    +0.000 C 
BRANCH  18  19
ATOM     19  C   UNL     1       6.856   4.474  15.579  0.00  0.00    +0.000 C 
ATOM     20  O   UNL     1       7.824   4.623  16.310  0.00  0.00    +0.000 OA
BRANCH  19  21
ATOM     21  O   UNL     1       6.645   5.065  14.378  0.00  0.00    +0.000 OA
BRANCH  21  22
ATOM     22  C   UNL     1       5.811   4.314  13.486  0.00  0.00    +0.000 C 
ATOM     23  C   UNL     1       6.712   3.668  12.450  0.00  0.00    +0.000 C 
ENDBRANCH  21  22
ENDBRANCH  19  21
ENDBRANCH  18  19
ENDBRANCH  16  17
ENDBRANCH  15  16
ENDBRANCH   1  15
TORSDOF 10
ENDMDL
MODEL 6
REMARK VINA RESULT:      -6.7      0.999      1.554
REMARK  Name = 
REMARK  12 active torsions:
REMARK  status: ('A' for Active; 'I' for Inactive)
REMARK    1  A    between atoms: C_2  and  C_3
REMARK    2  A    between atoms: C_3  and  C_4
REMARK    3  A    between atoms: C_3  and  C_5
REMARK    4  A    between atoms: C_3  and  C_14
REMARK    5  A    between atoms: C_6  and  C_7
REMARK    6  A    between atoms: C_10  and  O_11
REMARK    7  A    between atoms: C_14  and  C_15
REMARK    8  A    between atoms: C_15  and  C_16
REMARK    9  A    between atoms: C_17  and  C_18
REMARK   10  A    between atoms: C_18  and  O_20
REMARK   11  A    between atoms: O_20  and  C_21
REMARK   12  A    between atoms: C_21  and  C_22
REMARK                            x       y       z     vdW  Elec       q    Type
REMARK                         _______ _______ _______ _____ _____    ______ ____
ROOT
ATOM      1  C   UNL     1       2.491   4.018  19.110  0.00  0.00    +0.000 C 
ATOM      2  C   UNL     1       1.444   3.123  18.395  0.00  0.00    +0.000 C 
ENDROOT
BRANCH   1   4
ATOM      3  C   UNL     1       1.680   2.970  21.330  0.00  0.00    +0.000 C 
ATOM      4  C   UNL     1       2.493   3.767  20.620  0.00  0.00    +0.000 C 
ENDBRANCH   1   4
BRANCH   1   5
ATOM      5  C   UNL     1       2.207   5.502  18.874  0.00  0.00    +0.000 C 
ATOM      6  C   UNL     1       2.233   6.493  19.786  0.00  0.00    +0.000 C 
BRANCH   6   7
ATOM      7  C   UNL     1       1.907   7.871  19.429  0.00  0.00    +0.000 A 
ATOM      8  C   UNL     1       2.241   8.359  18.159  0.00  0.00    +0.000 A 
ATOM      9  C   UNL     1       1.933   9.675  17.809  0.00  0.00    +0.000 A 
ATOM     10  C   UNL     1       1.293  10.495  18.733  0.00  0.00    +0.000 A 
ATOM     11  C   UNL     1       0.954  10.021  19.996  0.00  0.00    +0.000 A 
ATOM     12  C   UNL     1       1.264   8.706  20.346  0.00  0.00    +0.000 A 
BRANCH  10  13
ATOM     13  O   UNL     1       0.982  11.790  18.437  0.00  0.00    +0.000 OA
ATOM     14  H   UNL     1       0.303  12.094  19.060  0.00  0.00    +0.000 HD
ENDBRANCH  10  13
ENDBRANCH   6   7
ENDBRANCH   1   5
BRANCH   1  15
ATOM     15  C   UNL     1       3.890   3.649  18.507  0.00  0.00    +0.000 C 
BRANCH  15  16
ATOM     16  C   UNL     1       5.116   4.143  19.299  0.00  0.00    +0.000 C 
BRANCH  16  17
ATOM     17  C   UNL     1       6.115   4.852  18.433  0.00  0.00    +0.000 C 
ATOM     18  C   UNL     1       5.783   5.488  17.294  0.00  0.00    +0.000 C 
BRANCH  18  19
ATOM     19  C   UNL     1       6.814   6.194  16.509  0.00  0.00    +0.000 C 
ATOM     20  O   UNL     1       7.571   5.668  15.707  0.00  0.00    +0.000 OA
BRANCH  19  21
ATOM     21  O   UNL     1       6.842   7.481  16.931  0.00  0.00    +0.000 OA
BRANCH  21  22
ATOM     22  C   UNL     1       7.878   7.773  17.877  0.00  0.00    +0.000 C 
ATOM     23  C   UNL     1       8.114   9.272  17.849  0.00  0.00    +0.000 C 
ENDBRANCH  21  22
ENDBRANCH  19  21
ENDBRANCH  18  19
ENDBRANCH  16  17
ENDBRANCH  15  16
ENDBRANCH   1  15
TORSDOF 10
ENDMDL
MODEL 7
REMARK VINA RESULT:      -6.7      3.776      6.344
REMARK  Name = 
REMARK  12 active torsions:
REMARK  status: ('A' for Active; 'I' for Inactive)
REMARK    1  A    between atoms: C_2  and  C_3
REMARK    2  A    between atoms: C_3  and  C_4
REMARK    3  A    between atoms: C_3  and  C_5
REMARK    4  A    between atoms: C_3  and  C_14
REMARK    5  A    between atoms: C_6  and  C_7
REMARK    6  A    between atoms: C_10  and  O_11
REMARK    7  A    between atoms: C_14  and  C_15
REMARK    8  A    between atoms: C_15  and  C_16
REMARK    9  A    between atoms: C_17  and  C_18
REMARK   10  A    between atoms: C_18  and  O_20
REMARK   11  A    between atoms: O_20  and  C_21
REMARK   12  A    between atoms: C_21  and  C_22
REMARK                            x       y       z     vdW  Elec       q    Type
REMARK                         _______ _______ _______ _____ _____    ______ ____
ROOT
ATOM      1  C   UNL     1       6.936   5.049  17.109  0.00  0.00    +0.000 C 
ATOM      2  C   UNL     1       8.082   4.594  18.051  0.00  0.00    +0.000 C 
ENDROOT
BRANCH   1   4
ATOM      3  C   UNL     1       7.564   7.495  17.664  0.00  0.00    +0.000 C 
ATOM      4  C   UNL     1       6.952   6.568  16.912  0.00  0.00    +0.000 C 
ENDBRANCH   1   4
BRANCH   1   5
ATOM      5  C   UNL     1       5.568   4.656  17.668  0.00  0.00    +0.000 C 
ATOM      6  C   UNL     1       4.816   3.595  17.316  0.00  0.00    +0.000 C 
BRANCH   6   7
ATOM      7  C   UNL     1       3.505   3.355  17.912  0.00  0.00    +0.000 A 
ATOM      8  C   UNL     1       2.700   4.439  18.288  0.00  0.00    +0.000 A 
ATOM      9  C   UNL     1       1.446   4.217  18.857  0.00  0.00    +0.000 A 
ATOM     10  C   UNL     1       1.004   2.912  19.052  0.00  0.00    +0.000 A 
ATOM     11  C   UNL     1       1.793   1.829  18.680  0.00  0.00    +0.000 A 
ATOM     12  C   UNL     1       3.048   2.049  18.112  0.00  0.00    +0.000 A 
BRANCH  10  13
ATOM     13  O   UNL     1      -0.210   2.650  19.614  0.00  0.00    +0.000 OA
ATOM     14  H   UNL     1      -0.776   2.232  18.945  0.00  0.00    +0.000 HD
ENDBRANCH  10  13
ENDBRANCH   6   7
ENDBRANCH   1   5
BRANCH   1  15
ATOM     15  C   UNL     1       7.167   4.332  15.734  0.00  0.00    +0.000 C 
BRANCH  15  16
ATOM     16  C   UNL     1       6.417   4.930  14.528  0.00  0.00    +0.000 C 
BRANCH  16  17
ATOM     17  C   UNL     1       5.683   3.890  13.733  0.00  0.00    +0.000 C 
ATOM     18  C   UNL     1       5.871   3.703  12.414  0.00  0.00    +0.000 C 
BRANCH  18  19
ATOM     19  C   UNL     1       5.137   2.638  11.702  0.00  0.00    +0.000 C 
ATOM     20  O   UNL     1       5.599   1.549  11.396  0.00  0.00    +0.000 OA
BRANCH  19  21
ATOM     21  O   UNL     1       3.926   3.137  11.354  0.00  0.00    +0.000 OA
BRANCH  21  22
ATOM     22  C   UNL     1       3.727   3.281   9.942  0.00  0.00    +0.000 C 
ATOM     23  C   UNL     1       2.820   4.479   9.727  0.00  0.00    +0.000 C 
ENDBRANCH  21  22
ENDBRANCH  19  21
ENDBRANCH  18  19
ENDBRANCH  16  17
ENDBRANCH  15  16
ENDBRANCH   1  15
TORSDOF 10
ENDMDL
MODEL 8
REMARK VINA RESULT:      -6.7      1.418      2.292
REMARK  Name = 
REMARK  12 active torsions:
REMARK  status: ('A' for Active; 'I' for Inactive)
REMARK    1  A    between atoms: C_2  and  C_3
REMARK    2  A    between atoms: C_3  and  C_4
REMARK    3  A    between atoms: C_3  and  C_5
REMARK    4  A    between atoms: C_3  and  C_14
REMARK    5  A    between atoms: C_6  and  C_7
REMARK    6  A    between atoms: C_10  and  O_11
REMARK    7  A    between atoms: C_14  and  C_15
REMARK    8  A    between atoms: C_15  and  C_16
REMARK    9  A    between atoms: C_17  and  C_18
REMARK   10  A    between atoms: C_18  and  O_20
REMARK   11  A    between atoms: O_20  and  C_21
REMARK   12  A    between atoms: C_21  and  C_22
REMARK                            x       y       z     vdW  Elec       q    Type
REMARK                         _______ _______ _______ _____ _____    ______ ____
ROOT
ATOM      1  C   UNL     1       2.711   4.002  19.044  0.00  0.00    +0.000 C 
ATOM      2  C   UNL     1       1.886   3.066  18.120  0.00  0.00    +0.000 C 
ENDROOT
BRANCH   1   4
ATOM      3  C   UNL     1       1.414   3.064  21.075  0.00  0.00    +0.000 C 
ATOM      4  C   UNL     1       2.475   3.669  20.520  0.00  0.00    +0.000 C 
ENDBRANCH   1   4
BRANCH   1   5
ATOM      5  C   UNL     1       2.339   5.469  18.822  0.00  0.00    +0.000 C 
ATOM      6  C   UNL     1       2.330   6.456  19.739  0.00  0.00    +0.000 C 
BRANCH   6   7
ATOM      7  C   UNL     1       1.920   7.815  19.395  0.00  0.00    +0.000 A 
ATOM      8  C   UNL     1       1.255   8.604  20.343  0.00  0.00    +0.000 A 
ATOM      9  C   UNL     1       0.861   9.904  20.022  0.00  0.00    +0.000 A 
ATOM     10  C   UNL     1       1.132  10.406  18.753  0.00  0.00    +0.000 A 
ATOM     11  C   UNL     1       1.793   9.634  17.805  0.00  0.00    +0.000 A 
ATOM     12  C   UNL     1       2.186   8.334  18.125  0.00  0.00    +0.000 A 
BRANCH  10  13
ATOM     13  O   UNL     1       0.756  11.667  18.394  0.00  0.00    +0.000 OA
ATOM     14  H   UNL     1       1.382  12.298  18.783  0.00  0.00    +0.000 HD
ENDBRANCH  10  13
ENDBRANCH   6   7
ENDBRANCH   1   5
BRANCH   1  15
ATOM     15  C   UNL     1       4.220   3.782  18.683  0.00  0.00    +0.000 C 
BRANCH  15  16
ATOM     16  C   UNL     1       4.938   4.979  18.031  0.00  0.00    +0.000 C 
BRANCH  16  17
ATOM     17  C   UNL     1       5.815   4.571  16.884  0.00  0.00    +0.000 C 
ATOM     18  C   UNL     1       5.995   5.329  15.787  0.00  0.00    +0.000 C 
BRANCH  18  19
ATOM     19  C   UNL     1       6.899   4.878  14.712  0.00  0.00    +0.000 C 
ATOM     20  O   UNL     1       7.839   5.520  14.268  0.00  0.00    +0.000 OA
BRANCH  19  21
ATOM     21  O   UNL     1       6.421   3.701  14.240  0.00  0.00    +0.000 OA
BRANCH  21  22
ATOM     22  C   UNL     1       5.428   3.832  13.215  0.00  0.00    +0.000 C 
ATOM     23  C   UNL     1       5.900   3.031  12.015  0.00  0.00    +0.000 C 
ENDBRANCH  21  22
ENDBRANCH  19  21
ENDBRANCH  18  19
ENDBRANCH  16  17
ENDBRANCH  15  16
ENDBRANCH   1  15
TORSDOF 10
ENDMDL
MODEL 9
REMARK VINA RESULT:      -6.7      1.203      2.278
REMARK  Name = 
REMARK  12 active torsions:
REMARK  status: ('A' for Active; 'I' for Inactive)
REMARK    1  A    between atoms: C_2  and  C_3
REMARK    2  A    between atoms: C_3  and  C_4
REMARK    3  A    between atoms: C_3  and  C_5
REMARK    4  A    between atoms: C_3  and  C_14
REMARK    5  A    between atoms: C_6  and  C_7
REMARK    6  A    between atoms: C_10  and  O_11
REMARK    7  A    between atoms: C_14  and  C_15
REMARK    8  A    between atoms: C_15  and  C_16
REMARK    9  A    between atoms: C_17  and  C_18
REMARK   10  A    between atoms: C_18  and  O_20
REMARK   11  A    between atoms: O_20  and  C_21
REMARK   12  A    between atoms: C_21  and  C_22
REMARK                            x       y       z     vdW  Elec       q    Type
REMARK                         _______ _______ _______ _____ _____    ______ ____
ROOT
ATOM      1  C   UNL     1       2.821   3.695  19.342  0.00  0.00    +0.000 C 
ATOM      2  C   UNL     1       1.954   2.709  18.514  0.00  0.00    +0.000 C 
ENDROOT
BRANCH   1   4
ATOM      3  C   UNL     1       1.568   2.958  21.479  0.00  0.00    +0.000 C 
ATOM      4  C   UNL     1       2.633   3.470  20.844  0.00  0.00    +0.000 C 
ENDBRANCH   1   4
BRANCH   1   5
ATOM      5  C   UNL     1       2.461   5.148  19.029  0.00  0.00    +0.000 C 
ATOM      6  C   UNL     1       2.487   6.196  19.876  0.00  0.00    +0.000 C 
BRANCH   6   7
ATOM      7  C   UNL     1       2.084   7.533  19.451  0.00  0.00    +0.000 A 
ATOM      8  C   UNL     1       2.468   8.010  18.190  0.00  0.00    +0.000 A 
ATOM      9  C   UNL     1       2.086   9.287  17.777  0.00  0.00    +0.000 A 
ATOM     10  C   UNL     1       1.325  10.082  18.628  0.00  0.00    +0.000 A 
ATOM     11  C   UNL     1       0.936   9.619  19.880  0.00  0.00    +0.000 A 
ATOM     12  C   UNL     1       1.318   8.343  20.295  0.00  0.00    +0.000 A 
BRANCH  10  13
ATOM     13  O   UNL     1       0.938  11.339  18.267  0.00  0.00    +0.000 OA
ATOM     14  H   UNL     1       1.395  11.578  17.445  0.00  0.00    +0.000 HD
ENDBRANCH  10  13
ENDBRANCH   6   7
ENDBRANCH   1   5
BRANCH   1  15
ATOM     15  C   UNL     1       4.314   3.428  18.946  0.00  0.00    +0.000 C 
BRANCH  15  16
ATOM     16  C   UNL     1       5.297   4.585  19.205  0.00  0.00    +0.000 C 
BRANCH  16  17
ATOM     17  C   UNL     1       5.919   5.108  17.943  0.00  0.00    +0.000 C 
ATOM     18  C   UNL     1       6.538   4.319  17.045  0.00  0.00    +0.000 C 
BRANCH  18  19
ATOM     19  C   UNL     1       7.098   4.898  15.809  0.00  0.00    +0.000 C 
ATOM     20  O   UNL     1       7.556   6.025  15.704  0.00  0.00    +0.000 OA
BRANCH  19  21
ATOM     21  O   UNL     1       6.895   4.005  14.810  0.00  0.00    +0.000 OA
BRANCH  21  22
ATOM     22  C   UNL     1       5.699   4.226  14.050  0.00  0.00    +0.000 C 
ATOM     23  C   UNL     1       5.868   3.524  12.715  0.00  0.00    +0.000 C 
ENDBRANCH  21  22
ENDBRANCH  19  21
ENDBRANCH  18  19
ENDBRANCH  16  17
ENDBRANCH  15  16
ENDBRANCH   1  15
TORSDOF 10
ENDMDL
