MODEL 1
REMARK VINA RESULT:      -6.2      0.000      0.000
REMARK  Name = 
REMARK  11 active torsions:
REMARK  status: ('A' for Active; 'I' for Inactive)
REMARK    1  A    between atoms: C_1  and  C_2
REMARK    2  A    between atoms: C_2  and  O_3
REMARK    3  A    between atoms: O_3  and  C_4
REMARK    4  A    between atoms: C_4  and  C_6
REMARK    5  A    between atoms: C_7  and  C_8
REMARK    6  A    between atoms: C_13  and  C_14
REMARK    7  A    between atoms: C_18  and  O_19
REMARK    8  A    between atoms: O_19  and  C_20
REMARK    9  A    between atoms: C_20  and  C_21
REMARK   10  A    between atoms: C_21  and  O_23
REMARK   11  A    between atoms: C_28  and  C_29
REMARK                            x       y       z     vdW  Elec       q    Type
REMARK                         _______ _______ _______ _____ _____    ______ ____
ROOT
ATOM      1  C   UNL     1      -2.427  14.760  23.132  0.00  0.00    +0.000 C 
ATOM      2  C   UNL     1      -3.672  14.974  23.613  0.00  0.00    +0.000 C 
ATOM      3  C   UNL     1      -4.029  15.644  24.920  0.00  0.00    +0.000 C 
ATOM      4  N   UNL     1      -4.802  14.627  22.897  0.00  0.00    +0.000 NA
ATOM      5  C   UNL     1      -4.648  14.040  21.762  0.00  0.00    +0.000 A 
ATOM      6  S   UNL     1      -5.990  13.581  20.752  0.00  0.00    +0.000 S 
ATOM      7  C   UNL     1      -4.945  12.831  19.599  0.00  0.00    +0.000 A 
ATOM      8  C   UNL     1      -5.378  12.029  18.617  0.00  0.00    +0.000 C 
ATOM      9  C   UNL     1      -3.526  13.148  19.936  0.00  0.00    +0.000 A 
ATOM     10  O   UNL     1      -2.580  12.998  19.178  0.00  0.00    +0.000 OA
ATOM     11  N   UNL     1      -3.464  13.697  21.196  0.00  0.00    +0.000 N 
ATOM     12  C   UNL     1      -2.204  14.094  21.794  0.00  0.00    +0.000 C 
ENDROOT
BRANCH  12  13
ATOM     13  C   UNL     1      -1.259  12.894  21.887  0.00  0.00    +0.000 A 
ATOM     14  C   UNL     1      -0.091  12.867  21.100  0.00  0.00    +0.000 A 
ATOM     15  C   UNL     1       0.768  11.771  21.144  0.00  0.00    +0.000 A 
ATOM     16  C   UNL     1       0.458  10.700  21.971  0.00  0.00    +0.000 A 
ATOM     17  F   UNL     1       1.279   9.642  22.008  0.00  0.00    +0.000 F 
ATOM     18  C   UNL     1      -0.691  10.706  22.757  0.00  0.00    +0.000 A 
ATOM     19  C   UNL     1      -1.549  11.802  22.721  0.00  0.00    +0.000 A 
ENDBRANCH  12  13
BRANCH   8  20
ATOM     20  C   UNL     1      -4.493  11.221  17.773  0.00  0.00    +0.000 A 
ATOM     21  C   UNL     1      -3.737  10.177  18.311  0.00  0.00    +0.000 A 
ATOM     22  C   UNL     1      -2.956   9.379  17.474  0.00  0.00    +0.000 A 
ATOM     23  C   UNL     1      -2.917   9.634  16.103  0.00  0.00    +0.000 A 
ATOM     24  C   UNL     1      -3.642  10.696  15.562  0.00  0.00    +0.000 A 
ATOM     25  C   UNL     1      -4.446  11.478  16.394  0.00  0.00    +0.000 A 
BRANCH  24  26
ATOM     26  O   UNL     1      -3.509  10.860  14.210  0.00  0.00    +0.000 OA
BRANCH  26  27
ATOM     27  C   UNL     1      -3.336   9.658  13.451  0.00  0.00    +0.000 C 
BRANCH  27  28
ATOM     28  C   UNL     1      -4.248   9.725  12.237  0.00  0.00    +0.000 C 
ATOM     29  O   UNL     1      -5.462   9.588  12.287  0.00  0.00    +0.000 OA
BRANCH  28  30
ATOM     30  O   UNL     1      -3.586   9.964  11.077  0.00  0.00    +0.000 OA
ATOM     31  H   UNL     1      -4.223  10.278  10.398  0.00  0.00    +0.000 HD
ENDBRANCH  28  30
ENDBRANCH  27  28
ENDBRANCH  26  27
ENDBRANCH  24  26
ENDBRANCH   8  20
BRANCH   1  32
ATOM     32  C   UNL     1      -1.202  15.226  23.838  0.00  0.00    +0.000 C 
ATOM     33  O   UNL     1      -0.782  14.808  24.901  0.00  0.00    +0.000 OA
BRANCH  32  34
ATOM     34  O   UNL     1      -0.689  16.269  23.141  0.00  0.00    +0.000 OA
BRANCH  34  36
ATOM     35  C   UNL     1      -1.509  18.390  23.732  0.00  0.00    +0.000 C 
ATOM     36  C   UNL     1      -0.344  17.437  23.895  0.00  0.00    +0.000 C 
ENDBRANCH  34  36
ENDBRANCH  32  34
ENDBRANCH   1  32
TORSDOF 9
ENDMDL
MODEL 2
REMARK VINA RESULT:      -6.2      3.489      6.697
REMARK  Name = 
REMARK  11 active torsions:
REMARK  status: ('A' for Active; 'I' for Inactive)
REMARK    1  A    between atoms: C_1  and  C_2
REMARK    2  A    between atoms: C_2  and  O_3
REMARK    3  A    between atoms: O_3  and  C_4
REMARK    4  A    between atoms: C_4  and  C_6
REMARK    5  A    between atoms: C_7  and  C_8
REMARK    6  A    between atoms: C_13  and  C_14
REMARK    7  A    between atoms: C_18  and  O_19
REMARK    8  A    between atoms: O_19  and  C_20
REMARK    9  A    between atoms: C_20  and  C_21
REMARK   10  A    between atoms: C_21  and  O_23
REMARK   11  A    between atoms: C_28  and  C_29
REMARK                            x       y       z     vdW  Elec       q    Type
REMARK                         _______ _______ _______ _____ _____    ______ ____
ROOT
ATOM      1  C   UNL     1       0.482  10.353  19.951  0.00  0.00    +0.000 C 
ATOM      2  C   UNL     1       0.626   9.786  21.169  0.00  0.00    +0.000 C 
ATOM      3  C   UNL     1       1.630   8.724  21.554  0.00  0.00    +0.000 C 
ATOM      4  N   UNL     1      -0.136  10.178  22.253  0.00  0.00    +0.000 NA
ATOM      5  C   UNL     1      -1.040  11.077  22.069  0.00  0.00    +0.000 A 
ATOM      6  S   UNL     1      -2.043  11.676  23.360  0.00  0.00    +0.000 S 
ATOM      7  C   UNL     1      -2.948  12.671  22.275  0.00  0.00    +0.000 A 
ATOM      8  C   UNL     1      -4.100  13.271  22.604  0.00  0.00    +0.000 C 
ATOM      9  C   UNL     1      -2.292  12.667  20.934  0.00  0.00    +0.000 A 
ATOM     10  O   UNL     1      -2.525  13.469  20.043  0.00  0.00    +0.000 OA
ATOM     11  N   UNL     1      -1.343  11.673  20.890  0.00  0.00    +0.000 N 
ATOM     12  C   UNL     1      -0.552  11.427  19.699  0.00  0.00    +0.000 C 
ENDROOT
BRANCH  12  13
ATOM     13  C   UNL     1      -1.462  11.097  18.515  0.00  0.00    +0.000 A 
ATOM     14  C   UNL     1      -2.288   9.957  18.570  0.00  0.00    +0.000 A 
ATOM     15  C   UNL     1      -3.102   9.619  17.491  0.00  0.00    +0.000 A 
ATOM     16  C   UNL     1      -3.089  10.417  16.355  0.00  0.00    +0.000 A 
ATOM     17  F   UNL     1      -3.865  10.088  15.314  0.00  0.00    +0.000 F 
ATOM     18  C   UNL     1      -2.280  11.547  16.279  0.00  0.00    +0.000 A 
ATOM     19  C   UNL     1      -1.470  11.893  17.358  0.00  0.00    +0.000 A 
ENDBRANCH  12  13
BRANCH   8  20
ATOM     20  C   UNL     1      -4.981  13.934  21.639  0.00  0.00    +0.000 A 
ATOM     21  C   UNL     1      -4.832  15.291  21.338  0.00  0.00    +0.000 A 
ATOM     22  C   UNL     1      -5.639  15.881  20.365  0.00  0.00    +0.000 A 
ATOM     23  C   UNL     1      -6.605  15.121  19.704  0.00  0.00    +0.000 A 
ATOM     24  C   UNL     1      -6.783  13.775  20.022  0.00  0.00    +0.000 A 
ATOM     25  C   UNL     1      -5.958  13.176  20.975  0.00  0.00    +0.000 A 
BRANCH  24  26
ATOM     26  O   UNL     1      -7.773  13.140  19.322  0.00  0.00    +0.000 OA
BRANCH  26  27
ATOM     27  C   UNL     1      -7.334  12.196  18.339  0.00  0.00    +0.000 C 
BRANCH  27  28
ATOM     28  C   UNL     1      -6.723  12.965  17.179  0.00  0.00    +0.000 C 
ATOM     29  O   UNL     1      -7.329  13.797  16.517  0.00  0.00    +0.000 OA
BRANCH  28  30
ATOM     30  O   UNL     1      -5.426  12.649  16.946  0.00  0.00    +0.000 OA
ATOM     31  H   UNL     1      -5.211  12.829  16.003  0.00  0.00    +0.000 HD
ENDBRANCH  28  30
ENDBRANCH  27  28
ENDBRANCH  26  27
ENDBRANCH  24  26
ENDBRANCH   8  20
BRANCH   1  32
ATOM     32  C   UNL     1       1.368  10.023  18.801  0.00  0.00    +0.000 C 
ATOM     33  O   UNL     1       1.923  10.820  18.068  0.00  0.00    +0.000 OA
BRANCH  32  34
ATOM     34  O   UNL     1       1.371   8.676  18.648  0.00  0.00    +0.000 OA
BRANCH  34  36
ATOM     35  C   UNL     1       2.367   6.601  18.181  0.00  0.00    +0.000 C 
ATOM     36  C   UNL     1       2.540   8.100  18.056  0.00  0.00    +0.000 C 
ENDBRANCH  34  36
ENDBRANCH  32  34
ENDBRANCH   1  32
TORSDOF 9
ENDMDL
MODEL 3
REMARK VINA RESULT:      -6.1      2.290      3.468
REMARK  Name = 
REMARK  11 active torsions:
REMARK  status: ('A' for Active; 'I' for Inactive)
REMARK    1  A    between atoms: C_1  and  C_2
REMARK    2  A    between atoms: C_2  and  O_3
REMARK    3  A    between atoms: O_3  and  C_4
REMARK    4  A    between atoms: C_4  and  C_6
REMARK    5  A    between atoms: C_7  and  C_8
REMARK    6  A    between atoms: C_13  and  C_14
REMARK    7  A    between atoms: C_18  and  O_19
REMARK    8  A    between atoms: O_19  and  C_20
REMARK    9  A    between atoms: C_20  and  C_21
REMARK   10  A    between atoms: C_21  and  O_23
REMARK   11  A    between atoms: C_28  and  C_29
REMARK                            x       y       z     vdW  Elec       q    Type
REMARK                         _______ _______ _______ _____ _____    ______ ____
ROOT
ATOM      1  C   UNL     1      -1.735  15.690  23.523  0.00  0.00    +0.000 C 
ATOM      2  C   UNL     1      -2.148  15.209  24.717  0.00  0.00    +0.000 C 
ATOM      3  C   UNL     1      -1.451  15.382  26.047  0.00  0.00    +0.000 C 
ATOM      4  N   UNL     1      -3.336  14.517  24.855  0.00  0.00    +0.000 NA
ATOM      5  C   UNL     1      -4.035  14.291  23.798  0.00  0.00    +0.000 A 
ATOM      6  S   UNL     1      -5.564  13.458  23.844  0.00  0.00    +0.000 S 
ATOM      7  C   UNL     1      -5.711  13.507  22.124  0.00  0.00    +0.000 A 
ATOM      8  C   UNL     1      -6.613  12.793  21.436  0.00  0.00    +0.000 C 
ATOM      9  C   UNL     1      -4.638  14.377  21.558  0.00  0.00    +0.000 A 
ATOM     10  O   UNL     1      -4.633  14.826  20.423  0.00  0.00    +0.000 OA
ATOM     11  N   UNL     1      -3.705  14.648  22.532  0.00  0.00    +0.000 N 
ATOM     12  C   UNL     1      -2.538  15.465  22.263  0.00  0.00    +0.000 C 
ENDROOT
BRANCH  12  13
ATOM     13  C   UNL     1      -1.704  14.846  21.140  0.00  0.00    +0.000 A 
ATOM     14  C   UNL     1      -1.294  15.648  20.056  0.00  0.00    +0.000 A 
ATOM     15  C   UNL     1      -0.561  15.101  19.006  0.00  0.00    +0.000 A 
ATOM     16  C   UNL     1      -0.241  13.750  19.035  0.00  0.00    +0.000 A 
ATOM     17  F   UNL     1       0.457  13.221  18.022  0.00  0.00    +0.000 F 
ATOM     18  C   UNL     1      -0.636  12.939  20.095  0.00  0.00    +0.000 A 
ATOM     19  C   UNL     1      -1.363  13.484  21.151  0.00  0.00    +0.000 A 
ENDBRANCH  12  13
BRANCH   8  20
ATOM     20  C   UNL     1      -6.608  12.660  19.976  0.00  0.00    +0.000 A 
ATOM     21  C   UNL     1      -7.474  13.412  19.178  0.00  0.00    +0.000 A 
ATOM     22  C   UNL     1      -7.400  13.316  17.789  0.00  0.00    +0.000 A 
ATOM     23  C   UNL     1      -6.475  12.457  17.196  0.00  0.00    +0.000 A 
ATOM     24  C   UNL     1      -5.630  11.676  17.985  0.00  0.00    +0.000 A 
ATOM     25  C   UNL     1      -5.683  11.792  19.375  0.00  0.00    +0.000 A 
BRANCH  24  26
ATOM     26  O   UNL     1      -4.781  10.858  17.291  0.00  0.00    +0.000 OA
BRANCH  26  27
ATOM     27  C   UNL     1      -4.258  11.393  16.070  0.00  0.00    +0.000 C 
BRANCH  27  28
ATOM     28  C   UNL     1      -2.895  10.769  15.821  0.00  0.00    +0.000 C 
ATOM     29  O   UNL     1      -2.704   9.828  15.062  0.00  0.00    +0.000 OA
BRANCH  28  30
ATOM     30  O   UNL     1      -1.894  11.362  16.517  0.00  0.00    +0.000 OA
ATOM     31  H   UNL     1      -1.228  11.721  15.889  0.00  0.00    +0.000 HD
ENDBRANCH  28  30
ENDBRANCH  27  28
ENDBRANCH  26  27
ENDBRANCH  24  26
ENDBRANCH   8  20
BRANCH   1  32
ATOM     32  C   UNL     1      -0.515  16.531  23.375  0.00  0.00    +0.000 C 
ATOM     33  O   UNL     1      -0.489  17.736  23.201  0.00  0.00    +0.000 OA
BRANCH  32  34
ATOM     34  O   UNL     1       0.562  15.709  23.365  0.00  0.00    +0.000 OA
BRANCH  34  36
ATOM     35  C   UNL     1       2.034  15.158  21.619  0.00  0.00    +0.000 C 
ATOM     36  C   UNL     1       1.728  16.187  22.687  0.00  0.00    +0.000 C 
ENDBRANCH  34  36
ENDBRANCH  32  34
ENDBRANCH   1  32
TORSDOF 9
ENDMDL
MODEL 4
REMARK VINA RESULT:      -6.1      3.778      6.999
REMARK  Name = 
REMARK  11 active torsions:
REMARK  status: ('A' for Active; 'I' for Inactive)
REMARK    1  A    between atoms: C_1  and  C_2
REMARK    2  A    between atoms: C_2  and  O_3
REMARK    3  A    between atoms: O_3  and  C_4
REMARK    4  A    between atoms: C_4  and  C_6
REMARK    5  A    between atoms: C_7  and  C_8
REMARK    6  A    between atoms: C_13  and  C_14
REMARK    7  A    between atoms: C_18  and  O_19
REMARK    8  A    between atoms: O_19  and  C_20
REMARK    9  A    between atoms: C_20  and  C_21
REMARK   10  A    between atoms: C_21  and  O_23
REMARK   11  A    between atoms: C_28  and  C_29
REMARK                            x       y       z     vdW  Elec       q    Type
REMARK                         _______ _______ _______ _____ _____    ______ ____
ROOT
ATOM      1  C   UNL     1       0.699   9.706  19.288  0.00  0.00    +0.000 C 
ATOM      2  C   UNL     1       1.012   8.983  20.386  0.00  0.00    +0.000 C 
ATOM      3  C   UNL     1       1.979   7.824  20.454  0.00  0.00    +0.000 C 
ATOM      4  N   UNL     1       0.489   9.280  21.630  0.00  0.00    +0.000 NA
ATOM      5  C   UNL     1      -0.357  10.246  21.721  0.00  0.00    +0.000 A 
ATOM      6  S   UNL     1      -1.063  10.736  23.236  0.00  0.00    +0.000 S 
ATOM      7  C   UNL     1      -2.063  11.911  22.459  0.00  0.00    +0.000 A 
ATOM      8  C   UNL     1      -3.085  12.531  23.063  0.00  0.00    +0.000 C 
ATOM      9  C   UNL     1      -1.659  12.037  21.027  0.00  0.00    +0.000 A 
ATOM     10  O   UNL     1      -1.982  12.957  20.292  0.00  0.00    +0.000 OA
ATOM     11  N   UNL     1      -0.817  11.002  20.694  0.00  0.00    +0.000 N 
ATOM     12  C   UNL     1      -0.273  10.862  19.357  0.00  0.00    +0.000 C 
ENDROOT
BRANCH  12  13
ATOM     13  C   UNL     1      -1.404  10.738  18.334  0.00  0.00    +0.000 A 
ATOM     14  C   UNL     1      -1.535  11.709  17.322  0.00  0.00    +0.000 A 
ATOM     15  C   UNL     1      -2.576  11.635  16.399  0.00  0.00    +0.000 A 
ATOM     16  C   UNL     1      -3.488  10.593  16.488  0.00  0.00    +0.000 A 
ATOM     17  F   UNL     1      -4.494  10.525  15.606  0.00  0.00    +0.000 F 
ATOM     18  C   UNL     1      -3.378   9.622  17.480  0.00  0.00    +0.000 A 
ATOM     19  C   UNL     1      -2.335   9.688  18.401  0.00  0.00    +0.000 A 
ENDBRANCH  12  13
BRANCH   8  20
ATOM     20  C   UNL     1      -4.068  13.361  22.360  0.00  0.00    +0.000 A 
ATOM     21  C   UNL     1      -4.053  14.754  22.477  0.00  0.00    +0.000 A 
ATOM     22  C   UNL     1      -4.955  15.523  21.743  0.00  0.00    +0.000 A 
ATOM     23  C   UNL     1      -5.884  14.903  20.906  0.00  0.00    +0.000 A 
ATOM     24  C   UNL     1      -5.929  13.512  20.811  0.00  0.00    +0.000 A 
ATOM     25  C   UNL     1      -5.008  12.741  21.522  0.00  0.00    +0.000 A 
BRANCH  24  26
ATOM     26  O   UNL     1      -6.894  13.020  19.975  0.00  0.00    +0.000 OA
BRANCH  26  27
ATOM     27  C   UNL     1      -7.858  12.151  20.581  0.00  0.00    +0.000 C 
BRANCH  27  28
ATOM     28  C   UNL     1      -7.502  10.718  20.220  0.00  0.00    +0.000 C 
ATOM     29  O   UNL     1      -7.367   9.821  21.041  0.00  0.00    +0.000 OA
BRANCH  28  30
ATOM     30  O   UNL     1      -7.354  10.518  18.887  0.00  0.00    +0.000 OA
ATOM     31  H   UNL     1      -6.454  10.805  18.613  0.00  0.00    +0.000 HD
ENDBRANCH  28  30
ENDBRANCH  27  28
ENDBRANCH  26  27
ENDBRANCH  24  26
ENDBRANCH   8  20
BRANCH   1  32
ATOM     32  C   UNL     1       1.336   9.472  17.963  0.00  0.00    +0.000 C 
ATOM     33  O   UNL     1       1.596   8.389  17.471  0.00  0.00    +0.000 OA
BRANCH  32  34
ATOM     34  O   UNL     1       1.670  10.677  17.440  0.00  0.00    +0.000 OA
BRANCH  34  36
ATOM     35  C   UNL     1       2.390  12.795  18.157  0.00  0.00    +0.000 C 
ATOM     36  C   UNL     1       2.793  11.342  18.029  0.00  0.00    +0.000 C 
ENDBRANCH  34  36
ENDBRANCH  32  34
ENDBRANCH   1  32
TORSDOF 9
ENDMDL
MODEL 5
REMARK VINA RESULT:      -6.0      3.979      6.572
REMARK  Name = 
REMARK  11 active torsions:
REMARK  status: ('A' for Active; 'I' for Inactive)
REMARK    1  A    between atoms: C_1  and  C_2
REMARK    2  A    between atoms: C_2  and  O_3
REMARK    3  A    between atoms: O_3  and  C_4
REMARK    4  A    between atoms: C_4  and  C_6
REMARK    5  A    between atoms: C_7  and  C_8
REMARK    6  A    between atoms: C_13  and  C_14
REMARK    7  A    between atoms: C_18  and  O_19
REMARK    8  A    between atoms: O_19  and  C_20
REMARK    9  A    between atoms: C_20  and  C_21
REMARK   10  A    between atoms: C_21  and  O_23
REMARK   11  A    between atoms: C_28  and  C_29
REMARK                            x       y       z     vdW  Elec       q    Type
REMARK                         _______ _______ _______ _____ _____    ______ ____
ROOT
ATOM      1  C   UNL     1       0.209  11.213  19.521  0.00  0.00    +0.000 C 
ATOM      2  C   UNL     1       0.415  10.354  18.497  0.00  0.00    +0.000 C 
ATOM      3  C   UNL     1       1.716   9.670  18.146  0.00  0.00    +0.000 C 
ATOM      4  N   UNL     1      -0.608   9.959  17.657  0.00  0.00    +0.000 NA
ATOM      5  C   UNL     1      -1.776  10.469  17.838  0.00  0.00    +0.000 A 
ATOM      6  S   UNL     1      -3.153  10.029  16.867  0.00  0.00    +0.000 S 
ATOM      7  C   UNL     1      -4.163  11.179  17.669  0.00  0.00    +0.000 A 
ATOM      8  C   UNL     1      -5.375  11.539  17.225  0.00  0.00    +0.000 C 
ATOM      9  C   UNL     1      -3.435  11.743  18.844  0.00  0.00    +0.000 A 
ATOM     10  O   UNL     1      -3.960  12.365  19.755  0.00  0.00    +0.000 OA
ATOM     11  N   UNL     1      -2.107  11.394  18.773  0.00  0.00    +0.000 N 
ATOM     12  C   UNL     1      -1.152  11.816  19.780  0.00  0.00    +0.000 C 
ENDROOT
BRANCH  12  13
ATOM     13  C   UNL     1      -1.110  13.343  19.864  0.00  0.00    +0.000 A 
ATOM     14  C   UNL     1      -1.565  13.988  21.031  0.00  0.00    +0.000 A 
ATOM     15  C   UNL     1      -1.566  15.378  21.119  0.00  0.00    +0.000 A 
ATOM     16  C   UNL     1      -1.116  16.126  20.039  0.00  0.00    +0.000 A 
ATOM     17  F   UNL     1      -1.123  17.462  20.120  0.00  0.00    +0.000 F 
ATOM     18  C   UNL     1      -0.662  15.509  18.876  0.00  0.00    +0.000 A 
ATOM     19  C   UNL     1      -0.653  14.120  18.787  0.00  0.00    +0.000 A 
ENDBRANCH  12  13
BRANCH   8  20
ATOM     20  C   UNL     1      -6.143  12.662  17.771  0.00  0.00    +0.000 A 
ATOM     21  C   UNL     1      -6.434  13.785  16.991  0.00  0.00    +0.000 A 
ATOM     22  C   UNL     1      -7.226  14.808  17.513  0.00  0.00    +0.000 A 
ATOM     23  C   UNL     1      -7.713  14.718  18.817  0.00  0.00    +0.000 A 
ATOM     24  C   UNL     1      -7.399  13.618  19.614  0.00  0.00    +0.000 A 
ATOM     25  C   UNL     1      -6.630  12.579  19.084  0.00  0.00    +0.000 A 
BRANCH  24  26
ATOM     26  O   UNL     1      -7.916  13.652  20.881  0.00  0.00    +0.000 OA
BRANCH  26  27
ATOM     27  C   UNL     1      -7.187  14.436  21.831  0.00  0.00    +0.000 C 
BRANCH  27  28
ATOM     28  C   UNL     1      -6.071  13.577  22.403  0.00  0.00    +0.000 C 
ATOM     29  O   UNL     1      -4.917  13.958  22.536  0.00  0.00    +0.000 OA
BRANCH  28  30
ATOM     30  O   UNL     1      -6.479  12.336  22.767  0.00  0.00    +0.000 OA
ATOM     31  H   UNL     1      -6.115  12.121  23.655  0.00  0.00    +0.000 HD
ENDBRANCH  28  30
ENDBRANCH  27  28
ENDBRANCH  26  27
ENDBRANCH  24  26
ENDBRANCH   8  20
BRANCH   1  32
ATOM     32  C   UNL     1       1.273  11.564  20.502  0.00  0.00    +0.000 C 
ATOM     33  O   UNL     1       1.351  11.168  21.650  0.00  0.00    +0.000 OA
BRANCH  32  34
ATOM     34  O   UNL     1       2.086  12.483  19.926  0.00  0.00    +0.000 OA
BRANCH  34  36
ATOM     35  C   UNL     1       2.776  14.728  19.892  0.00  0.00    +0.000 C 
ATOM     36  C   UNL     1       2.592  13.515  20.779  0.00  0.00    +0.000 C 
ENDBRANCH  34  36
ENDBRANCH  32  34
ENDBRANCH   1  32
TORSDOF 9
ENDMDL
MODEL 6
REMARK VINA RESULT:      -5.9      2.797      4.240
REMARK  Name = 
REMARK  11 active torsions:
REMARK  status: ('A' for Active; 'I' for Inactive)
REMARK    1  A    between atoms: C_1  and  C_2
REMARK    2  A    between atoms: C_2  and  O_3
REMARK    3  A    between atoms: O_3  and  C_4
REMARK    4  A    between atoms: C_4  and  C_6
REMARK    5  A    between atoms: C_7  and  C_8
REMARK    6  A    between atoms: C_13  and  C_14
REMARK    7  A    between atoms: C_18  and  O_19
REMARK    8  A    between atoms: O_19  and  C_20
REMARK    9  A    between atoms: C_20  and  C_21
REMARK   10  A    between atoms: C_21  and  O_23
REMARK   11  A    between atoms: C_28  and  C_29
REMARK                            x       y       z     vdW  Elec       q    Type
REMARK                         _______ _______ _______ _____ _____    ______ ____
ROOT
ATOM      1  C   UNL     1       0.829  14.452  21.217  0.00  0.00    +0.000 C 
ATOM      2  C   UNL     1       0.692  15.570  21.965  0.00  0.00    +0.000 C 
ATOM      3  C   UNL     1       1.809  16.387  22.572  0.00  0.00    +0.000 C 
ATOM      4  N   UNL     1      -0.544  16.132  22.219  0.00  0.00    +0.000 NA
ATOM      5  C   UNL     1      -1.590  15.536  21.764  0.00  0.00    +0.000 A 
ATOM      6  S   UNL     1      -3.199  16.161  21.991  0.00  0.00    +0.000 S 
ATOM      7  C   UNL     1      -3.907  14.787  21.220  0.00  0.00    +0.000 A 
ATOM      8  C   UNL     1      -5.216  14.505  21.261  0.00  0.00    +0.000 C 
ATOM      9  C   UNL     1      -2.831  13.954  20.605  0.00  0.00    +0.000 A 
ATOM     10  O   UNL     1      -3.018  13.080  19.774  0.00  0.00    +0.000 OA
ATOM     11  N   UNL     1      -1.605  14.374  21.066  0.00  0.00    +0.000 N 
ATOM     12  C   UNL     1      -0.373  13.735  20.646  0.00  0.00    +0.000 C 
ENDROOT
BRANCH  12  13
ATOM     13  C   UNL     1      -0.395  12.249  21.007  0.00  0.00    +0.000 A 
ATOM     14  C   UNL     1      -0.592  11.862  22.348  0.00  0.00    +0.000 A 
ATOM     15  C   UNL     1      -0.584  10.517  22.706  0.00  0.00    +0.000 A 
ATOM     16  C   UNL     1      -0.375   9.555  21.727  0.00  0.00    +0.000 A 
ATOM     17  F   UNL     1      -0.359   8.261  22.071  0.00  0.00    +0.000 F 
ATOM     18  C   UNL     1      -0.178   9.914  20.396  0.00  0.00    +0.000 A 
ATOM     19  C   UNL     1      -0.192  11.259  20.032  0.00  0.00    +0.000 A 
ENDBRANCH  12  13
BRANCH   8  20
ATOM     20  C   UNL     1      -5.795  13.240  20.800  0.00  0.00    +0.000 A 
ATOM     21  C   UNL     1      -6.632  12.485  21.626  0.00  0.00    +0.000 A 
ATOM     22  C   UNL     1      -7.224  11.320  21.138  0.00  0.00    +0.000 A 
ATOM     23  C   UNL     1      -6.967  10.899  19.833  0.00  0.00    +0.000 A 
ATOM     24  C   UNL     1      -6.104  11.627  19.014  0.00  0.00    +0.000 A 
ATOM     25  C   UNL     1      -5.534  12.809  19.490  0.00  0.00    +0.000 A 
BRANCH  24  26
ATOM     26  O   UNL     1      -5.914  11.105  17.763  0.00  0.00    +0.000 OA
BRANCH  26  27
ATOM     27  C   UNL     1      -4.975  11.800  16.934  0.00  0.00    +0.000 C 
BRANCH  27  28
ATOM     28  C   UNL     1      -3.639  11.081  17.021  0.00  0.00    +0.000 C 
ATOM     29  O   UNL     1      -3.519   9.864  17.030  0.00  0.00    +0.000 OA
BRANCH  28  30
ATOM     30  O   UNL     1      -2.577  11.921  17.081  0.00  0.00    +0.000 OA
ATOM     31  H   UNL     1      -2.138  11.830  17.956  0.00  0.00    +0.000 HD
ENDBRANCH  28  30
ENDBRANCH  27  28
ENDBRANCH  26  27
ENDBRANCH  24  26
ENDBRANCH   8  20
BRANCH   1  32
ATOM     32  C   UNL     1       2.157  13.894  20.840  0.00  0.00    +0.000 C 
ATOM     33  O   UNL     1       2.943  13.342  21.587  0.00  0.00    +0.000 OA
BRANCH  32  34
ATOM     34  O   UNL     1       2.385  14.199  19.539  0.00  0.00    +0.000 OA
BRANCH  34  36
ATOM     35  C   UNL     1       3.514  16.238  19.248  0.00  0.00    +0.000 C 
ATOM     36  C   UNL     1       3.675  14.733  19.222  0.00  0.00    +0.000 C 
ENDBRANCH  34  36
ENDBRANCH  32  34
ENDBRANCH   1  32
TORSDOF 9
ENDMDL
MODEL 7
REMARK VINA RESULT:      -5.9      2.959      4.377
REMARK  Name = 
REMARK  11 active torsions:
REMARK  status: ('A' for Active; 'I' for Inactive)
REMARK    1  A    between atoms: C_1  and  C_2
REMARK    2  A    between atoms: C_2  and  O_3
REMARK    3  A    between atoms: O_3  and  C_4
REMARK    4  A    between atoms: C_4  and  C_6
REMARK    5  A    between atoms: C_7  and  C_8
REMARK    6  A    between atoms: C_13  and  C_14
REMARK    7  A    between atoms: C_18  and  O_19
REMARK    8  A    between atoms: O_19  and  C_20
REMARK    9  A    between atoms: C_20  and  C_21
REMARK   10  A    between atoms: C_21  and  O_23
REMARK   11  A    between atoms: C_28  and  C_29
REMARK                            x       y       z     vdW  Elec       q    Type
REMARK                         _______ _______ _______ _____ _____    ______ ____
ROOT
ATOM      1  C   UNL     1      -5.980  14.403  22.907  0.00  0.00    +0.000 C 
ATOM      2  C   UNL     1      -7.040  13.665  23.305  0.00  0.00    +0.000 C 
ATOM      3  C   UNL     1      -7.860  13.871  24.558  0.00  0.00    +0.000 C 
ATOM      4  N   UNL     1      -7.535  12.625  22.541  0.00  0.00    +0.000 NA
ATOM      5  C   UNL     1      -6.929  12.333  21.444  0.00  0.00    +0.000 A 
ATOM      6  S   UNL     1      -7.472  11.067  20.380  0.00  0.00    +0.000 S 
ATOM      7  C   UNL     1      -6.124  11.292  19.324  0.00  0.00    +0.000 A 
ATOM      8  C   UNL     1      -5.788  10.430  18.355  0.00  0.00    +0.000 C 
ATOM      9  C   UNL     1      -5.377  12.520  19.729  0.00  0.00    +0.000 A 
ATOM     10  O   UNL     1      -4.552  13.093  19.034  0.00  0.00    +0.000 OA
ATOM     11  N   UNL     1      -5.814  12.938  20.964  0.00  0.00    +0.000 N 
ATOM     12  C   UNL     1      -5.254  14.106  21.615  0.00  0.00    +0.000 C 
ENDROOT
BRANCH  12  13
ATOM     13  C   UNL     1      -3.748  13.931  21.817  0.00  0.00    +0.000 A 
ATOM     14  C   UNL     1      -2.860  14.881  21.275  0.00  0.00    +0.000 A 
ATOM     15  C   UNL     1      -1.483  14.726  21.418  0.00  0.00    +0.000 A 
ATOM     16  C   UNL     1      -0.992  13.620  22.099  0.00  0.00    +0.000 A 
ATOM     17  F   UNL     1       0.332  13.466  22.230  0.00  0.00    +0.000 F 
ATOM     18  C   UNL     1      -1.851  12.670  22.642  0.00  0.00    +0.000 A 
ATOM     19  C   UNL     1      -3.229  12.824  22.508  0.00  0.00    +0.000 A 
ENDBRANCH  12  13
BRANCH   8  20
ATOM     20  C   UNL     1      -4.533  10.497  17.601  0.00  0.00    +0.000 A 
ATOM     21  C   UNL     1      -4.515  10.894  16.261  0.00  0.00    +0.000 A 
ATOM     22  C   UNL     1      -3.300  11.015  15.587  0.00  0.00    +0.000 A 
ATOM     23  C   UNL     1      -2.104  10.724  16.244  0.00  0.00    +0.000 A 
ATOM     24  C   UNL     1      -2.115  10.294  17.571  0.00  0.00    +0.000 A 
ATOM     25  C   UNL     1      -3.328  10.199  18.256  0.00  0.00    +0.000 A 
BRANCH  24  26
ATOM     26  O   UNL     1      -0.884  10.019  18.102  0.00  0.00    +0.000 OA
BRANCH  26  27
ATOM     27  C   UNL     1      -0.736  10.284  19.502  0.00  0.00    +0.000 C 
BRANCH  27  28
ATOM     28  C   UNL     1       0.653   9.835  19.927  0.00  0.00    +0.000 C 
ATOM     29  O   UNL     1       1.339   9.047  19.292  0.00  0.00    +0.000 OA
BRANCH  28  30
ATOM     30  O   UNL     1       1.072  10.402  21.085  0.00  0.00    +0.000 OA
ATOM     31  H   UNL     1       0.291  10.642  21.632  0.00  0.00    +0.000 HD
ENDBRANCH  28  30
ENDBRANCH  27  28
ENDBRANCH  26  27
ENDBRANCH  24  26
ENDBRANCH   8  20
BRANCH   1  32
ATOM     32  C   UNL     1      -5.502  15.594  23.662  0.00  0.00    +0.000 C 
ATOM     33  O   UNL     1      -4.698  15.592  24.576  0.00  0.00    +0.000 OA
BRANCH  32  34
ATOM     34  O   UNL     1      -6.194  16.673  23.222  0.00  0.00    +0.000 OA
BRANCH  34  36
ATOM     35  C   UNL     1      -4.688  18.094  22.113  0.00  0.00    +0.000 C 
ATOM     36  C   UNL     1      -5.549  17.945  23.349  0.00  0.00    +0.000 C 
ENDBRANCH  34  36
ENDBRANCH  32  34
ENDBRANCH   1  32
TORSDOF 9
ENDMDL
MODEL 8
REMARK VINA RESULT:      -5.9      4.445      7.100
REMARK  Name = 
REMARK  11 active torsions:
REMARK  status: ('A' for Active; 'I' for Inactive)
REMARK    1  A    between atoms: C_1  and  C_2
REMARK    2  A    between atoms: C_2  and  O_3
REMARK    3  A    between atoms: O_3  and  C_4
REMARK    4  A    between atoms: C_4  and  C_6
REMARK    5  A    between atoms: C_7  and  C_8
REMARK    6  A    between atoms: C_13  and  C_14
REMARK    7  A    between atoms: C_18  and  O_19
REMARK    8  A    between atoms: O_19  and  C_20
REMARK    9  A    between atoms: C_20  and  C_21
REMARK   10  A    between atoms: C_21  and  O_23
REMARK   11  A    between atoms: C_28  and  C_29
REMARK                            x       y       z     vdW  Elec       q    Type
REMARK                         _______ _______ _______ _____ _____    ______ ____
ROOT
ATOM      1  C   UNL     1      -4.124  12.734  19.855  0.00  0.00    +0.000 C 
ATOM      2  C   UNL     1      -3.636  13.816  20.502  0.00  0.00    +0.000 C 
ATOM      3  C   UNL     1      -4.377  15.101  20.790  0.00  0.00    +0.000 C 
ATOM      4  N   UNL     1      -2.361  13.836  21.035  0.00  0.00    +0.000 NA
ATOM      5  C   UNL     1      -1.612  12.804  20.859  0.00  0.00    +0.000 A 
ATOM      6  S   UNL     1       0.001  12.696  21.507  0.00  0.00    +0.000 S 
ATOM      7  C   UNL     1       0.265  11.163  20.754  0.00  0.00    +0.000 A 
ATOM      8  C   UNL     1       1.469  10.582  20.657  0.00  0.00    +0.000 C 
ATOM      9  C   UNL     1      -1.018  10.668  20.175  0.00  0.00    +0.000 A 
ATOM     10  O   UNL     1      -1.224   9.517  19.821  0.00  0.00    +0.000 OA
ATOM     11  N   UNL     1      -1.943  11.685  20.169  0.00  0.00    +0.000 N 
ATOM     12  C   UNL     1      -3.283  11.495  19.649  0.00  0.00    +0.000 C 
ENDROOT
BRANCH  12  13
ATOM     13  C   UNL     1      -3.227  11.064  18.182  0.00  0.00    +0.000 A 
ATOM     14  C   UNL     1      -2.466  11.815  17.265  0.00  0.00    +0.000 A 
ATOM     15  C   UNL     1      -2.425  11.461  15.919  0.00  0.00    +0.000 A 
ATOM     16  C   UNL     1      -3.147  10.357  15.486  0.00  0.00    +0.000 A 
ATOM     17  F   UNL     1      -3.115  10.020  14.191  0.00  0.00    +0.000 F 
ATOM     18  C   UNL     1      -3.906   9.600  16.375  0.00  0.00    +0.000 A 
ATOM     19  C   UNL     1      -3.945   9.947  17.723  0.00  0.00    +0.000 A 
ENDBRANCH  12  13
BRANCH   8  20
ATOM     20  C   UNL     1       1.739   9.396  19.839  0.00  0.00    +0.000 A 
ATOM     21  C   UNL     1       1.996   9.507  18.470  0.00  0.00    +0.000 A 
ATOM     22  C   UNL     1       2.318   8.370  17.728  0.00  0.00    +0.000 A 
ATOM     23  C   UNL     1       2.367   7.122  18.349  0.00  0.00    +0.000 A 
ATOM     24  C   UNL     1       2.078   6.997  19.708  0.00  0.00    +0.000 A 
ATOM     25  C   UNL     1       1.783   8.137  20.458  0.00  0.00    +0.000 A 
BRANCH  24  26
ATOM     26  O   UNL     1       2.139   5.722  20.199  0.00  0.00    +0.000 OA
BRANCH  26  27
ATOM     27  C   UNL     1       2.509   4.708  19.258  0.00  0.00    +0.000 C 
BRANCH  27  28
ATOM     28  C   UNL     1       1.317   3.788  19.054  0.00  0.00    +0.000 C 
ATOM     29  O   UNL     1       1.013   3.293  17.978  0.00  0.00    +0.000 OA
BRANCH  28  30
ATOM     30  O   UNL     1       0.615   3.554  20.191  0.00  0.00    +0.000 OA
ATOM     31  H   UNL     1      -0.338   3.452  19.970  0.00  0.00    +0.000 HD
ENDBRANCH  28  30
ENDBRANCH  27  28
ENDBRANCH  26  27
ENDBRANCH  24  26
ENDBRANCH   8  20
BRANCH   1  32
ATOM     32  C   UNL     1      -5.530  12.652  19.373  0.00  0.00    +0.000 C 
ATOM     33  O   UNL     1      -5.986  13.207  18.390  0.00  0.00    +0.000 OA
BRANCH  32  34
ATOM     34  O   UNL     1      -6.242  11.934  20.276  0.00  0.00    +0.000 OA
BRANCH  34  36
ATOM     35  C   UNL     1      -7.870  10.370  20.922  0.00  0.00    +0.000 C 
ATOM     36  C   UNL     1      -7.032  10.858  19.760  0.00  0.00    +0.000 C 
ENDBRANCH  34  36
ENDBRANCH  32  34
ENDBRANCH   1  32
TORSDOF 9
ENDMDL
MODEL 9
REMARK VINA RESULT:      -5.8      5.046      6.464
REMARK  Name = 
REMARK  11 active torsions:
REMARK  status: ('A' for Active; 'I' for Inactive)
REMARK    1  A    between atoms: C_1  and  C_2
REMARK    2  A    between atoms: C_2  and  O_3
REMARK    3  A    between atoms: O_3  and  C_4
REMARK    4  A    between atoms: C_4  and  C_6
REMARK    5  A    between atoms: C_7  and  C_8
REMARK    6  A    between atoms: C_13  and  C_14
REMARK    7  A    between atoms: C_18  and  O_19
REMARK    8  A    between atoms: O_19  and  C_20
REMARK    9  A    between atoms: C_20  and  C_21
REMARK   10  A    between atoms: C_21  and  O_23
REMARK   11  A    between atoms: C_28  and  C_29
REMARK                            x       y       z     vdW  Elec       q    Type
REMARK                         _______ _______ _______ _____ _____    ______ ____
ROOT
ATOM      1  C   UNL     1      -0.996  13.671  21.602  0.00  0.00    +0.000 C 
ATOM      2  C   UNL     1      -1.249  13.346  22.890  0.00  0.00    +0.000 C 
ATOM      3  C   UNL     1      -1.785  14.268  23.961  0.00  0.00    +0.000 C 
ATOM      4  N   UNL     1      -1.081  12.060  23.366  0.00  0.00    +0.000 NA
ATOM      5  C   UNL     1      -0.624  11.167  22.560  0.00  0.00    +0.000 A 
ATOM      6  S   UNL     1      -0.397   9.506  23.030  0.00  0.00    +0.000 S 
ATOM      7  C   UNL     1       0.291   9.102  21.498  0.00  0.00    +0.000 A 
ATOM      8  C   UNL     1       0.933   7.952  21.252  0.00  0.00    +0.000 C 
ATOM      9  C   UNL     1       0.131  10.255  20.563  0.00  0.00    +0.000 A 
ATOM     10  O   UNL     1       0.264  10.192  19.351  0.00  0.00    +0.000 OA
ATOM     11  N   UNL     1      -0.258  11.369  21.270  0.00  0.00    +0.000 N 
ATOM     12  C   UNL     1      -0.479  12.646  20.619  0.00  0.00    +0.000 C 
ENDROOT
BRANCH  12  13
ATOM     13  C   UNL     1       0.795  13.108  19.908  0.00  0.00    +0.000 A 
ATOM     14  C   UNL     1       0.772  13.329  18.517  0.00  0.00    +0.000 A 
ATOM     15  C   UNL     1       1.927  13.718  17.843  0.00  0.00    +0.000 A 
ATOM     16  C   UNL     1       3.107  13.883  18.556  0.00  0.00    +0.000 A 
ATOM     17  F   UNL     1       4.219  14.250  17.908  0.00  0.00    +0.000 F 
ATOM     18  C   UNL     1       3.151  13.669  19.931  0.00  0.00    +0.000 A 
ATOM     19  C   UNL     1       1.997  13.287  20.611  0.00  0.00    +0.000 A 
ENDBRANCH  12  13
BRANCH   8  20
ATOM     20  C   UNL     1       1.703   7.690  20.033  0.00  0.00    +0.000 A 
ATOM     21  C   UNL     1       1.913   8.693  19.082  0.00  0.00    +0.000 A 
ATOM     22  C   UNL     1       2.707   8.436  17.964  0.00  0.00    +0.000 A 
ATOM     23  C   UNL     1       3.277   7.175  17.787  0.00  0.00    +0.000 A 
ATOM     24  C   UNL     1       3.044   6.158  18.713  0.00  0.00    +0.000 A 
ATOM     25  C   UNL     1       2.273   6.421  19.847  0.00  0.00    +0.000 A 
BRANCH  24  26
ATOM     26  O   UNL     1       3.639   4.961  18.421  0.00  0.00    +0.000 OA
BRANCH  26  27
ATOM     27  C   UNL     1       3.089   3.815  19.082  0.00  0.00    +0.000 C 
BRANCH  27  28
ATOM     28  C   UNL     1       2.503   2.892  18.027  0.00  0.00    +0.000 C 
ATOM     29  O   UNL     1       1.978   3.283  16.993  0.00  0.00    +0.000 OA
BRANCH  28  30
ATOM     30  O   UNL     1       2.623   1.577  18.333  0.00  0.00    +0.000 OA
ATOM     31  H   UNL     1       3.369   1.190  17.823  0.00  0.00    +0.000 HD
ENDBRANCH  28  30
ENDBRANCH  27  28
ENDBRANCH  26  27
ENDBRANCH  24  26
ENDBRANCH   8  20
BRANCH   1  32
ATOM     32  C   UNL     1      -1.276  15.023  21.045  0.00  0.00    +0.000 C 
ATOM     33  O   UNL     1      -2.242  15.339  20.376  0.00  0.00    +0.000 OA
BRANCH  32  34
ATOM     34  O   UNL     1      -0.215  15.819  21.326  0.00  0.00    +0.000 OA
BRANCH  34  36
ATOM     35  C   UNL     1       1.664  17.004  20.563  0.00  0.00    +0.000 C 
ATOM     36  C   UNL     1       0.201  16.720  20.294  0.00  0.00    +0.000 C 
ENDBRANCH  34  36
ENDBRANCH  32  34
ENDBRANCH   1  32
TORSDOF 9
ENDMDL
