MODEL 1
REMARK VINA RESULT:      -7.8      0.000      0.000
REMARK  Name = 
REMARK  4 active torsions:
REMARK  status: ('A' for Active; 'I' for Inactive)
REMARK    1  A    between atoms: C_2  and  C_3
REMARK    2  A    between atoms: N_6  and  S_7
REMARK    3  A    between atoms: S_7  and  C_10
REMARK    4  A    between atoms: C_15  and  N_16
REMARK                            x       y       z     vdW  Elec       q    Type
REMARK                         _______ _______ _______ _____ _____    ______ ____
ROOT
ATOM      1  C   UNL     1       6.713   5.050  17.013  0.00  0.00    +0.000 C 
ATOM      2  C   UNL     1       6.380   4.537  18.430  0.00  0.00    +0.000 C 
ATOM      3  C   UNL     1       4.927   4.742  18.896  0.00  0.00    +0.000 C 
ATOM      4  N   UNL     1       4.386   6.090  18.544  0.00  0.00    +0.000 NA
ATOM      5  C   UNL     1       4.653   6.456  17.129  0.00  0.00    +0.000 C 
ATOM      6  C   UNL     1       6.153   6.464  16.881  0.00  0.00    +0.000 C 
ENDROOT
BRANCH   1   8
ATOM      7  O   UNL     1       5.408   3.218  16.170  0.00  0.00    +0.000 OA
ATOM      8  C   UNL     1       6.191   4.131  15.896  0.00  0.00    +0.000 C 
ATOM      9  N   UNL     1       6.588   4.369  14.580  0.00  0.00    +0.000 N 
ATOM     10  C   UNL     1       5.865   3.664  13.510  0.00  0.00    +0.000 C 
ATOM     11  C   UNL     1       6.717   3.462  12.250  0.00  0.00    +0.000 C 
ATOM     12  O   UNL     1       7.309   4.693  11.815  0.00  0.00    +0.000 OA
ATOM     13  C   UNL     1       8.158   5.222  12.841  0.00  0.00    +0.000 C 
ATOM     14  C   UNL     1       7.355   5.531  14.111  0.00  0.00    +0.000 C 
ENDBRANCH   1   8
BRANCH   4  15
ATOM     15  S   UNL     1       2.739   6.356  18.942  0.00  0.00    +0.000 S 
ATOM     16  O   UNL     1       2.658   7.383  19.961  0.00  0.00    +0.000 OA
ATOM     17  O   UNL     1       2.012   6.513  17.702  0.00  0.00    +0.000 OA
BRANCH  15  18
ATOM     18  C   UNL     1       2.169   4.872  19.715  0.00  0.00    +0.000 A 
ATOM     19  C   UNL     1       2.351   4.718  21.100  0.00  0.00    +0.000 A 
ATOM     20  C   UNL     1       2.051   3.501  21.723  0.00  0.00    +0.000 A 
ATOM     21  C   UNL     1       1.565   2.428  20.977  0.00  0.00    +0.000 A 
ATOM     22  C   UNL     1       1.407   2.558  19.597  0.00  0.00    +0.000 A 
ATOM     23  C   UNL     1       1.729   3.774  18.973  0.00  0.00    +0.000 A 
BRANCH  23  24
ATOM     24  N   UNL     1       1.625   3.810  17.528  0.00  0.00    +0.000 N 
ATOM     25  O   UNL     1       0.612   4.329  17.047  0.00  0.00    +0.000 OA
ATOM     26  O   UNL     1       2.504   3.219  16.891  0.00  0.00    +0.000 OA
ENDBRANCH  23  24
ENDBRANCH  15  18
ENDBRANCH   4  15
TORSDOF 4
ENDMDL
MODEL 2
REMARK VINA RESULT:      -7.0      4.769      7.747
REMARK  Name = 
REMARK  4 active torsions:
REMARK  status: ('A' for Active; 'I' for Inactive)
REMARK    1  A    between atoms: C_2  and  C_3
REMARK    2  A    between atoms: N_6  and  S_7
REMARK    3  A    between atoms: S_7  and  C_10
REMARK    4  A    between atoms: C_15  and  N_16
REMARK                            x       y       z     vdW  Elec       q    Type
REMARK                         _______ _______ _______ _____ _____    ______ ____
ROOT
ATOM      1  C   UNL     1       0.496   9.920  18.978  0.00  0.00    +0.000 C 
ATOM      2  C   UNL     1       0.764   8.927  20.129  0.00  0.00    +0.000 C 
ATOM      3  C   UNL     1       2.006   8.031  19.972  0.00  0.00    +0.000 C 
ATOM      4  N   UNL     1       2.161   7.487  18.588  0.00  0.00    +0.000 NA
ATOM      5  C   UNL     1       2.000   8.533  17.546  0.00  0.00    +0.000 C 
ATOM      6  C   UNL     1       0.618   9.158  17.661  0.00  0.00    +0.000 C 
ENDROOT
BRANCH   1   8
ATOM      7  O   UNL     1       2.413  11.183  18.269  0.00  0.00    +0.000 OA
ATOM      8  C   UNL     1       1.425  11.146  19.007  0.00  0.00    +0.000 C 
ATOM      9  N   UNL     1       1.112  12.214  19.847  0.00  0.00    +0.000 N 
ATOM     10  C   UNL     1       1.846  13.475  19.653  0.00  0.00    +0.000 C 
ATOM     11  C   UNL     1       1.931  14.316  20.933  0.00  0.00    +0.000 C 
ATOM     12  O   UNL     1       0.639  14.502  21.525  0.00  0.00    +0.000 OA
ATOM     13  C   UNL     1       0.068  13.234  21.868  0.00  0.00    +0.000 C 
ATOM     14  C   UNL     1      -0.129  12.365  20.620  0.00  0.00    +0.000 C 
ENDBRANCH   1   8
BRANCH   4  15
ATOM     15  S   UNL     1       3.577   6.561  18.309  0.00  0.00    +0.000 S 
ATOM     16  O   UNL     1       4.171   6.970  17.052  0.00  0.00    +0.000 OA
ATOM     17  O   UNL     1       4.363   6.594  19.521  0.00  0.00    +0.000 OA
BRANCH  15  18
ATOM     18  C   UNL     1       3.040   4.895  18.062  0.00  0.00    +0.000 A 
ATOM     19  C   UNL     1       1.680   4.589  18.242  0.00  0.00    +0.000 A 
ATOM     20  C   UNL     1       1.241   3.260  18.202  0.00  0.00    +0.000 A 
ATOM     21  C   UNL     1       2.149   2.225  17.979  0.00  0.00    +0.000 A 
ATOM     22  C   UNL     1       3.506   2.512  17.828  0.00  0.00    +0.000 A 
ATOM     23  C   UNL     1       3.944   3.845  17.890  0.00  0.00    +0.000 A 
BRANCH  23  24
ATOM     24  N   UNL     1       5.375   4.062  17.813  0.00  0.00    +0.000 N 
ATOM     25  O   UNL     1       5.870   4.170  16.687  0.00  0.00    +0.000 OA
ATOM     26  O   UNL     1       6.004   4.011  18.876  0.00  0.00    +0.000 OA
ENDBRANCH  23  24
ENDBRANCH  15  18
ENDBRANCH   4  15
TORSDOF 4
ENDMDL
MODEL 3
REMARK VINA RESULT:      -6.9      4.715      7.996
REMARK  Name = 
REMARK  4 active torsions:
REMARK  status: ('A' for Active; 'I' for Inactive)
REMARK    1  A    between atoms: C_2  and  C_3
REMARK    2  A    between atoms: N_6  and  S_7
REMARK    3  A    between atoms: S_7  and  C_10
REMARK    4  A    between atoms: C_15  and  N_16
REMARK                            x       y       z     vdW  Elec       q    Type
REMARK                         _______ _______ _______ _____ _____    ______ ____
ROOT
ATOM      1  C   UNL     1       1.062  10.312  18.878  0.00  0.00    +0.000 C 
ATOM      2  C   UNL     1       2.246  10.016  17.933  0.00  0.00    +0.000 C 
ATOM      3  C   UNL     1       2.584   8.530  17.720  0.00  0.00    +0.000 C 
ATOM      4  N   UNL     1       2.542   7.735  18.986  0.00  0.00    +0.000 NA
ATOM      5  C   UNL     1       1.313   7.997  19.779  0.00  0.00    +0.000 C 
ATOM      6  C   UNL     1       1.246   9.473  20.139  0.00  0.00    +0.000 C 
ENDROOT
BRANCH   1   8
ATOM      7  O   UNL     1      -0.418   9.220  17.331  0.00  0.00    +0.000 OA
ATOM      8  C   UNL     1      -0.310  10.060  18.229  0.00  0.00    +0.000 C 
ATOM      9  N   UNL     1      -1.420  10.765  18.694  0.00  0.00    +0.000 N 
ATOM     10  C   UNL     1      -2.750  10.310  18.259  0.00  0.00    +0.000 C 
ATOM     11  C   UNL     1      -3.791  11.436  18.253  0.00  0.00    +0.000 C 
ATOM     12  O   UNL     1      -3.816  12.134  19.505  0.00  0.00    +0.000 OA
ATOM     13  C   UNL     1      -2.535  12.719  19.768  0.00  0.00    +0.000 C 
ATOM     14  C   UNL     1      -1.450  11.640  19.874  0.00  0.00    +0.000 C 
ENDBRANCH   1   8
BRANCH   4  15
ATOM     15  S   UNL     1       2.808   6.050  18.813  0.00  0.00    +0.000 S 
ATOM     16  O   UNL     1       2.773   5.429  20.122  0.00  0.00    +0.000 OA
ATOM     17  O   UNL     1       1.931   5.576  17.767  0.00  0.00    +0.000 OA
BRANCH  15  18
ATOM     18  C   UNL     1       4.472   5.866  18.245  0.00  0.00    +0.000 A 
ATOM     19  C   UNL     1       5.114   6.973  17.661  0.00  0.00    +0.000 A 
ATOM     20  C   UNL     1       6.372   6.829  17.066  0.00  0.00    +0.000 A 
ATOM     21  C   UNL     1       7.006   5.587  17.048  0.00  0.00    +0.000 A 
ATOM     22  C   UNL     1       6.368   4.475  17.598  0.00  0.00    +0.000 A 
ATOM     23  C   UNL     1       5.096   4.619  18.176  0.00  0.00    +0.000 A 
BRANCH  23  24
ATOM     24  N   UNL     1       4.455   3.408  18.648  0.00  0.00    +0.000 N 
ATOM     25  O   UNL     1       4.812   2.973  19.748  0.00  0.00    +0.000 OA
ATOM     26  O   UNL     1       3.684   2.844  17.865  0.00  0.00    +0.000 OA
ENDBRANCH  23  24
ENDBRANCH  15  18
ENDBRANCH   4  15
TORSDOF 4
ENDMDL
MODEL 4
REMARK VINA RESULT:      -6.7     10.435     12.948
REMARK  Name = 
REMARK  4 active torsions:
REMARK  status: ('A' for Active; 'I' for Inactive)
REMARK    1  A    between atoms: C_2  and  C_3
REMARK    2  A    between atoms: N_6  and  S_7
REMARK    3  A    between atoms: S_7  and  C_10
REMARK    4  A    between atoms: C_15  and  N_16
REMARK                            x       y       z     vdW  Elec       q    Type
REMARK                         _______ _______ _______ _____ _____    ______ ____
ROOT
ATOM      1  C   UNL     1       3.820  14.946  19.256  0.00  0.00    +0.000 C 
ATOM      2  C   UNL     1       4.696  15.054  20.522  0.00  0.00    +0.000 C 
ATOM      3  C   UNL     1       6.147  15.519  20.301  0.00  0.00    +0.000 C 
ATOM      4  N   UNL     1       6.789  14.879  19.113  0.00  0.00    +0.000 NA
ATOM      5  C   UNL     1       5.922  14.920  17.908  0.00  0.00    +0.000 C 
ATOM      6  C   UNL     1       4.618  14.192  18.196  0.00  0.00    +0.000 C 
ENDROOT
BRANCH   1   8
ATOM      7  O   UNL     1       4.162  17.185  18.453  0.00  0.00    +0.000 OA
ATOM      8  C   UNL     1       3.338  16.311  18.733  0.00  0.00    +0.000 C 
ATOM      9  N   UNL     1       1.971  16.523  18.553  0.00  0.00    +0.000 N 
ATOM     10  C   UNL     1       1.559  17.716  17.797  0.00  0.00    +0.000 C 
ATOM     11  C   UNL     1       0.161  18.212  18.185  0.00  0.00    +0.000 C 
ATOM     12  O   UNL     1      -0.804  17.152  18.134  0.00  0.00    +0.000 OA
ATOM     13  C   UNL     1      -0.437  16.109  19.045  0.00  0.00    +0.000 C 
ATOM     14  C   UNL     1       0.920  15.503  18.668  0.00  0.00    +0.000 C 
ENDBRANCH   1   8
BRANCH   4  15
ATOM     15  S   UNL     1       8.373  15.422  18.743  0.00  0.00    +0.000 S 
ATOM     16  O   UNL     1       8.316  16.299  17.591  0.00  0.00    +0.000 OA
ATOM     17  O   UNL     1       8.971  15.888  19.974  0.00  0.00    +0.000 OA
BRANCH  15  18
ATOM     18  C   UNL     1       9.275  13.997  18.213  0.00  0.00    +0.000 A 
ATOM     19  C   UNL     1       8.689  12.729  18.368  0.00  0.00    +0.000 A 
ATOM     20  C   UNL     1       9.428  11.570  18.100  0.00  0.00    +0.000 A 
ATOM     21  C   UNL     1      10.751  11.661  17.672  0.00  0.00    +0.000 A 
ATOM     22  C   UNL     1      11.354  12.912  17.541  0.00  0.00    +0.000 A 
ATOM     23  C   UNL     1      10.616  14.072  17.831  0.00  0.00    +0.000 A 
BRANCH  23  24
ATOM     24  N   UNL     1      11.330  15.331  17.759  0.00  0.00    +0.000 N 
ATOM     25  O   UNL     1      11.294  15.940  16.685  0.00  0.00    +0.000 OA
ATOM     26  O   UNL     1      12.012  15.643  18.742  0.00  0.00    +0.000 OA
ENDBRANCH  23  24
ENDBRANCH  15  18
ENDBRANCH   4  15
TORSDOF 4
ENDMDL
MODEL 5
REMARK VINA RESULT:      -6.7      4.668      7.926
REMARK  Name = 
REMARK  4 active torsions:
REMARK  status: ('A' for Active; 'I' for Inactive)
REMARK    1  A    between atoms: C_2  and  C_3
REMARK    2  A    between atoms: N_6  and  S_7
REMARK    3  A    between atoms: S_7  and  C_10
REMARK    4  A    between atoms: C_15  and  N_16
REMARK                            x       y       z     vdW  Elec       q    Type
REMARK                         _______ _______ _______ _____ _____    ______ ____
ROOT
ATOM      1  C   UNL     1       1.181  10.290  18.864  0.00  0.00    +0.000 C 
ATOM      2  C   UNL     1       2.292   9.883  17.873  0.00  0.00    +0.000 C 
ATOM      3  C   UNL     1       2.495   8.370  17.672  0.00  0.00    +0.000 C 
ATOM      4  N   UNL     1       2.442   7.599  18.951  0.00  0.00    +0.000 NA
ATOM      5  C   UNL     1       1.277   7.974  19.793  0.00  0.00    +0.000 C 
ATOM      6  C   UNL     1       1.350   9.455  20.130  0.00  0.00    +0.000 C 
ENDROOT
BRANCH   1   8
ATOM      7  O   UNL     1      -0.440   9.349  17.360  0.00  0.00    +0.000 OA
ATOM      8  C   UNL     1      -0.235  10.146  18.279  0.00  0.00    +0.000 C 
ATOM      9  N   UNL     1      -1.274  10.899  18.826  0.00  0.00    +0.000 N 
ATOM     10  C   UNL     1      -2.650  10.543  18.446  0.00  0.00    +0.000 C 
ATOM     11  C   UNL     1      -3.617  11.730  18.534  0.00  0.00    +0.000 C 
ATOM     12  O   UNL     1      -3.535  12.380  19.809  0.00  0.00    +0.000 OA
ATOM     13  C   UNL     1      -2.209  12.875  20.024  0.00  0.00    +0.000 C 
ATOM     14  C   UNL     1      -1.190  11.729  20.036  0.00  0.00    +0.000 C 
ENDBRANCH   1   8
BRANCH   4  15
ATOM     15  S   UNL     1       2.559   5.895  18.796  0.00  0.00    +0.000 S 
ATOM     16  O   UNL     1       2.917   5.326  20.080  0.00  0.00    +0.000 OA
ATOM     17  O   UNL     1       1.370   5.438  18.113  0.00  0.00    +0.000 OA
BRANCH  15  18
ATOM     18  C   UNL     1       3.940   5.586  17.737  0.00  0.00    +0.000 A 
ATOM     19  C   UNL     1       4.693   6.678  17.271  0.00  0.00    +0.000 A 
ATOM     20  C   UNL     1       5.698   6.489  16.315  0.00  0.00    +0.000 A 
ATOM     21  C   UNL     1       5.966   5.215  15.817  0.00  0.00    +0.000 A 
ATOM     22  C   UNL     1       5.208   4.127  16.249  0.00  0.00    +0.000 A 
ATOM     23  C   UNL     1       4.186   4.324  17.192  0.00  0.00    +0.000 A 
BRANCH  23  24
ATOM     24  N   UNL     1       3.381   3.167  17.530  0.00  0.00    +0.000 N 
ATOM     25  O   UNL     1       2.374   2.961  16.845  0.00  0.00    +0.000 OA
ATOM     26  O   UNL     1       3.703   2.541  18.545  0.00  0.00    +0.000 OA
ENDBRANCH  23  24
ENDBRANCH  15  18
ENDBRANCH   4  15
TORSDOF 4
ENDMDL
MODEL 6
REMARK VINA RESULT:      -6.7      4.910      7.644
REMARK  Name = 
REMARK  4 active torsions:
REMARK  status: ('A' for Active; 'I' for Inactive)
REMARK    1  A    between atoms: C_2  and  C_3
REMARK    2  A    between atoms: N_6  and  S_7
REMARK    3  A    between atoms: S_7  and  C_10
REMARK    4  A    between atoms: C_15  and  N_16
REMARK                            x       y       z     vdW  Elec       q    Type
REMARK                         _______ _______ _______ _____ _____    ______ ____
ROOT
ATOM      1  C   UNL     1       0.446   9.908  18.856  0.00  0.00    +0.000 C 
ATOM      2  C   UNL     1       0.815   9.040  20.077  0.00  0.00    +0.000 C 
ATOM      3  C   UNL     1       2.065   8.154  19.922  0.00  0.00    +0.000 C 
ATOM      4  N   UNL     1       2.139   7.478  18.590  0.00  0.00    +0.000 NA
ATOM      5  C   UNL     1       1.882   8.413  17.464  0.00  0.00    +0.000 C 
ATOM      6  C   UNL     1       0.496   9.022  17.616  0.00  0.00    +0.000 C 
ENDROOT
BRANCH   1   8
ATOM      7  O   UNL     1       2.513  11.013  18.329  0.00  0.00    +0.000 OA
ATOM      8  C   UNL     1       1.344  11.148  18.699  0.00  0.00    +0.000 C 
ATOM      9  N   UNL     1       0.807  12.410  18.948  0.00  0.00    +0.000 N 
ATOM     10  C   UNL     1       1.590  13.582  18.525  0.00  0.00    +0.000 C 
ATOM     11  C   UNL     1       1.290  14.831  19.362  0.00  0.00    +0.000 C 
ATOM     12  O   UNL     1      -0.118  15.091  19.432  0.00  0.00    +0.000 OA
ATOM     13  C   UNL     1      -0.793  13.982  20.037  0.00  0.00    +0.000 C 
ATOM     14  C   UNL     1      -0.610  12.707  19.204  0.00  0.00    +0.000 C 
ENDBRANCH   1   8
BRANCH   4  15
ATOM     15  S   UNL     1       3.554   6.554  18.305  0.00  0.00    +0.000 S 
ATOM     16  O   UNL     1       4.137   6.959  17.041  0.00  0.00    +0.000 OA
ATOM     17  O   UNL     1       4.350   6.593  19.510  0.00  0.00    +0.000 OA
BRANCH  15  18
ATOM     18  C   UNL     1       3.019   4.886  18.068  0.00  0.00    +0.000 A 
ATOM     19  C   UNL     1       1.657   4.582  18.239  0.00  0.00    +0.000 A 
ATOM     20  C   UNL     1       1.218   3.253  18.207  0.00  0.00    +0.000 A 
ATOM     21  C   UNL     1       2.127   2.216  18.003  0.00  0.00    +0.000 A 
ATOM     22  C   UNL     1       3.485   2.501  17.861  0.00  0.00    +0.000 A 
ATOM     23  C   UNL     1       3.924   3.834  17.914  0.00  0.00    +0.000 A 
BRANCH  23  24
ATOM     24  N   UNL     1       5.356   4.050  17.848  0.00  0.00    +0.000 N 
ATOM     25  O   UNL     1       5.972   4.081  18.918  0.00  0.00    +0.000 OA
ATOM     26  O   UNL     1       5.831   4.298  16.734  0.00  0.00    +0.000 OA
ENDBRANCH  23  24
ENDBRANCH  15  18
ENDBRANCH   4  15
TORSDOF 4
ENDMDL
MODEL 7
REMARK VINA RESULT:      -6.6      5.101      7.248
REMARK  Name = 
REMARK  4 active torsions:
REMARK  status: ('A' for Active; 'I' for Inactive)
REMARK    1  A    between atoms: C_2  and  C_3
REMARK    2  A    between atoms: N_6  and  S_7
REMARK    3  A    between atoms: S_7  and  C_10
REMARK    4  A    between atoms: C_15  and  N_16
REMARK                            x       y       z     vdW  Elec       q    Type
REMARK                         _______ _______ _______ _____ _____    ______ ____
ROOT
ATOM      1  C   UNL     1       3.279   6.642  18.753  0.00  0.00    +0.000 C 
ATOM      2  C   UNL     1       2.789   7.150  20.125  0.00  0.00    +0.000 C 
ATOM      3  C   UNL     1       1.513   8.011  20.109  0.00  0.00    +0.000 C 
ATOM      4  N   UNL     1       1.496   9.009  18.997  0.00  0.00    +0.000 NA
ATOM      5  C   UNL     1       1.870   8.409  17.690  0.00  0.00    +0.000 C 
ATOM      6  C   UNL     1       3.270   7.821  17.784  0.00  0.00    +0.000 C 
ENDROOT
BRANCH   1   8
ATOM      7  O   UNL     1       1.409   5.680  17.590  0.00  0.00    +0.000 OA
ATOM      8  C   UNL     1       2.452   5.462  18.212  0.00  0.00    +0.000 C 
ATOM      9  N   UNL     1       2.917   4.162  18.407  0.00  0.00    +0.000 N 
ATOM     10  C   UNL     1       2.266   3.082  17.648  0.00  0.00    +0.000 C 
ATOM     11  C   UNL     1       2.356   1.723  18.353  0.00  0.00    +0.000 C 
ATOM     12  O   UNL     1       3.706   1.415  18.727  0.00  0.00    +0.000 OA
ATOM     13  C   UNL     1       4.207   2.411  19.625  0.00  0.00    +0.000 C 
ATOM     14  C   UNL     1       4.228   3.792  18.957  0.00  0.00    +0.000 C 
ENDBRANCH   1   8
BRANCH   4  15
ATOM     15  S   UNL     1       0.061   9.936  18.853  0.00  0.00    +0.000 S 
ATOM     16  O   UNL     1      -0.597   9.601  17.606  0.00  0.00    +0.000 OA
ATOM     17  O   UNL     1      -0.659   9.819  20.101  0.00  0.00    +0.000 OA
BRANCH  15  18
ATOM     18  C   UNL     1       0.573  11.620  18.683  0.00  0.00    +0.000 A 
ATOM     19  C   UNL     1       1.948  11.907  18.634  0.00  0.00    +0.000 A 
ATOM     20  C   UNL     1       2.396  13.234  18.650  0.00  0.00    +0.000 A 
ATOM     21  C   UNL     1       1.482  14.285  18.712  0.00  0.00    +0.000 A 
ATOM     22  C   UNL     1       0.116  14.014  18.791  0.00  0.00    +0.000 A 
ATOM     23  C   UNL     1      -0.328  12.681  18.795  0.00  0.00    +0.000 A 
BRANCH  23  24
ATOM     24  N   UNL     1      -1.752  12.471  18.968  0.00  0.00    +0.000 N 
ATOM     25  O   UNL     1      -2.397  12.130  17.971  0.00  0.00    +0.000 OA
ATOM     26  O   UNL     1      -2.228  12.757  20.072  0.00  0.00    +0.000 OA
ENDBRANCH  23  24
ENDBRANCH  15  18
ENDBRANCH   4  15
TORSDOF 4
ENDMDL
MODEL 8
REMARK VINA RESULT:      -6.5      4.713      7.589
REMARK  Name = 
REMARK  4 active torsions:
REMARK  status: ('A' for Active; 'I' for Inactive)
REMARK    1  A    between atoms: C_2  and  C_3
REMARK    2  A    between atoms: N_6  and  S_7
REMARK    3  A    between atoms: S_7  and  C_10
REMARK    4  A    between atoms: C_15  and  N_16
REMARK                            x       y       z     vdW  Elec       q    Type
REMARK                         _______ _______ _______ _____ _____    ______ ____
ROOT
ATOM      1  C   UNL     1       0.159   9.639  20.098  0.00  0.00    +0.000 C 
ATOM      2  C   UNL     1       0.395   8.315  20.854  0.00  0.00    +0.000 C 
ATOM      3  C   UNL     1       1.670   7.539  20.473  0.00  0.00    +0.000 C 
ATOM      4  N   UNL     1       1.912   7.504  18.998  0.00  0.00    +0.000 NA
ATOM      5  C   UNL     1       1.774   8.842  18.368  0.00  0.00    +0.000 C 
ATOM      6  C   UNL     1       0.370   9.375  18.610  0.00  0.00    +0.000 C 
ENDROOT
BRANCH   1   8
ATOM      7  O   UNL     1       1.841  10.595  21.522  0.00  0.00    +0.000 OA
ATOM      8  C   UNL     1       1.048  10.791  20.597  0.00  0.00    +0.000 C 
ATOM      9  N   UNL     1       0.964  12.034  19.970  0.00  0.00    +0.000 N 
ATOM     10  C   UNL     1       2.009  13.024  20.273  0.00  0.00    +0.000 C 
ATOM     11  C   UNL     1       1.527  14.470  20.097  0.00  0.00    +0.000 C 
ATOM     12  O   UNL     1       0.919  14.667  18.813  0.00  0.00    +0.000 OA
ATOM     13  C   UNL     1      -0.214  13.803  18.668  0.00  0.00    +0.000 C 
ATOM     14  C   UNL     1       0.205  12.330  18.747  0.00  0.00    +0.000 C 
ENDBRANCH   1   8
BRANCH   4  15
ATOM     15  S   UNL     1       3.367   6.743  18.503  0.00  0.00    +0.000 S 
ATOM     16  O   UNL     1       3.802   7.326  17.249  0.00  0.00    +0.000 OA
ATOM     17  O   UNL     1       4.259   6.731  19.640  0.00  0.00    +0.000 OA
BRANCH  15  18
ATOM     18  C   UNL     1       2.948   5.067  18.129  0.00  0.00    +0.000 A 
ATOM     19  C   UNL     1       1.613   4.653  18.280  0.00  0.00    +0.000 A 
ATOM     20  C   UNL     1       1.270   3.303  18.138  0.00  0.00    +0.000 A 
ATOM     21  C   UNL     1       2.248   2.355  17.843  0.00  0.00    +0.000 A 
ATOM     22  C   UNL     1       3.581   2.747  17.719  0.00  0.00    +0.000 A 
ATOM     23  C   UNL     1       3.924   4.099  17.883  0.00  0.00    +0.000 A 
BRANCH  23  24
ATOM     24  N   UNL     1       5.336   4.422  17.828  0.00  0.00    +0.000 N 
ATOM     25  O   UNL     1       5.790   4.787  16.739  0.00  0.00    +0.000 OA
ATOM     26  O   UNL     1       5.998   4.201  18.848  0.00  0.00    +0.000 OA
ENDBRANCH  23  24
ENDBRANCH  15  18
ENDBRANCH   4  15
TORSDOF 4
ENDMDL
MODEL 9
REMARK VINA RESULT:      -6.5     10.124     12.607
REMARK  Name = 
REMARK  4 active torsions:
REMARK  status: ('A' for Active; 'I' for Inactive)
REMARK    1  A    between atoms: C_2  and  C_3
REMARK    2  A    between atoms: N_6  and  S_7
REMARK    3  A    between atoms: S_7  and  C_10
REMARK    4  A    between atoms: C_15  and  N_16
REMARK                            x       y       z     vdW  Elec       q    Type
REMARK                         _______ _______ _______ _____ _____    ______ ____
ROOT
ATOM      1  C   UNL     1      -0.326  12.085  19.377  0.00  0.00    +0.000 C 
ATOM      2  C   UNL     1       0.516  12.384  20.635  0.00  0.00    +0.000 C 
ATOM      3  C   UNL     1       0.534  13.851  21.102  0.00  0.00    +0.000 C 
ATOM      4  N   UNL     1       0.677  14.820  19.973  0.00  0.00    +0.000 NA
ATOM      5  C   UNL     1      -0.250  14.525  18.850  0.00  0.00    +0.000 C 
ATOM      6  C   UNL     1       0.025  13.127  18.318  0.00  0.00    +0.000 C 
ENDROOT
BRANCH   1   8
ATOM      7  O   UNL     1      -2.266  12.375  20.763  0.00  0.00    +0.000 OA
ATOM      8  C   UNL     1      -1.839  12.050  19.653  0.00  0.00    +0.000 C 
ATOM      9  N   UNL     1      -2.707  11.681  18.625  0.00  0.00    +0.000 N 
ATOM     10  C   UNL     1      -4.145  11.923  18.825  0.00  0.00    +0.000 C 
ATOM     11  C   UNL     1      -5.027  10.960  18.022  0.00  0.00    +0.000 C 
ATOM     12  O   UNL     1      -4.648  10.930  16.639  0.00  0.00    +0.000 OA
ATOM     13  C   UNL     1      -3.289  10.495  16.511  0.00  0.00    +0.000 C 
ATOM     14  C   UNL     1      -2.334  11.462  17.221  0.00  0.00    +0.000 C 
ENDBRANCH   1   8
BRANCH   4  15
ATOM     15  S   UNL     1       0.605  16.478  20.404  0.00  0.00    +0.000 S 
ATOM     16  O   UNL     1      -0.677  16.750  21.024  0.00  0.00    +0.000 OA
ATOM     17  O   UNL     1       1.827  16.799  21.105  0.00  0.00    +0.000 OA
BRANCH  15  18
ATOM     18  C   UNL     1       0.601  17.386  18.887  0.00  0.00    +0.000 A 
ATOM     19  C   UNL     1      -0.595  17.988  18.462  0.00  0.00    +0.000 A 
ATOM     20  C   UNL     1      -0.677  18.587  17.199  0.00  0.00    +0.000 A 
ATOM     21  C   UNL     1       0.428  18.594  16.350  0.00  0.00    +0.000 A 
ATOM     22  C   UNL     1       1.613  17.974  16.747  0.00  0.00    +0.000 A 
ATOM     23  C   UNL     1       1.685  17.357  18.007  0.00  0.00    +0.000 A 
BRANCH  23  24
ATOM     24  N   UNL     1       2.915  16.657  18.318  0.00  0.00    +0.000 N 
ATOM     25  O   UNL     1       3.823  17.315  18.836  0.00  0.00    +0.000 OA
ATOM     26  O   UNL     1       3.000  15.483  17.940  0.00  0.00    +0.000 OA
ENDBRANCH  23  24
ENDBRANCH  15  18
ENDBRANCH   4  15
TORSDOF 4
ENDMDL
