MODEL 1
REMARK VINA RESULT:      -7.2      0.000      0.000
REMARK  Name = 
REMARK  7 active torsions:
REMARK  status: ('A' for Active; 'I' for Inactive)
REMARK    1  A    between atoms: C_1  and  O_2
REMARK    2  A    between atoms: O_2  and  C_3
REMARK    3  A    between atoms: C_7  and  O_8
REMARK    4  A    between atoms: O_8  and  C_9
REMARK    5  A    between atoms: C_10  and  O_11
REMARK    6  A    between atoms: C_14  and  O_15
REMARK    7  A    between atoms: C_16  and  C_17
REMARK                            x       y       z     vdW  Elec       q    Type
REMARK                         _______ _______ _______ _____ _____    ______ ____
ROOT
ATOM      1  C   UNL     1       3.193   3.514  19.633  0.00  0.00    +0.000 A 
ATOM      2  C   UNL     1       4.575   3.487  19.481  0.00  0.00    +0.000 A 
ATOM      3  C   UNL     1       5.226   4.551  18.863  0.00  0.00    +0.000 A 
ATOM      4  C   UNL     1       4.505   5.665  18.410  0.00  0.00    +0.000 A 
ATOM      5  C   UNL     1       3.106   5.730  18.572  0.00  0.00    +0.000 A 
ATOM      6  C   UNL     1       2.465   4.636  19.182  0.00  0.00    +0.000 A 
ATOM      7  C   UNL     1       5.292   6.743  17.749  0.00  0.00    +0.000 C 
ATOM      8  O   UNL     1       4.808   7.657  17.092  0.00  0.00    +0.000 OA
ATOM      9  C   UNL     1       6.795   6.642  17.930  0.00  0.00    +0.000 C 
ATOM     10  C   UNL     1       7.186   5.176  17.671  0.00  0.00    +0.000 C 
ATOM     11  O   UNL     1       6.576   4.353  18.684  0.00  0.00    +0.000 OA
ENDROOT
BRANCH  10  12
ATOM     12  C   UNL     1       6.929   4.658  16.249  0.00  0.00    +0.000 A 
ATOM     13  C   UNL     1       5.934   3.687  15.953  0.00  0.00    +0.000 A 
ATOM     14  C   UNL     1       5.635   3.316  14.638  0.00  0.00    +0.000 A 
ATOM     15  C   UNL     1       6.352   3.918  13.629  0.00  0.00    +0.000 A 
ATOM     16  C   UNL     1       7.362   4.807  13.901  0.00  0.00    +0.000 A 
ATOM     17  C   UNL     1       7.690   5.176  15.187  0.00  0.00    +0.000 A 
ATOM     18  O   UNL     1       7.946   5.283  12.768  0.00  0.00    +0.000 OA
ATOM     19  C   UNL     1       7.045   4.753  11.776  0.00  0.00    +0.000 C 
ATOM     20  O   UNL     1       6.165   3.735  12.299  0.00  0.00    +0.000 OA
ENDBRANCH  10  12
BRANCH   1  22
ATOM     21  C   UNL     1       2.252   2.477  21.559  0.00  0.00    +0.000 C 
ATOM     22  O   UNL     1       2.468   2.468  20.151  0.00  0.00    +0.000 OA
ENDBRANCH   1  22
BRANCH   5  23
ATOM     23  O   UNL     1       2.530   6.891  18.141  0.00  0.00    +0.000 OA
ATOM     24  C   UNL     1       2.095   7.903  19.025  0.00  0.00    +0.000 C 
ENDBRANCH   5  23
BRANCH   6  25
ATOM     25  O   UNL     1       1.113   4.610  19.406  0.00  0.00    +0.000 OA
ATOM     26  H   UNL     1       0.779   3.773  19.047  0.00  0.00    +0.000 HD
ENDBRANCH   6  25
BRANCH   9  27
ATOM     27  O   UNL     1       7.502   7.573  17.117  0.00  0.00    +0.000 OA
ATOM     28  H   UNL     1       7.951   8.181  17.743  0.00  0.00    +0.000 HD
ENDBRANCH   9  27
TORSDOF 5
ENDMDL
MODEL 2
REMARK VINA RESULT:      -6.3      7.667     10.660
REMARK  Name = 
REMARK  7 active torsions:
REMARK  status: ('A' for Active; 'I' for Inactive)
REMARK    1  A    between atoms: C_1  and  O_2
REMARK    2  A    between atoms: O_2  and  C_3
REMARK    3  A    between atoms: C_7  and  O_8
REMARK    4  A    between atoms: O_8  and  C_9
REMARK    5  A    between atoms: C_10  and  O_11
REMARK    6  A    between atoms: C_14  and  O_15
REMARK    7  A    between atoms: C_16  and  C_17
REMARK                            x       y       z     vdW  Elec       q    Type
REMARK                         _______ _______ _______ _____ _____    ______ ____
ROOT
ATOM      1  C   UNL     1      -0.682  13.341  22.650  0.00  0.00    +0.000 A 
ATOM      2  C   UNL     1      -0.717  12.014  22.238  0.00  0.00    +0.000 A 
ATOM      3  C   UNL     1      -0.106  11.642  21.044  0.00  0.00    +0.000 A 
ATOM      4  C   UNL     1       0.568  12.588  20.259  0.00  0.00    +0.000 A 
ATOM      5  C   UNL     1       0.640  13.937  20.665  0.00  0.00    +0.000 A 
ATOM      6  C   UNL     1      -0.000  14.297  21.865  0.00  0.00    +0.000 A 
ATOM      7  C   UNL     1       1.175  12.093  18.993  0.00  0.00    +0.000 C 
ATOM      8  O   UNL     1       1.583  12.811  18.087  0.00  0.00    +0.000 OA
ATOM      9  C   UNL     1       1.257  10.583  18.870  0.00  0.00    +0.000 C 
ATOM     10  C   UNL     1      -0.106  10.017  19.308  0.00  0.00    +0.000 C 
ATOM     11  O   UNL     1      -0.303  10.324  20.702  0.00  0.00    +0.000 OA
ENDROOT
BRANCH  10  12
ATOM     12  C   UNL     1      -1.306  10.415  18.436  0.00  0.00    +0.000 A 
ATOM     13  C   UNL     1      -1.479   9.944  17.107  0.00  0.00    +0.000 A 
ATOM     14  C   UNL     1      -2.636  10.221  16.372  0.00  0.00    +0.000 A 
ATOM     15  C   UNL     1      -3.607  10.984  16.979  0.00  0.00    +0.000 A 
ATOM     16  C   UNL     1      -3.427  11.503  18.237  0.00  0.00    +0.000 A 
ATOM     17  C   UNL     1      -2.290  11.261  18.975  0.00  0.00    +0.000 A 
ATOM     18  O   UNL     1      -4.500  12.228  18.652  0.00  0.00    +0.000 OA
ATOM     19  C   UNL     1      -5.437  11.919  17.601  0.00  0.00    +0.000 C 
ATOM     20  O   UNL     1      -4.815  11.304  16.453  0.00  0.00    +0.000 OA
ENDBRANCH  10  12
BRANCH   1  22
ATOM     21  C   UNL     1      -2.757  13.754  23.744  0.00  0.00    +0.000 C 
ATOM     22  O   UNL     1      -1.333  13.804  23.768  0.00  0.00    +0.000 OA
ENDBRANCH   1  22
BRANCH   5  23
ATOM     23  O   UNL     1       1.372  14.746  19.844  0.00  0.00    +0.000 OA
ATOM     24  C   UNL     1       2.614  15.302  20.226  0.00  0.00    +0.000 C 
ENDBRANCH   5  23
BRANCH   6  25
ATOM     25  O   UNL     1       0.030  15.575  22.358  0.00  0.00    +0.000 OA
ATOM     26  H   UNL     1      -0.604  16.096  21.840  0.00  0.00    +0.000 HD
ENDBRANCH   6  25
BRANCH   9  27
ATOM     27  O   UNL     1       1.655  10.167  17.567  0.00  0.00    +0.000 OA
ATOM     28  H   UNL     1       2.456   9.615  17.701  0.00  0.00    +0.000 HD
ENDBRANCH   9  27
TORSDOF 5
ENDMDL
MODEL 3
REMARK VINA RESULT:      -6.3      1.914      6.499
REMARK  Name = 
REMARK  7 active torsions:
REMARK  status: ('A' for Active; 'I' for Inactive)
REMARK    1  A    between atoms: C_1  and  O_2
REMARK    2  A    between atoms: O_2  and  C_3
REMARK    3  A    between atoms: C_7  and  O_8
REMARK    4  A    between atoms: O_8  and  C_9
REMARK    5  A    between atoms: C_10  and  O_11
REMARK    6  A    between atoms: C_14  and  O_15
REMARK    7  A    between atoms: C_16  and  C_17
REMARK                            x       y       z     vdW  Elec       q    Type
REMARK                         _______ _______ _______ _____ _____    ______ ____
ROOT
ATOM      1  C   UNL     1       7.205   5.925  18.098  0.00  0.00    +0.000 A 
ATOM      2  C   UNL     1       6.440   5.625  19.219  0.00  0.00    +0.000 A 
ATOM      3  C   UNL     1       5.173   5.069  19.067  0.00  0.00    +0.000 A 
ATOM      4  C   UNL     1       4.666   4.782  17.791  0.00  0.00    +0.000 A 
ATOM      5  C   UNL     1       5.430   5.053  16.637  0.00  0.00    +0.000 A 
ATOM      6  C   UNL     1       6.700   5.633  16.812  0.00  0.00    +0.000 A 
ATOM      7  C   UNL     1       3.296   4.202  17.734  0.00  0.00    +0.000 C 
ATOM      8  O   UNL     1       2.616   4.116  16.718  0.00  0.00    +0.000 OA
ATOM      9  C   UNL     1       2.754   3.707  19.063  0.00  0.00    +0.000 C 
ATOM     10  C   UNL     1       3.054   4.796  20.108  0.00  0.00    +0.000 C 
ATOM     11  O   UNL     1       4.482   4.919  20.247  0.00  0.00    +0.000 OA
ENDROOT
BRANCH  10  12
ATOM     12  C   UNL     1       2.360   6.147  19.883  0.00  0.00    +0.000 A 
ATOM     13  C   UNL     1       1.518   6.750  20.856  0.00  0.00    +0.000 A 
ATOM     14  C   UNL     1       0.992   8.034  20.681  0.00  0.00    +0.000 A 
ATOM     15  C   UNL     1       1.307   8.698  19.517  0.00  0.00    +0.000 A 
ATOM     16  C   UNL     1       2.064   8.103  18.537  0.00  0.00    +0.000 A 
ATOM     17  C   UNL     1       2.579   6.834  18.676  0.00  0.00    +0.000 A 
ATOM     18  O   UNL     1       2.258   8.923  17.470  0.00  0.00    +0.000 OA
ATOM     19  C   UNL     1       1.720  10.154  17.994  0.00  0.00    +0.000 C 
ATOM     20  O   UNL     1       0.945   9.964  19.196  0.00  0.00    +0.000 OA
ENDBRANCH  10  12
BRANCH   1  22
ATOM     21  C   UNL     1       8.408   7.953  18.429  0.00  0.00    +0.000 C 
ATOM     22  O   UNL     1       8.425   6.554  18.159  0.00  0.00    +0.000 OA
ENDBRANCH   1  22
BRANCH   5  23
ATOM     23  O   UNL     1       4.848   4.675  15.461  0.00  0.00    +0.000 OA
ATOM     24  C   UNL     1       5.576   4.093  14.399  0.00  0.00    +0.000 C 
ENDBRANCH   5  23
BRANCH   6  25
ATOM     25  O   UNL     1       7.529   5.915  15.757  0.00  0.00    +0.000 OA
ATOM     26  H   UNL     1       7.475   5.166  15.143  0.00  0.00    +0.000 HD
ENDBRANCH   6  25
BRANCH   9  27
ATOM     27  O   UNL     1       1.377   3.352  18.987  0.00  0.00    +0.000 OA
ATOM     28  H   UNL     1       1.364   2.395  18.769  0.00  0.00    +0.000 HD
ENDBRANCH   9  27
TORSDOF 5
ENDMDL
MODEL 4
REMARK VINA RESULT:      -6.3      8.161     11.120
REMARK  Name = 
REMARK  7 active torsions:
REMARK  status: ('A' for Active; 'I' for Inactive)
REMARK    1  A    between atoms: C_1  and  O_2
REMARK    2  A    between atoms: O_2  and  C_3
REMARK    3  A    between atoms: C_7  and  O_8
REMARK    4  A    between atoms: O_8  and  C_9
REMARK    5  A    between atoms: C_10  and  O_11
REMARK    6  A    between atoms: C_14  and  O_15
REMARK    7  A    between atoms: C_16  and  C_17
REMARK                            x       y       z     vdW  Elec       q    Type
REMARK                         _______ _______ _______ _____ _____    ______ ____
ROOT
ATOM      1  C   UNL     1       9.332  10.967  19.433  0.00  0.00    +0.000 A 
ATOM      2  C   UNL     1       9.472  11.950  18.459  0.00  0.00    +0.000 A 
ATOM      3  C   UNL     1       9.538  13.290  18.830  0.00  0.00    +0.000 A 
ATOM      4  C   UNL     1       9.489  13.662  20.181  0.00  0.00    +0.000 A 
ATOM      5  C   UNL     1       9.372  12.685  21.191  0.00  0.00    +0.000 A 
ATOM      6  C   UNL     1       9.287  11.338  20.794  0.00  0.00    +0.000 A 
ATOM      7  C   UNL     1       9.552  15.121  20.472  0.00  0.00    +0.000 C 
ATOM      8  O   UNL     1       9.284  15.628  21.556  0.00  0.00    +0.000 OA
ATOM      9  C   UNL     1       9.973  15.990  19.303  0.00  0.00    +0.000 C 
ATOM     10  C   UNL     1       9.177  15.515  18.074  0.00  0.00    +0.000 C 
ATOM     11  O   UNL     1       9.570  14.163  17.767  0.00  0.00    +0.000 OA
ENDROOT
BRANCH  10  12
ATOM     12  C   UNL     1       7.653  15.687  18.158  0.00  0.00    +0.000 A 
ATOM     13  C   UNL     1       6.743  14.708  17.677  0.00  0.00    +0.000 A 
ATOM     14  C   UNL     1       5.363  14.829  17.869  0.00  0.00    +0.000 A 
ATOM     15  C   UNL     1       4.908  15.944  18.536  0.00  0.00    +0.000 A 
ATOM     16  C   UNL     1       5.769  16.931  18.949  0.00  0.00    +0.000 A 
ATOM     17  C   UNL     1       7.130  16.846  18.755  0.00  0.00    +0.000 A 
ATOM     18  O   UNL     1       5.121  17.945  19.583  0.00  0.00    +0.000 OA
ATOM     19  C   UNL     1       3.804  17.370  19.701  0.00  0.00    +0.000 C 
ATOM     20  O   UNL     1       3.621  16.205  18.870  0.00  0.00    +0.000 OA
ENDBRANCH  10  12
BRANCH   1  22
ATOM     21  C   UNL     1       8.300   9.314  18.064  0.00  0.00    +0.000 C 
ATOM     22  O   UNL     1       9.172   9.633  19.144  0.00  0.00    +0.000 OA
ENDBRANCH   1  22
BRANCH   5  23
ATOM     23  O   UNL     1       9.392  13.172  22.467  0.00  0.00    +0.000 OA
ATOM     24  C   UNL     1       8.326  12.985  23.374  0.00  0.00    +0.000 C 
ENDBRANCH   5  23
BRANCH   6  25
ATOM     25  O   UNL     1       9.193  10.312  21.698  0.00  0.00    +0.000 OA
ATOM     26  H   UNL     1       9.635  10.605  22.511  0.00  0.00    +0.000 HD
ENDBRANCH   6  25
BRANCH   9  27
ATOM     27  O   UNL     1       9.822  17.379  19.579  0.00  0.00    +0.000 OA
ATOM     28  H   UNL     1       9.344  17.427  20.434  0.00  0.00    +0.000 HD
ENDBRANCH   9  27
TORSDOF 5
ENDMDL
MODEL 5
REMARK VINA RESULT:      -6.3      7.891     10.441
REMARK  Name = 
REMARK  7 active torsions:
REMARK  status: ('A' for Active; 'I' for Inactive)
REMARK    1  A    between atoms: C_1  and  O_2
REMARK    2  A    between atoms: O_2  and  C_3
REMARK    3  A    between atoms: C_7  and  O_8
REMARK    4  A    between atoms: O_8  and  C_9
REMARK    5  A    between atoms: C_10  and  O_11
REMARK    6  A    between atoms: C_14  and  O_15
REMARK    7  A    between atoms: C_16  and  C_17
REMARK                            x       y       z     vdW  Elec       q    Type
REMARK                         _______ _______ _______ _____ _____    ______ ____
ROOT
ATOM      1  C   UNL     1      -0.824  13.610  22.759  0.00  0.00    +0.000 A 
ATOM      2  C   UNL     1      -0.731  12.271  22.396  0.00  0.00    +0.000 A 
ATOM      3  C   UNL     1      -0.107  11.917  21.204  0.00  0.00    +0.000 A 
ATOM      4  C   UNL     1       0.454  12.896  20.372  0.00  0.00    +0.000 A 
ATOM      5  C   UNL     1       0.395  14.260  20.726  0.00  0.00    +0.000 A 
ATOM      6  C   UNL     1      -0.258  14.598  21.926  0.00  0.00    +0.000 A 
ATOM      7  C   UNL     1       1.086  12.416  19.112  0.00  0.00    +0.000 C 
ATOM      8  O   UNL     1       1.403  13.137  18.172  0.00  0.00    +0.000 OA
ATOM      9  C   UNL     1       1.319  10.919  19.042  0.00  0.00    +0.000 C 
ATOM     10  C   UNL     1       0.029  10.235  19.529  0.00  0.00    +0.000 C 
ATOM     11  O   UNL     1      -0.174  10.573  20.915  0.00  0.00    +0.000 OA
ENDROOT
BRANCH  10  12
ATOM     12  C   UNL     1      -1.220  10.475  18.669  0.00  0.00    +0.000 A 
ATOM     13  C   UNL     1      -2.262  11.359  19.058  0.00  0.00    +0.000 A 
ATOM     14  C   UNL     1      -3.333  11.654  18.208  0.00  0.00    +0.000 A 
ATOM     15  C   UNL     1      -3.352  11.045  16.974  0.00  0.00    +0.000 A 
ATOM     16  C   UNL     1      -2.388  10.138  16.608  0.00  0.00    +0.000 A 
ATOM     17  C   UNL     1      -1.334   9.815  17.433  0.00  0.00    +0.000 A 
ATOM     18  O   UNL     1      -2.591   9.651  15.355  0.00  0.00    +0.000 OA
ATOM     19  C   UNL     1      -3.657  10.516  14.915  0.00  0.00    +0.000 C 
ATOM     20  O   UNL     1      -4.268  11.252  15.996  0.00  0.00    +0.000 OA
ENDBRANCH  10  12
BRANCH   1  22
ATOM     21  C   UNL     1      -2.894  13.757  23.929  0.00  0.00    +0.000 C 
ATOM     22  O   UNL     1      -1.500  14.047  23.873  0.00  0.00    +0.000 OA
ENDBRANCH   1  22
BRANCH   5  23
ATOM     23  O   UNL     1       1.026  15.106  19.861  0.00  0.00    +0.000 OA
ATOM     24  C   UNL     1       0.350  16.133  19.164  0.00  0.00    +0.000 C 
ENDBRANCH   5  23
BRANCH   6  25
ATOM     25  O   UNL     1      -0.350  15.892  22.371  0.00  0.00    +0.000 OA
ATOM     26  H   UNL     1      -0.819  16.396  21.688  0.00  0.00    +0.000 HD
ENDBRANCH   6  25
BRANCH   9  27
ATOM     27  O   UNL     1       1.736  10.496  17.747  0.00  0.00    +0.000 OA
ATOM     28  H   UNL     1       1.773   9.516  17.790  0.00  0.00    +0.000 HD
ENDBRANCH   9  27
TORSDOF 5
ENDMDL
MODEL 6
REMARK VINA RESULT:      -6.2      6.599     11.735
REMARK  Name = 
REMARK  7 active torsions:
REMARK  status: ('A' for Active; 'I' for Inactive)
REMARK    1  A    between atoms: C_1  and  O_2
REMARK    2  A    between atoms: O_2  and  C_3
REMARK    3  A    between atoms: C_7  and  O_8
REMARK    4  A    between atoms: O_8  and  C_9
REMARK    5  A    between atoms: C_10  and  O_11
REMARK    6  A    between atoms: C_14  and  O_15
REMARK    7  A    between atoms: C_16  and  C_17
REMARK                            x       y       z     vdW  Elec       q    Type
REMARK                         _______ _______ _______ _____ _____    ______ ____
ROOT
ATOM      1  C   UNL     1       2.111  13.064  18.922  0.00  0.00    +0.000 A 
ATOM      2  C   UNL     1       1.591  13.385  20.171  0.00  0.00    +0.000 A 
ATOM      3  C   UNL     1       0.884  12.429  20.896  0.00  0.00    +0.000 A 
ATOM      4  C   UNL     1       0.710  11.133  20.390  0.00  0.00    +0.000 A 
ATOM      5  C   UNL     1       1.247  10.772  19.137  0.00  0.00    +0.000 A 
ATOM      6  C   UNL     1       1.941  11.759  18.412  0.00  0.00    +0.000 A 
ATOM      7  C   UNL     1      -0.073  10.189  21.234  0.00  0.00    +0.000 C 
ATOM      8  O   UNL     1      -0.519   9.114  20.849  0.00  0.00    +0.000 OA
ATOM      9  C   UNL     1      -0.310  10.650  22.660  0.00  0.00    +0.000 C 
ATOM     10  C   UNL     1      -0.752  12.123  22.593  0.00  0.00    +0.000 C 
ATOM     11  O   UNL     1       0.336  12.905  22.064  0.00  0.00    +0.000 OA
ENDROOT
BRANCH  10  12
ATOM     12  C   UNL     1      -2.081  12.389  21.870  0.00  0.00    +0.000 A 
ATOM     13  C   UNL     1      -2.172  12.539  20.460  0.00  0.00    +0.000 A 
ATOM     14  C   UNL     1      -3.405  12.662  19.811  0.00  0.00    +0.000 A 
ATOM     15  C   UNL     1      -4.539  12.646  20.591  0.00  0.00    +0.000 A 
ATOM     16  C   UNL     1      -4.465  12.570  21.959  0.00  0.00    +0.000 A 
ATOM     17  C   UNL     1      -3.264  12.466  22.625  0.00  0.00    +0.000 A 
ATOM     18  O   UNL     1      -5.695  12.571  22.541  0.00  0.00    +0.000 OA
ATOM     19  C   UNL     1      -6.529  12.442  21.372  0.00  0.00    +0.000 C 
ATOM     20  O   UNL     1      -5.817  12.691  20.141  0.00  0.00    +0.000 OA
ENDBRANCH  10  12
BRANCH   1  22
ATOM     21  C   UNL     1       2.649  15.343  18.490  0.00  0.00    +0.000 C 
ATOM     22  O   UNL     1       2.742  13.974  18.109  0.00  0.00    +0.000 OA
ENDBRANCH   1  22
BRANCH   5  23
ATOM     23  O   UNL     1       1.057   9.467  18.784  0.00  0.00    +0.000 OA
ATOM     24  C   UNL     1       2.124   8.554  18.627  0.00  0.00    +0.000 C 
ENDBRANCH   5  23
BRANCH   6  25
ATOM     25  O   UNL     1       2.519  11.504  17.196  0.00  0.00    +0.000 OA
ATOM     26  H   UNL     1       2.483  12.327  16.684  0.00  0.00    +0.000 HD
ENDBRANCH   6  25
BRANCH   9  27
ATOM     27  O   UNL     1      -1.227   9.810  23.355  0.00  0.00    +0.000 OA
ATOM     28  H   UNL     1      -2.114  10.198  23.194  0.00  0.00    +0.000 HD
ENDBRANCH   9  27
TORSDOF 5
ENDMDL
MODEL 7
REMARK VINA RESULT:      -6.2     10.397     13.713
REMARK  Name = 
REMARK  7 active torsions:
REMARK  status: ('A' for Active; 'I' for Inactive)
REMARK    1  A    between atoms: C_1  and  O_2
REMARK    2  A    between atoms: O_2  and  C_3
REMARK    3  A    between atoms: C_7  and  O_8
REMARK    4  A    between atoms: O_8  and  C_9
REMARK    5  A    between atoms: C_10  and  O_11
REMARK    6  A    between atoms: C_14  and  O_15
REMARK    7  A    between atoms: C_16  and  C_17
REMARK                            x       y       z     vdW  Elec       q    Type
REMARK                         _______ _______ _______ _____ _____    ______ ____
ROOT
ATOM      1  C   UNL     1      -0.491  14.037  20.615  0.00  0.00    +0.000 A 
ATOM      2  C   UNL     1      -1.712  14.700  20.681  0.00  0.00    +0.000 A 
ATOM      3  C   UNL     1      -2.673  14.293  21.602  0.00  0.00    +0.000 A 
ATOM      4  C   UNL     1      -2.416  13.234  22.484  0.00  0.00    +0.000 A 
ATOM      5  C   UNL     1      -1.178  12.559  22.455  0.00  0.00    +0.000 A 
ATOM      6  C   UNL     1      -0.227  12.973  21.504  0.00  0.00    +0.000 A 
ATOM      7  C   UNL     1      -3.514  12.866  23.420  0.00  0.00    +0.000 C 
ATOM      8  O   UNL     1      -3.553  11.833  24.079  0.00  0.00    +0.000 OA
ATOM      9  C   UNL     1      -4.642  13.877  23.514  0.00  0.00    +0.000 C 
ATOM     10  C   UNL     1      -5.003  14.289  22.076  0.00  0.00    +0.000 C 
ATOM     11  O   UNL     1      -3.870  14.962  21.493  0.00  0.00    +0.000 OA
ENDROOT
BRANCH  10  12
ATOM     12  C   UNL     1      -5.555  13.171  21.179  0.00  0.00    +0.000 A 
ATOM     13  C   UNL     1      -5.147  12.996  19.829  0.00  0.00    +0.000 A 
ATOM     14  C   UNL     1      -5.572  11.903  19.067  0.00  0.00    +0.000 A 
ATOM     15  C   UNL     1      -6.417  10.998  19.669  0.00  0.00    +0.000 A 
ATOM     16  C   UNL     1      -6.873  11.187  20.950  0.00  0.00    +0.000 A 
ATOM     17  C   UNL     1      -6.486  12.264  21.716  0.00  0.00    +0.000 A 
ATOM     18  O   UNL     1      -7.698  10.184  21.354  0.00  0.00    +0.000 OA
ATOM     19  C   UNL     1      -7.525   9.258  20.263  0.00  0.00    +0.000 C 
ATOM     20  O   UNL     1      -6.883   9.851  19.116  0.00  0.00    +0.000 OA
ENDBRANCH  10  12
BRANCH   1  22
ATOM     21  C   UNL     1       1.204  15.529  19.858  0.00  0.00    +0.000 C 
ATOM     22  O   UNL     1       0.474  14.319  19.678  0.00  0.00    +0.000 OA
ENDBRANCH   1  22
BRANCH   5  23
ATOM     23  O   UNL     1      -1.032  11.586  23.401  0.00  0.00    +0.000 OA
ATOM     24  C   UNL     1      -0.815  10.228  23.076  0.00  0.00    +0.000 C 
ENDBRANCH   5  23
BRANCH   6  25
ATOM     25  O   UNL     1       1.013  12.397  21.409  0.00  0.00    +0.000 OA
ATOM     26  H   UNL     1       1.634  13.096  21.151  0.00  0.00    +0.000 HD
ENDBRANCH   6  25
BRANCH   9  27
ATOM     27  O   UNL     1      -5.749  13.384  24.262  0.00  0.00    +0.000 OA
ATOM     28  H   UNL     1      -6.051  12.581  23.787  0.00  0.00    +0.000 HD
ENDBRANCH   9  27
TORSDOF 5
ENDMDL
MODEL 8
REMARK VINA RESULT:      -6.1      6.017     10.458
REMARK  Name = 
REMARK  7 active torsions:
REMARK  status: ('A' for Active; 'I' for Inactive)
REMARK    1  A    between atoms: C_1  and  O_2
REMARK    2  A    between atoms: O_2  and  C_3
REMARK    3  A    between atoms: C_7  and  O_8
REMARK    4  A    between atoms: O_8  and  C_9
REMARK    5  A    between atoms: C_10  and  O_11
REMARK    6  A    between atoms: C_14  and  O_15
REMARK    7  A    between atoms: C_16  and  C_17
REMARK                            x       y       z     vdW  Elec       q    Type
REMARK                         _______ _______ _______ _____ _____    ______ ____
ROOT
ATOM      1  C   UNL     1       1.477   8.911  19.181  0.00  0.00    +0.000 A 
ATOM      2  C   UNL     1       1.146  10.112  18.564  0.00  0.00    +0.000 A 
ATOM      3  C   UNL     1       0.728  11.195  19.331  0.00  0.00    +0.000 A 
ATOM      4  C   UNL     1       0.659  11.098  20.728  0.00  0.00    +0.000 A 
ATOM      5  C   UNL     1       1.011   9.899  21.383  0.00  0.00    +0.000 A 
ATOM      6  C   UNL     1       1.413   8.811  20.588  0.00  0.00    +0.000 A 
ATOM      7  C   UNL     1       0.185  12.307  21.457  0.00  0.00    +0.000 C 
ATOM      8  O   UNL     1      -0.160  12.322  22.633  0.00  0.00    +0.000 OA
ATOM      9  C   UNL     1       0.140  13.577  20.629  0.00  0.00    +0.000 C 
ATOM     10  C   UNL     1      -0.518  13.219  19.285  0.00  0.00    +0.000 C 
ATOM     11  O   UNL     1       0.333  12.286  18.591  0.00  0.00    +0.000 OA
ENDROOT
BRANCH  10  12
ATOM     12  C   UNL     1      -1.979  12.751  19.360  0.00  0.00    +0.000 A 
ATOM     13  C   UNL     1      -2.866  13.165  20.389  0.00  0.00    +0.000 A 
ATOM     14  C   UNL     1      -4.222  12.823  20.374  0.00  0.00    +0.000 A 
ATOM     15  C   UNL     1      -4.672  12.053  19.325  0.00  0.00    +0.000 A 
ATOM     16  C   UNL     1      -3.815  11.589  18.359  0.00  0.00    +0.000 A 
ATOM     17  C   UNL     1      -2.472  11.895  18.360  0.00  0.00    +0.000 A 
ATOM     18  O   UNL     1      -4.456  10.846  17.417  0.00  0.00    +0.000 OA
ATOM     19  C   UNL     1      -5.827  11.085  17.796  0.00  0.00    +0.000 C 
ATOM     20  O   UNL     1      -5.956  11.675  19.106  0.00  0.00    +0.000 OA
ENDBRANCH  10  12
BRANCH   1  22
ATOM     21  C   UNL     1       3.050   7.795  17.785  0.00  0.00    +0.000 C 
ATOM     22  O   UNL     1       1.813   7.772  18.490  0.00  0.00    +0.000 OA
ENDBRANCH   1  22
BRANCH   5  23
ATOM     23  O   UNL     1       0.955   9.952  22.747  0.00  0.00    +0.000 OA
ATOM     24  C   UNL     1      -0.060   9.317  23.496  0.00  0.00    +0.000 C 
ENDBRANCH   5  23
BRANCH   6  25
ATOM     25  O   UNL     1       1.796   7.610  21.128  0.00  0.00    +0.000 OA
ATOM     26  H   UNL     1       0.992   7.168  21.443  0.00  0.00    +0.000 HD
ENDBRANCH   6  25
BRANCH   9  27
ATOM     27  O   UNL     1      -0.505  14.647  21.313  0.00  0.00    +0.000 OA
ATOM     28  H   UNL     1       0.196  15.314  21.478  0.00  0.00    +0.000 HD
ENDBRANCH   9  27
TORSDOF 5
ENDMDL
MODEL 9
REMARK VINA RESULT:      -6.0      9.902     13.372
REMARK  Name = 
REMARK  7 active torsions:
REMARK  status: ('A' for Active; 'I' for Inactive)
REMARK    1  A    between atoms: C_1  and  O_2
REMARK    2  A    between atoms: O_2  and  C_3
REMARK    3  A    between atoms: C_7  and  O_8
REMARK    4  A    between atoms: O_8  and  C_9
REMARK    5  A    between atoms: C_10  and  O_11
REMARK    6  A    between atoms: C_14  and  O_15
REMARK    7  A    between atoms: C_16  and  C_17
REMARK                            x       y       z     vdW  Elec       q    Type
REMARK                         _______ _______ _______ _____ _____    ______ ____
ROOT
ATOM      1  C   UNL     1      -0.249  13.815  20.905  0.00  0.00    +0.000 A 
ATOM      2  C   UNL     1      -1.416  14.554  21.065  0.00  0.00    +0.000 A 
ATOM      3  C   UNL     1      -2.397  14.120  21.952  0.00  0.00    +0.000 A 
ATOM      4  C   UNL     1      -2.212  12.954  22.708  0.00  0.00    +0.000 A 
ATOM      5  C   UNL     1      -1.028  12.197  22.585  0.00  0.00    +0.000 A 
ATOM      6  C   UNL     1      -0.058  12.643  21.669  0.00  0.00    +0.000 A 
ATOM      7  C   UNL     1      -3.326  12.566  23.617  0.00  0.00    +0.000 C 
ATOM      8  O   UNL     1      -3.436  11.473  24.160  0.00  0.00    +0.000 OA
ATOM      9  C   UNL     1      -4.374  13.641  23.840  0.00  0.00    +0.000 C 
ATOM     10  C   UNL     1      -4.716  14.234  22.462  0.00  0.00    +0.000 C 
ATOM     11  O   UNL     1      -3.542  14.883  21.937  0.00  0.00    +0.000 OA
ENDROOT
BRANCH  10  12
ATOM     12  C   UNL     1      -5.359  13.265  21.458  0.00  0.00    +0.000 A 
ATOM     13  C   UNL     1      -6.553  12.549  21.739  0.00  0.00    +0.000 A 
ATOM     14  C   UNL     1      -7.186  11.764  20.770  0.00  0.00    +0.000 A 
ATOM     15  C   UNL     1      -6.603  11.696  19.526  0.00  0.00    +0.000 A 
ATOM     16  C   UNL     1      -5.414  12.328  19.258  0.00  0.00    +0.000 A 
ATOM     17  C   UNL     1      -4.759  13.092  20.199  0.00  0.00    +0.000 A 
ATOM     18  O   UNL     1      -5.006  12.134  17.975  0.00  0.00    +0.000 OA
ATOM     19  C   UNL     1      -6.179  11.495  17.430  0.00  0.00    +0.000 C 
ATOM     20  O   UNL     1      -7.097  11.041  18.447  0.00  0.00    +0.000 OA
ENDBRANCH  10  12
BRANCH   1  22
ATOM     21  C   UNL     1       0.464  13.774  18.634  0.00  0.00    +0.000 C 
ATOM     22  O   UNL     1       0.725  14.128  19.989  0.00  0.00    +0.000 OA
ENDBRANCH   1  22
BRANCH   5  23
ATOM     23  O   UNL     1      -0.947  11.118  23.416  0.00  0.00    +0.000 OA
ATOM     24  C   UNL     1      -0.693   9.809  22.948  0.00  0.00    +0.000 C 
ENDBRANCH   5  23
BRANCH   6  25
ATOM     25  O   UNL     1       1.135  11.992  21.490  0.00  0.00    +0.000 OA
ATOM     26  H   UNL     1       0.952  11.197  20.966  0.00  0.00    +0.000 HD
ENDBRANCH   6  25
BRANCH   9  27
ATOM     27  O   UNL     1      -5.509  13.151  24.549  0.00  0.00    +0.000 OA
ATOM     28  H   UNL     1      -6.282  13.614  24.159  0.00  0.00    +0.000 HD
ENDBRANCH   9  27
TORSDOF 5
ENDMDL
