MODEL 1
REMARK VINA RESULT:      -7.8      0.000      0.000
REMARK  Name = 
REMARK  7 active torsions:
REMARK  status: ('A' for Active; 'I' for Inactive)
REMARK    1  A    between atoms: C_1  and  C_2
REMARK    2  A    between atoms: C_2  and  C_3
REMARK    3  A    between atoms: C_3  and  C_4
REMARK    4  A    between atoms: C_4  and  C_5
REMARK    5  A    between atoms: C_8  and  C_9
REMARK    6  A    between atoms: N_11  and  C_12
REMARK    7  A    between atoms: C_19  and  O_20
REMARK                            x       y       z     vdW  Elec       q    Type
REMARK                         _______ _______ _______ _____ _____    ______ ____
ROOT
ATOM      1  C   UNL     1       5.051   5.520  17.218  0.00  0.00    +0.000 C 
ATOM      2  O   UNL     1       5.893   5.819  18.060  0.00  0.00    +0.000 OA
ATOM      3  N   UNL     1       3.677   5.461  17.417  0.00  0.00    +0.000 N 
ATOM      4  H   UNL     1       3.137   4.952  16.732  0.00  0.00    +0.000 HD
ENDROOT
BRANCH   3   5
ATOM      5  C   UNL     1       3.029   5.806  18.643  0.00  0.00    +0.000 A 
ATOM      6  C   UNL     1       2.899   4.841  19.655  0.00  0.00    +0.000 A 
ATOM      7  C   UNL     1       2.211   5.108  20.831  0.00  0.00    +0.000 A 
ATOM      8  C   UNL     1       1.635   6.354  21.022  0.00  0.00    +0.000 A 
ATOM      9  C   UNL     1       1.755   7.352  20.049  0.00  0.00    +0.000 A 
ATOM     10  C   UNL     1       1.119   8.583  20.271  0.00  0.00    +0.000 A 
ATOM     11  C   UNL     1       1.202   9.613  19.338  0.00  0.00    +0.000 A 
ATOM     12  C   UNL     1       1.953   9.419  18.191  0.00  0.00    +0.000 A 
ATOM     13  C   UNL     1       2.584   8.198  17.941  0.00  0.00    +0.000 A 
ATOM     14  C   UNL     1       2.488   7.114  18.850  0.00  0.00    +0.000 A 
BRANCH  12  15
ATOM     15  O   UNL     1       2.093  10.414  17.269  0.00  0.00    +0.000 OA
ATOM     16  H   UNL     1       2.269  10.008  16.403  0.00  0.00    +0.000 HD
ENDBRANCH  12  15
ENDBRANCH   3   5
BRANCH   1  20
ATOM     17  C   UNL     1       6.446   4.104  13.416  0.00  0.00    +0.000 A 
ATOM     18  C   UNL     1       5.157   3.814  13.880  0.00  0.00    +0.000 A 
ATOM     19  C   UNL     1       4.718   4.317  15.099  0.00  0.00    +0.000 A 
ATOM     20  C   UNL     1       5.563   5.110  15.887  0.00  0.00    +0.000 A 
ATOM     21  C   UNL     1       6.858   5.396  15.445  0.00  0.00    +0.000 A 
ATOM     22  C   UNL     1       7.294   4.892  14.211  0.00  0.00    +0.000 A 
BRANCH  17  23
ATOM     23  C   UNL     1       6.903   3.552  12.085  0.00  0.00    +0.000 C 
BRANCH  23  24
ATOM     24  C   UNL     1       5.979   2.434  11.594  0.00  0.00    +0.000 C 
BRANCH  24  26
ATOM     25  C   UNL     1       6.170  -0.054  11.337  0.00  0.00    +0.000 C 
ATOM     26  C   UNL     1       6.755   1.294  10.939  0.00  0.00    +0.000 C 
ENDBRANCH  24  26
ENDBRANCH  23  24
ENDBRANCH  17  23
ENDBRANCH   1  20
TORSDOF 6
ENDMDL
MODEL 2
REMARK VINA RESULT:      -7.8      3.446      9.926
REMARK  Name = 
REMARK  7 active torsions:
REMARK  status: ('A' for Active; 'I' for Inactive)
REMARK    1  A    between atoms: C_1  and  C_2
REMARK    2  A    between atoms: C_2  and  C_3
REMARK    3  A    between atoms: C_3  and  C_4
REMARK    4  A    between atoms: C_4  and  C_5
REMARK    5  A    between atoms: C_8  and  C_9
REMARK    6  A    between atoms: N_11  and  C_12
REMARK    7  A    between atoms: C_19  and  O_20
REMARK                            x       y       z     vdW  Elec       q    Type
REMARK                         _______ _______ _______ _____ _____    ______ ____
ROOT
ATOM      1  C   UNL     1       1.623   8.555  18.958  0.00  0.00    +0.000 C 
ATOM      2  O   UNL     1       1.480   8.911  17.791  0.00  0.00    +0.000 OA
ATOM      3  N   UNL     1       2.322   7.437  19.395  0.00  0.00    +0.000 N 
ATOM      4  H   UNL     1       2.136   7.120  20.335  0.00  0.00    +0.000 HD
ENDROOT
BRANCH   3   5
ATOM      5  C   UNL     1       3.041   6.554  18.532  0.00  0.00    +0.000 A 
ATOM      6  C   UNL     1       4.084   7.056  17.737  0.00  0.00    +0.000 A 
ATOM      7  C   UNL     1       4.759   6.252  16.828  0.00  0.00    +0.000 A 
ATOM      8  C   UNL     1       4.404   4.919  16.695  0.00  0.00    +0.000 A 
ATOM      9  C   UNL     1       3.383   4.371  17.480  0.00  0.00    +0.000 A 
ATOM     10  C   UNL     1       3.034   3.027  17.279  0.00  0.00    +0.000 A 
ATOM     11  C   UNL     1       2.025   2.428  18.029  0.00  0.00    +0.000 A 
ATOM     12  C   UNL     1       1.387   3.169  19.007  0.00  0.00    +0.000 A 
ATOM     13  C   UNL     1       1.708   4.513  19.217  0.00  0.00    +0.000 A 
ATOM     14  C   UNL     1       2.702   5.167  18.445  0.00  0.00    +0.000 A 
BRANCH  12  15
ATOM     15  O   UNL     1       0.420   2.611  19.791  0.00  0.00    +0.000 OA
ATOM     16  H   UNL     1      -0.353   2.416  19.234  0.00  0.00    +0.000 HD
ENDBRANCH  12  15
ENDBRANCH   3   5
BRANCH   1  20
ATOM     17  C   UNL     1      -0.533  10.664  22.009  0.00  0.00    +0.000 A 
ATOM     18  C   UNL     1       0.155   9.477  22.284  0.00  0.00    +0.000 A 
ATOM     19  C   UNL     1       0.876   8.833  21.284  0.00  0.00    +0.000 A 
ATOM     20  C   UNL     1       0.914   9.358  19.986  0.00  0.00    +0.000 A 
ATOM     21  C   UNL     1       0.221  10.535  19.692  0.00  0.00    +0.000 A 
ATOM     22  C   UNL     1      -0.500  11.184  20.705  0.00  0.00    +0.000 A 
BRANCH  17  23
ATOM     23  C   UNL     1      -1.308  11.352  23.110  0.00  0.00    +0.000 C 
BRANCH  23  24
ATOM     24  C   UNL     1      -1.261  12.876  22.962  0.00  0.00    +0.000 C 
BRANCH  24  26
ATOM     25  C   UNL     1      -3.582  12.495  23.832  0.00  0.00    +0.000 C 
ATOM     26  C   UNL     1      -2.603  13.526  23.292  0.00  0.00    +0.000 C 
ENDBRANCH  24  26
ENDBRANCH  23  24
ENDBRANCH  17  23
ENDBRANCH   1  20
TORSDOF 6
ENDMDL
MODEL 3
REMARK VINA RESULT:      -7.7      3.352      9.783
REMARK  Name = 
REMARK  7 active torsions:
REMARK  status: ('A' for Active; 'I' for Inactive)
REMARK    1  A    between atoms: C_1  and  C_2
REMARK    2  A    between atoms: C_2  and  C_3
REMARK    3  A    between atoms: C_3  and  C_4
REMARK    4  A    between atoms: C_4  and  C_5
REMARK    5  A    between atoms: C_8  and  C_9
REMARK    6  A    between atoms: N_11  and  C_12
REMARK    7  A    between atoms: C_19  and  O_20
REMARK                            x       y       z     vdW  Elec       q    Type
REMARK                         _______ _______ _______ _____ _____    ______ ____
ROOT
ATOM      1  C   UNL     1       1.819   8.641  18.577  0.00  0.00    +0.000 C 
ATOM      2  O   UNL     1       1.770   8.960  17.391  0.00  0.00    +0.000 OA
ATOM      3  N   UNL     1       2.416   7.498  19.094  0.00  0.00    +0.000 N 
ATOM      4  H   UNL     1       2.154   7.231  20.032  0.00  0.00    +0.000 HD
ENDROOT
BRANCH   3   5
ATOM      5  C   UNL     1       3.125   6.539  18.309  0.00  0.00    +0.000 A 
ATOM      6  C   UNL     1       4.189   6.958  17.493  0.00  0.00    +0.000 A 
ATOM      7  C   UNL     1       4.856   6.074  16.656  0.00  0.00    +0.000 A 
ATOM      8  C   UNL     1       4.472   4.743  16.616  0.00  0.00    +0.000 A 
ATOM      9  C   UNL     1       3.430   4.277  17.425  0.00  0.00    +0.000 A 
ATOM     10  C   UNL     1       3.052   2.930  17.318  0.00  0.00    +0.000 A 
ATOM     11  C   UNL     1       2.021   2.410  18.096  0.00  0.00    +0.000 A 
ATOM     12  C   UNL     1       1.388   3.235  19.008  0.00  0.00    +0.000 A 
ATOM     13  C   UNL     1       1.737   4.584  19.124  0.00  0.00    +0.000 A 
ATOM     14  C   UNL     1       2.755   5.157  18.319  0.00  0.00    +0.000 A 
BRANCH  12  15
ATOM     15  O   UNL     1       0.399   2.758  19.817  0.00  0.00    +0.000 OA
ATOM     16  H   UNL     1      -0.457   2.920  19.385  0.00  0.00    +0.000 HD
ENDBRANCH  12  15
ENDBRANCH   3   5
BRANCH   1  20
ATOM     17  C   UNL     1      -0.063  11.373  21.296  0.00  0.00    +0.000 A 
ATOM     18  C   UNL     1       0.400  11.788  20.042  0.00  0.00    +0.000 A 
ATOM     19  C   UNL     1       0.973  10.873  19.166  0.00  0.00    +0.000 A 
ATOM     20  C   UNL     1       1.106   9.527  19.530  0.00  0.00    +0.000 A 
ATOM     21  C   UNL     1       0.662   9.101  20.785  0.00  0.00    +0.000 A 
ATOM     22  C   UNL     1       0.079  10.025  21.663  0.00  0.00    +0.000 A 
BRANCH  17  23
ATOM     23  C   UNL     1      -0.687  12.382  22.234  0.00  0.00    +0.000 C 
BRANCH  23  24
ATOM     24  C   UNL     1      -1.772  11.741  23.106  0.00  0.00    +0.000 C 
BRANCH  24  26
ATOM     25  C   UNL     1      -3.879  12.595  24.164  0.00  0.00    +0.000 C 
ATOM     26  C   UNL     1      -3.148  12.352  22.852  0.00  0.00    +0.000 C 
ENDBRANCH  24  26
ENDBRANCH  23  24
ENDBRANCH  17  23
ENDBRANCH   1  20
TORSDOF 6
ENDMDL
MODEL 4
REMARK VINA RESULT:      -7.7      3.062      4.991
REMARK  Name = 
REMARK  7 active torsions:
REMARK  status: ('A' for Active; 'I' for Inactive)
REMARK    1  A    between atoms: C_1  and  C_2
REMARK    2  A    between atoms: C_2  and  C_3
REMARK    3  A    between atoms: C_3  and  C_4
REMARK    4  A    between atoms: C_4  and  C_5
REMARK    5  A    between atoms: C_8  and  C_9
REMARK    6  A    between atoms: N_11  and  C_12
REMARK    7  A    between atoms: C_19  and  O_20
REMARK                            x       y       z     vdW  Elec       q    Type
REMARK                         _______ _______ _______ _____ _____    ______ ____
ROOT
ATOM      1  C   UNL     1       1.955   7.307  19.870  0.00  0.00    +0.000 C 
ATOM      2  O   UNL     1       1.546   6.538  20.737  0.00  0.00    +0.000 OA
ATOM      3  N   UNL     1       1.658   8.660  19.769  0.00  0.00    +0.000 N 
ATOM      4  H   UNL     1       1.837   9.102  18.879  0.00  0.00    +0.000 HD
ENDROOT
BRANCH   3   5
ATOM      5  C   UNL     1       0.866   9.380  20.715  0.00  0.00    +0.000 A 
ATOM      6  C   UNL     1       0.910   9.024  22.073  0.00  0.00    +0.000 A 
ATOM      7  C   UNL     1       0.100   9.644  23.014  0.00  0.00    +0.000 A 
ATOM      8  C   UNL     1      -0.777  10.641  22.617  0.00  0.00    +0.000 A 
ATOM      9  C   UNL     1      -0.841  11.041  21.278  0.00  0.00    +0.000 A 
ATOM     10  C   UNL     1      -1.774  12.027  20.918  0.00  0.00    +0.000 A 
ATOM     11  C   UNL     1      -1.885  12.464  19.601  0.00  0.00    +0.000 A 
ATOM     12  C   UNL     1      -1.035  11.934  18.646  0.00  0.00    +0.000 A 
ATOM     13  C   UNL     1      -0.107  10.943  18.976  0.00  0.00    +0.000 A 
ATOM     14  C   UNL     1       0.006  10.445  20.300  0.00  0.00    +0.000 A 
BRANCH  12  15
ATOM     15  O   UNL     1      -1.083  12.361  17.351  0.00  0.00    +0.000 OA
ATOM     16  H   UNL     1      -0.850  13.306  17.330  0.00  0.00    +0.000 HD
ENDBRANCH  12  15
ENDBRANCH   3   5
BRANCH   1  20
ATOM     17  C   UNL     1       4.443   5.428  16.925  0.00  0.00    +0.000 A 
ATOM     18  C   UNL     1       3.731   4.679  17.869  0.00  0.00    +0.000 A 
ATOM     19  C   UNL     1       2.903   5.313  18.789  0.00  0.00    +0.000 A 
ATOM     20  C   UNL     1       2.779   6.708  18.791  0.00  0.00    +0.000 A 
ATOM     21  C   UNL     1       3.495   7.470  17.865  0.00  0.00    +0.000 A 
ATOM     22  C   UNL     1       4.325   6.827  16.935  0.00  0.00    +0.000 A 
BRANCH  17  23
ATOM     23  C   UNL     1       5.335   4.721  15.929  0.00  0.00    +0.000 C 
BRANCH  23  24
ATOM     24  C   UNL     1       6.802   5.130  16.101  0.00  0.00    +0.000 C 
BRANCH  24  26
ATOM     25  C   UNL     1       7.659   5.806  18.358  0.00  0.00    +0.000 C 
ATOM     26  C   UNL     1       7.384   4.638  17.424  0.00  0.00    +0.000 C 
ENDBRANCH  24  26
ENDBRANCH  23  24
ENDBRANCH  17  23
ENDBRANCH   1  20
TORSDOF 6
ENDMDL
MODEL 5
REMARK VINA RESULT:      -7.6      3.122      9.434
REMARK  Name = 
REMARK  7 active torsions:
REMARK  status: ('A' for Active; 'I' for Inactive)
REMARK    1  A    between atoms: C_1  and  C_2
REMARK    2  A    between atoms: C_2  and  C_3
REMARK    3  A    between atoms: C_3  and  C_4
REMARK    4  A    between atoms: C_4  and  C_5
REMARK    5  A    between atoms: C_8  and  C_9
REMARK    6  A    between atoms: N_11  and  C_12
REMARK    7  A    between atoms: C_19  and  O_20
REMARK                            x       y       z     vdW  Elec       q    Type
REMARK                         _______ _______ _______ _____ _____    ______ ____
ROOT
ATOM      1  C   UNL     1       1.925   7.015  19.899  0.00  0.00    +0.000 C 
ATOM      2  O   UNL     1       2.006   6.118  20.735  0.00  0.00    +0.000 OA
ATOM      3  N   UNL     1       2.336   6.941  18.575  0.00  0.00    +0.000 N 
ATOM      4  H   UNL     1       2.457   7.815  18.084  0.00  0.00    +0.000 HD
ENDROOT
BRANCH   3   5
ATOM      5  C   UNL     1       2.870   5.764  17.966  0.00  0.00    +0.000 A 
ATOM      6  C   UNL     1       2.074   4.612  17.864  0.00  0.00    +0.000 A 
ATOM      7  C   UNL     1       2.575   3.424  17.351  0.00  0.00    +0.000 A 
ATOM      8  C   UNL     1       3.892   3.361  16.923  0.00  0.00    +0.000 A 
ATOM      9  C   UNL     1       4.717   4.490  16.988  0.00  0.00    +0.000 A 
ATOM     10  C   UNL     1       6.054   4.365  16.581  0.00  0.00    +0.000 A 
ATOM     11  C   UNL     1       6.922   5.453  16.625  0.00  0.00    +0.000 A 
ATOM     12  C   UNL     1       6.439   6.679  17.048  0.00  0.00    +0.000 A 
ATOM     13  C   UNL     1       5.115   6.825  17.470  0.00  0.00    +0.000 A 
ATOM     14  C   UNL     1       4.214   5.730  17.477  0.00  0.00    +0.000 A 
BRANCH  12  15
ATOM     15  O   UNL     1       7.245   7.779  17.070  0.00  0.00    +0.000 OA
ATOM     16  H   UNL     1       7.474   8.011  16.153  0.00  0.00    +0.000 HD
ENDBRANCH  12  15
ENDBRANCH   3   5
BRANCH   1  20
ATOM     17  C   UNL     1       0.255  10.664  21.415  0.00  0.00    +0.000 A 
ATOM     18  C   UNL     1       0.505   9.569  22.250  0.00  0.00    +0.000 A 
ATOM     19  C   UNL     1       1.081   8.412  21.739  0.00  0.00    +0.000 A 
ATOM     20  C   UNL     1       1.408   8.321  20.379  0.00  0.00    +0.000 A 
ATOM     21  C   UNL     1       1.150   9.400  19.530  0.00  0.00    +0.000 A 
ATOM     22  C   UNL     1       0.575  10.568  20.051  0.00  0.00    +0.000 A 
BRANCH  17  23
ATOM     23  C   UNL     1      -0.368  11.916  21.990  0.00  0.00    +0.000 C 
BRANCH  23  24
ATOM     24  C   UNL     1      -1.466  11.581  23.006  0.00  0.00    +0.000 C 
BRANCH  24  26
ATOM     25  C   UNL     1      -3.640  12.370  23.973  0.00  0.00    +0.000 C 
ATOM     26  C   UNL     1      -2.752  12.360  22.739  0.00  0.00    +0.000 C 
ENDBRANCH  24  26
ENDBRANCH  23  24
ENDBRANCH  17  23
ENDBRANCH   1  20
TORSDOF 6
ENDMDL
MODEL 6
REMARK VINA RESULT:      -7.5      1.708      3.307
REMARK  Name = 
REMARK  7 active torsions:
REMARK  status: ('A' for Active; 'I' for Inactive)
REMARK    1  A    between atoms: C_1  and  C_2
REMARK    2  A    between atoms: C_2  and  C_3
REMARK    3  A    between atoms: C_3  and  C_4
REMARK    4  A    between atoms: C_4  and  C_5
REMARK    5  A    between atoms: C_8  and  C_9
REMARK    6  A    between atoms: N_11  and  C_12
REMARK    7  A    between atoms: C_19  and  O_20
REMARK                            x       y       z     vdW  Elec       q    Type
REMARK                         _______ _______ _______ _____ _____    ______ ____
ROOT
ATOM      1  C   UNL     1       5.053   5.084  16.800  0.00  0.00    +0.000 C 
ATOM      2  O   UNL     1       5.780   4.855  17.764  0.00  0.00    +0.000 OA
ATOM      3  N   UNL     1       3.732   5.510  16.852  0.00  0.00    +0.000 N 
ATOM      4  H   UNL     1       3.183   5.402  16.012  0.00  0.00    +0.000 HD
ENDROOT
BRANCH   3   5
ATOM      5  C   UNL     1       3.033   5.806  18.062  0.00  0.00    +0.000 A 
ATOM      6  C   UNL     1       2.926   7.138  18.496  0.00  0.00    +0.000 A 
ATOM      7  C   UNL     1       2.323   7.465  19.702  0.00  0.00    +0.000 A 
ATOM      8  C   UNL     1       1.808   6.461  20.507  0.00  0.00    +0.000 A 
ATOM      9  C   UNL     1       1.875   5.122  20.107  0.00  0.00    +0.000 A 
ATOM     10  C   UNL     1       1.377   4.139  20.976  0.00  0.00    +0.000 A 
ATOM     11  C   UNL     1       1.418   2.790  20.633  0.00  0.00    +0.000 A 
ATOM     12  C   UNL     1       1.932   2.427  19.400  0.00  0.00    +0.000 A 
ATOM     13  C   UNL     1       2.446   3.387  18.523  0.00  0.00    +0.000 A 
ATOM     14  C   UNL     1       2.457   4.765  18.857  0.00  0.00    +0.000 A 
BRANCH  12  15
ATOM     15  O   UNL     1       1.956   1.122  19.007  0.00  0.00    +0.000 OA
ATOM     16  H   UNL     1       1.330   0.622  19.560  0.00  0.00    +0.000 HD
ENDBRANCH  12  15
ENDBRANCH   3   5
BRANCH   1  20
ATOM     17  C   UNL     1       6.613   4.040  12.943  0.00  0.00    +0.000 A 
ATOM     18  C   UNL     1       5.298   3.733  13.310  0.00  0.00    +0.000 A 
ATOM     19  C   UNL     1       4.807   4.116  14.553  0.00  0.00    +0.000 A 
ATOM     20  C   UNL     1       5.625   4.804  15.460  0.00  0.00    +0.000 A 
ATOM     21  C   UNL     1       6.945   5.104  15.114  0.00  0.00    +0.000 A 
ATOM     22  C   UNL     1       7.434   4.721  13.856  0.00  0.00    +0.000 A 
BRANCH  17  23
ATOM     23  C   UNL     1       7.128   3.619  11.585  0.00  0.00    +0.000 C 
BRANCH  23  24
ATOM     24  C   UNL     1       7.360   2.106  11.517  0.00  0.00    +0.000 C 
BRANCH  24  26
ATOM     25  C   UNL     1       6.213  -0.116  11.328  0.00  0.00    +0.000 C 
ATOM     26  C   UNL     1       6.140   1.362  10.977  0.00  0.00    +0.000 C 
ENDBRANCH  24  26
ENDBRANCH  23  24
ENDBRANCH  17  23
ENDBRANCH   1  20
TORSDOF 6
ENDMDL
MODEL 7
REMARK VINA RESULT:      -7.5      3.382      5.622
REMARK  Name = 
REMARK  7 active torsions:
REMARK  status: ('A' for Active; 'I' for Inactive)
REMARK    1  A    between atoms: C_1  and  C_2
REMARK    2  A    between atoms: C_2  and  C_3
REMARK    3  A    between atoms: C_3  and  C_4
REMARK    4  A    between atoms: C_4  and  C_5
REMARK    5  A    between atoms: C_8  and  C_9
REMARK    6  A    between atoms: N_11  and  C_12
REMARK    7  A    between atoms: C_19  and  O_20
REMARK                            x       y       z     vdW  Elec       q    Type
REMARK                         _______ _______ _______ _____ _____    ______ ____
ROOT
ATOM      1  C   UNL     1       1.769   7.987  19.789  0.00  0.00    +0.000 C 
ATOM      2  O   UNL     1       1.348   7.668  20.898  0.00  0.00    +0.000 OA
ATOM      3  N   UNL     1       1.415   9.124  19.073  0.00  0.00    +0.000 N 
ATOM      4  H   UNL     1       1.623   9.125  18.085  0.00  0.00    +0.000 HD
ENDROOT
BRANCH   3   5
ATOM      5  C   UNL     1       0.535  10.137  19.562  0.00  0.00    +0.000 A 
ATOM      6  C   UNL     1       0.828  10.788  20.771  0.00  0.00    +0.000 A 
ATOM      7  C   UNL     1      -0.037  11.723  21.323  0.00  0.00    +0.000 A 
ATOM      8  C   UNL     1      -1.221  12.031  20.673  0.00  0.00    +0.000 A 
ATOM      9  C   UNL     1      -1.546  11.421  19.456  0.00  0.00    +0.000 A 
ATOM     10  C   UNL     1      -2.776  11.735  18.858  0.00  0.00    +0.000 A 
ATOM     11  C   UNL     1      -3.155  11.158  17.649  0.00  0.00    +0.000 A 
ATOM     12  C   UNL     1      -2.283  10.287  17.020  0.00  0.00    +0.000 A 
ATOM     13  C   UNL     1      -1.058   9.948  17.602  0.00  0.00    +0.000 A 
ATOM     14  C   UNL     1      -0.658  10.485  18.853  0.00  0.00    +0.000 A 
BRANCH  12  15
ATOM     15  O   UNL     1      -2.596   9.729  15.816  0.00  0.00    +0.000 OA
ATOM     16  H   UNL     1      -2.834   8.797  15.961  0.00  0.00    +0.000 HD
ENDBRANCH  12  15
ENDBRANCH   3   5
BRANCH   1  20
ATOM     17  C   UNL     1       4.296   5.253  17.657  0.00  0.00    +0.000 A 
ATOM     18  C   UNL     1       4.042   6.544  17.178  0.00  0.00    +0.000 A 
ATOM     19  C   UNL     1       3.249   7.422  17.908  0.00  0.00    +0.000 A 
ATOM     20  C   UNL     1       2.683   7.023  19.126  0.00  0.00    +0.000 A 
ATOM     21  C   UNL     1       2.915   5.733  19.610  0.00  0.00    +0.000 A 
ATOM     22  C   UNL     1       3.721   4.853  18.874  0.00  0.00    +0.000 A 
BRANCH  17  23
ATOM     23  C   UNL     1       5.165   4.315  16.851  0.00  0.00    +0.000 C 
BRANCH  23  24
ATOM     24  C   UNL     1       6.563   4.900  16.622  0.00  0.00    +0.000 C 
BRANCH  24  26
ATOM     25  C   UNL     1       7.681   6.166  18.476  0.00  0.00    +0.000 C 
ATOM     26  C   UNL     1       7.441   4.793  17.867  0.00  0.00    +0.000 C 
ENDBRANCH  24  26
ENDBRANCH  23  24
ENDBRANCH  17  23
ENDBRANCH   1  20
TORSDOF 6
ENDMDL
MODEL 8
REMARK VINA RESULT:      -7.4      2.817      5.128
REMARK  Name = 
REMARK  7 active torsions:
REMARK  status: ('A' for Active; 'I' for Inactive)
REMARK    1  A    between atoms: C_1  and  C_2
REMARK    2  A    between atoms: C_2  and  C_3
REMARK    3  A    between atoms: C_3  and  C_4
REMARK    4  A    between atoms: C_4  and  C_5
REMARK    5  A    between atoms: C_8  and  C_9
REMARK    6  A    between atoms: N_11  and  C_12
REMARK    7  A    between atoms: C_19  and  O_20
REMARK                            x       y       z     vdW  Elec       q    Type
REMARK                         _______ _______ _______ _____ _____    ______ ____
ROOT
ATOM      1  C   UNL     1       1.843   8.005  19.375  0.00  0.00    +0.000 C 
ATOM      2  O   UNL     1       1.568   7.772  20.550  0.00  0.00    +0.000 OA
ATOM      3  N   UNL     1       1.408   9.095  18.632  0.00  0.00    +0.000 N 
ATOM      4  H   UNL     1       1.486   9.024  17.628  0.00  0.00    +0.000 HD
ENDROOT
BRANCH   3   5
ATOM      5  C   UNL     1       0.609  10.156  19.158  0.00  0.00    +0.000 A 
ATOM      6  C   UNL     1       1.059  10.877  20.276  0.00  0.00    +0.000 A 
ATOM      7  C   UNL     1       0.282  11.864  20.867  0.00  0.00    +0.000 A 
ATOM      8  C   UNL     1      -0.970  12.154  20.349  0.00  0.00    +0.000 A 
ATOM      9  C   UNL     1      -1.452  11.474  19.225  0.00  0.00    +0.000 A 
ATOM     10  C   UNL     1      -2.743  11.775  18.764  0.00  0.00    +0.000 A 
ATOM     11  C   UNL     1      -3.276  11.130  17.651  0.00  0.00    +0.000 A 
ATOM     12  C   UNL     1      -2.500  10.202  16.979  0.00  0.00    +0.000 A 
ATOM     13  C   UNL     1      -1.217   9.875  17.427  0.00  0.00    +0.000 A 
ATOM     14  C   UNL     1      -0.658  10.483  18.580  0.00  0.00    +0.000 A 
BRANCH  12  15
ATOM     15  O   UNL     1      -2.969   9.575  15.862  0.00  0.00    +0.000 OA
ATOM     16  H   UNL     1      -3.453   8.777  16.138  0.00  0.00    +0.000 HD
ENDBRANCH  12  15
ENDBRANCH   3   5
BRANCH   1  20
ATOM     17  C   UNL     1       4.146   5.171  17.124  0.00  0.00    +0.000 A 
ATOM     18  C   UNL     1       4.324   6.550  16.969  0.00  0.00    +0.000 A 
ATOM     19  C   UNL     1       3.590   7.446  17.738  0.00  0.00    +0.000 A 
ATOM     20  C   UNL     1       2.654   6.981  18.670  0.00  0.00    +0.000 A 
ATOM     21  C   UNL     1       2.453   5.607  18.826  0.00  0.00    +0.000 A 
ATOM     22  C   UNL     1       3.200   4.707  18.053  0.00  0.00    +0.000 A 
BRANCH  17  23
ATOM     23  C   UNL     1       4.957   4.212  16.282  0.00  0.00    +0.000 C 
BRANCH  23  24
ATOM     24  C   UNL     1       6.435   4.615  16.238  0.00  0.00    +0.000 C 
BRANCH  24  26
ATOM     25  C   UNL     1       6.174   3.948  13.835  0.00  0.00    +0.000 C 
ATOM     26  C   UNL     1       6.927   4.841  14.811  0.00  0.00    +0.000 C 
ENDBRANCH  24  26
ENDBRANCH  23  24
ENDBRANCH  17  23
ENDBRANCH   1  20
TORSDOF 6
ENDMDL
MODEL 9
REMARK VINA RESULT:      -7.4      2.624      4.678
REMARK  Name = 
REMARK  7 active torsions:
REMARK  status: ('A' for Active; 'I' for Inactive)
REMARK    1  A    between atoms: C_1  and  C_2
REMARK    2  A    between atoms: C_2  and  C_3
REMARK    3  A    between atoms: C_3  and  C_4
REMARK    4  A    between atoms: C_4  and  C_5
REMARK    5  A    between atoms: C_8  and  C_9
REMARK    6  A    between atoms: N_11  and  C_12
REMARK    7  A    between atoms: C_19  and  O_20
REMARK                            x       y       z     vdW  Elec       q    Type
REMARK                         _______ _______ _______ _____ _____    ______ ____
ROOT
ATOM      1  C   UNL     1       1.849   7.293  20.001  0.00  0.00    +0.000 C 
ATOM      2  O   UNL     1       1.468   6.569  20.919  0.00  0.00    +0.000 OA
ATOM      3  N   UNL     1       1.549   8.639  19.840  0.00  0.00    +0.000 N 
ATOM      4  H   UNL     1       1.698   9.035  18.923  0.00  0.00    +0.000 HD
ENDROOT
BRANCH   3   5
ATOM      5  C   UNL     1       0.785   9.407  20.772  0.00  0.00    +0.000 A 
ATOM      6  C   UNL     1       0.831   9.087  22.139  0.00  0.00    +0.000 A 
ATOM      7  C   UNL     1       0.048   9.756  23.070  0.00  0.00    +0.000 A 
ATOM      8  C   UNL     1      -0.803  10.766  22.652  0.00  0.00    +0.000 A 
ATOM      9  C   UNL     1      -0.868  11.132  21.303  0.00  0.00    +0.000 A 
ATOM     10  C   UNL     1      -1.775  12.133  20.925  0.00  0.00    +0.000 A 
ATOM     11  C   UNL     1      -1.885  12.537  19.597  0.00  0.00    +0.000 A 
ATOM     12  C   UNL     1      -1.060  11.958  18.649  0.00  0.00    +0.000 A 
ATOM     13  C   UNL     1      -0.157  10.950  18.999  0.00  0.00    +0.000 A 
ATOM     14  C   UNL     1      -0.047  10.485  20.335  0.00  0.00    +0.000 A 
BRANCH  12  15
ATOM     15  O   UNL     1      -1.107  12.351  17.344  0.00  0.00    +0.000 OA
ATOM     16  H   UNL     1      -0.210  12.294  16.973  0.00  0.00    +0.000 HD
ENDBRANCH  12  15
ENDBRANCH   3   5
BRANCH   1  20
ATOM     17  C   UNL     1       4.234   5.252  17.076  0.00  0.00    +0.000 A 
ATOM     18  C   UNL     1       3.489   4.553  18.034  0.00  0.00    +0.000 A 
ATOM     19  C   UNL     1       2.696   5.239  18.947  0.00  0.00    +0.000 A 
ATOM     20  C   UNL     1       2.640   6.639  18.929  0.00  0.00    +0.000 A 
ATOM     21  C   UNL     1       3.389   7.352  17.989  0.00  0.00    +0.000 A 
ATOM     22  C   UNL     1       4.183   6.656  17.066  0.00  0.00    +0.000 A 
BRANCH  17  23
ATOM     23  C   UNL     1       5.087   4.489  16.089  0.00  0.00    +0.000 C 
BRANCH  23  24
ATOM     24  C   UNL     1       6.445   5.166  15.879  0.00  0.00    +0.000 C 
BRANCH  24  26
ATOM     25  C   UNL     1       6.115   3.935  13.720  0.00  0.00    +0.000 C 
ATOM     26  C   UNL     1       7.058   4.816  14.525  0.00  0.00    +0.000 C 
ENDBRANCH  24  26
ENDBRANCH  23  24
ENDBRANCH  17  23
ENDBRANCH   1  20
TORSDOF 6
ENDMDL
