MODEL 1
REMARK VINA RESULT:      -8.4      0.000      0.000
REMARK  Name = 
REMARK  2 active torsions:
REMARK  status: ('A' for Active; 'I' for Inactive)
REMARK    1  A    between atoms: C_1  and  C_2
REMARK    2  A    between atoms: C_6  and  N_7
REMARK                            x       y       z     vdW  Elec       q    Type
REMARK                         _______ _______ _______ _____ _____    ______ ____
ROOT
ATOM      1  N   UNL     1       2.073   7.889  18.948  0.00  0.00    +0.000 N 
ATOM      2  C   UNL     1       1.695   9.116  18.449  0.00  0.00    +0.000 C 
ATOM      3  O   UNL     1       1.938   9.501  17.309  0.00  0.00    +0.000 OA
ATOM      4  N   UNL     1       0.933   9.888  19.308  0.00  0.00    +0.000 N 
ATOM      5  C   UNL     1       0.367  11.150  18.784  0.00  0.00    +0.000 C 
ATOM      6  C   UNL     1      -1.041  11.430  19.359  0.00  0.00    +0.000 C 
ATOM      7  N   UNL     1      -0.933  11.356  20.817  0.00  0.00    +0.000 N 
ATOM      8  C   UNL     1      -1.705  12.161  21.625  0.00  0.00    +0.000 A 
ATOM      9  C   UNL     1      -1.207  12.502  22.886  0.00  0.00    +0.000 A 
ATOM     10  C   UNL     1      -1.935  13.332  23.730  0.00  0.00    +0.000 A 
ATOM     11  C   UNL     1      -3.156  13.809  23.299  0.00  0.00    +0.000 A 
ATOM     12  C   UNL     1      -3.582  13.451  22.030  0.00  0.00    +0.000 A 
ATOM     13  N   UNL     1      -2.876  12.654  21.187  0.00  0.00    +0.000 NA
ATOM     14  C   UNL     1      -0.490  10.057  21.329  0.00  0.00    +0.000 C 
ATOM     15  C   UNL     1       0.918   9.784  20.777  0.00  0.00    +0.000 C 
ATOM     16  H   UNL     1       1.536   7.545  19.729  0.00  0.00    +0.000 HD
ENDROOT
BRANCH   1  22
ATOM     17  C   UNL     1       6.946   4.509  14.715  0.00  0.00    +0.000 C 
ATOM     18  C   UNL     1       5.929   5.063  15.628  0.00  0.00    +0.000 A 
ATOM     19  N   UNL     1       5.742   6.318  15.976  0.00  0.00    +0.000 NA
ATOM     20  C   UNL     1       4.657   6.260  16.813  0.00  0.00    +0.000 A 
ATOM     21  C   UNL     1       3.967   7.270  17.491  0.00  0.00    +0.000 A 
ATOM     22  C   UNL     1       2.856   6.922  18.273  0.00  0.00    +0.000 A 
ATOM     23  C   UNL     1       2.481   5.569  18.402  0.00  0.00    +0.000 A 
ATOM     24  C   UNL     1       3.166   4.542  17.732  0.00  0.00    +0.000 A 
ATOM     25  C   UNL     1       4.236   4.949  16.949  0.00  0.00    +0.000 A 
ATOM     26  O   UNL     1       5.055   4.167  16.188  0.00  0.00    +0.000 OA
ENDBRANCH   1  22
TORSDOF 1
ENDMDL
MODEL 2
REMARK VINA RESULT:      -7.7      1.339      1.824
REMARK  Name = 
REMARK  2 active torsions:
REMARK  status: ('A' for Active; 'I' for Inactive)
REMARK    1  A    between atoms: C_1  and  C_2
REMARK    2  A    between atoms: C_6  and  N_7
REMARK                            x       y       z     vdW  Elec       q    Type
REMARK                         _______ _______ _______ _____ _____    ______ ____
ROOT
ATOM      1  N   UNL     1       2.031   8.047  18.841  0.00  0.00    +0.000 N 
ATOM      2  C   UNL     1       1.449   7.907  20.082  0.00  0.00    +0.000 C 
ATOM      3  O   UNL     1       1.625   6.944  20.822  0.00  0.00    +0.000 OA
ATOM      4  N   UNL     1       0.689   8.986  20.496  0.00  0.00    +0.000 N 
ATOM      5  C   UNL     1       0.160   8.968  21.878  0.00  0.00    +0.000 C 
ATOM      6  C   UNL     1       0.162  10.379  22.511  0.00  0.00    +0.000 C 
ATOM      7  N   UNL     1      -0.544  11.268  21.588  0.00  0.00    +0.000 N 
ATOM      8  C   UNL     1      -1.302  12.318  22.056  0.00  0.00    +0.000 A 
ATOM      9  C   UNL     1      -2.379  12.754  21.279  0.00  0.00    +0.000 A 
ATOM     10  C   UNL     1      -3.190  13.794  21.718  0.00  0.00    +0.000 A 
ATOM     11  C   UNL     1      -2.909  14.385  22.934  0.00  0.00    +0.000 A 
ATOM     12  C   UNL     1      -1.841  13.891  23.665  0.00  0.00    +0.000 A 
ATOM     13  N   UNL     1      -1.049  12.866  23.257  0.00  0.00    +0.000 NA
ATOM     14  C   UNL     1       0.064  11.372  20.259  0.00  0.00    +0.000 C 
ATOM     15  C   UNL     1       0.044   9.976  19.617  0.00  0.00    +0.000 C 
ATOM     16  H   UNL     1       2.107   8.989  18.493  0.00  0.00    +0.000 HD
ENDROOT
BRANCH   1  22
ATOM     17  C   UNL     1       7.075   4.717  14.771  0.00  0.00    +0.000 C 
ATOM     18  C   UNL     1       6.023   5.261  15.649  0.00  0.00    +0.000 A 
ATOM     19  N   UNL     1       5.811   6.514  15.990  0.00  0.00    +0.000 NA
ATOM     20  C   UNL     1       4.700   6.445  16.792  0.00  0.00    +0.000 A 
ATOM     21  C   UNL     1       3.978   7.448  17.446  0.00  0.00    +0.000 A 
ATOM     22  C   UNL     1       2.846   7.088  18.192  0.00  0.00    +0.000 A 
ATOM     23  C   UNL     1       2.481   5.732  18.309  0.00  0.00    +0.000 A 
ATOM     24  C   UNL     1       3.198   4.712  17.663  0.00  0.00    +0.000 A 
ATOM     25  C   UNL     1       4.289   5.130  16.915  0.00  0.00    +0.000 A 
ATOM     26  O   UNL     1       5.141   4.356  16.181  0.00  0.00    +0.000 OA
ENDBRANCH   1  22
TORSDOF 1
ENDMDL
MODEL 3
REMARK VINA RESULT:      -7.6      1.018      1.101
REMARK  Name = 
REMARK  2 active torsions:
REMARK  status: ('A' for Active; 'I' for Inactive)
REMARK    1  A    between atoms: C_1  and  C_2
REMARK    2  A    between atoms: C_6  and  N_7
REMARK                            x       y       z     vdW  Elec       q    Type
REMARK                         _______ _______ _______ _____ _____    ______ ____
ROOT
ATOM      1  N   UNL     1       1.760   8.175  19.836  0.00  0.00    +0.000 N 
ATOM      2  C   UNL     1       1.286   9.282  19.166  0.00  0.00    +0.000 C 
ATOM      3  O   UNL     1       1.350   9.433  17.950  0.00  0.00    +0.000 OA
ATOM      4  N   UNL     1       0.641  10.214  19.961  0.00  0.00    +0.000 N 
ATOM      5  C   UNL     1      -0.024  11.352  19.288  0.00  0.00    +0.000 C 
ATOM      6  C   UNL     1      -1.338  11.750  20.000  0.00  0.00    +0.000 C 
ATOM      7  N   UNL     1      -1.016  11.965  21.411  0.00  0.00    +0.000 N 
ATOM      8  C   UNL     1      -1.678  12.920  22.151  0.00  0.00    +0.000 A 
ATOM      9  C   UNL     1      -1.008  13.499  23.233  0.00  0.00    +0.000 A 
ATOM     10  C   UNL     1      -1.622  14.485  23.996  0.00  0.00    +0.000 A 
ATOM     11  C   UNL     1      -2.904  14.877  23.665  0.00  0.00    +0.000 A 
ATOM     12  C   UNL     1      -3.503  14.279  22.569  0.00  0.00    +0.000 A 
ATOM     13  N   UNL     1      -2.911  13.326  21.804  0.00  0.00    +0.000 NA
ATOM     14  C   UNL     1      -0.473  10.790  22.097  0.00  0.00    +0.000 C 
ATOM     15  C   UNL     1       0.844  10.403  21.407  0.00  0.00    +0.000 C 
ATOM     16  H   UNL     1       1.351   7.997  20.739  0.00  0.00    +0.000 HD
ENDROOT
BRANCH   1  22
ATOM     17  C   UNL     1       5.852   3.947  15.539  0.00  0.00    +0.000 C 
ATOM     18  C   UNL     1       5.018   4.691  16.500  0.00  0.00    +0.000 A 
ATOM     19  N   UNL     1       4.802   5.988  16.560  0.00  0.00    +0.000 NA
ATOM     20  C   UNL     1       3.940   6.120  17.619  0.00  0.00    +0.000 A 
ATOM     21  C   UNL     1       3.330   7.252  18.170  0.00  0.00    +0.000 A 
ATOM     22  C   UNL     1       2.457   7.088  19.255  0.00  0.00    +0.000 A 
ATOM     23  C   UNL     1       2.242   5.806  19.800  0.00  0.00    +0.000 A 
ATOM     24  C   UNL     1       2.850   4.660  19.263  0.00  0.00    +0.000 A 
ATOM     25  C   UNL     1       3.679   4.879  18.172  0.00  0.00    +0.000 A 
ATOM     26  O   UNL     1       4.374   3.949  17.456  0.00  0.00    +0.000 OA
ENDBRANCH   1  22
TORSDOF 1
ENDMDL
MODEL 4
REMARK VINA RESULT:      -7.4      2.863     10.162
REMARK  Name = 
REMARK  2 active torsions:
REMARK  status: ('A' for Active; 'I' for Inactive)
REMARK    1  A    between atoms: C_1  and  C_2
REMARK    2  A    between atoms: C_6  and  N_7
REMARK                            x       y       z     vdW  Elec       q    Type
REMARK                         _______ _______ _______ _____ _____    ______ ____
ROOT
ATOM      1  N   UNL     1      -0.636  11.247  21.881  0.00  0.00    +0.000 N 
ATOM      2  C   UNL     1      -0.543  11.169  20.508  0.00  0.00    +0.000 C 
ATOM      3  O   UNL     1      -0.990  12.013  19.737  0.00  0.00    +0.000 OA
ATOM      4  N   UNL     1       0.176  10.087  20.032  0.00  0.00    +0.000 N 
ATOM      5  C   UNL     1       0.445  10.023  18.578  0.00  0.00    +0.000 C 
ATOM      6  C   UNL     1       1.845   9.437  18.279  0.00  0.00    +0.000 C 
ATOM      7  N   UNL     1       1.936   8.158  18.984  0.00  0.00    +0.000 N 
ATOM      8  C   UNL     1       2.653   7.108  18.455  0.00  0.00    +0.000 A 
ATOM      9  C   UNL     1       2.267   5.808  18.794  0.00  0.00    +0.000 A 
ATOM     10  C   UNL     1       2.941   4.713  18.266  0.00  0.00    +0.000 A 
ATOM     11  C   UNL     1       3.996   4.936  17.406  0.00  0.00    +0.000 A 
ATOM     12  C   UNL     1       4.314   6.248  17.094  0.00  0.00    +0.000 A 
ATOM     13  N   UNL     1       3.656   7.328  17.587  0.00  0.00    +0.000 NA
ATOM     14  C   UNL     1       1.792   8.254  20.438  0.00  0.00    +0.000 C 
ATOM     15  C   UNL     1       0.395   8.816  20.742  0.00  0.00    +0.000 C 
ATOM     16  H   UNL     1       0.046  10.719  22.400  0.00  0.00    +0.000 HD
ENDROOT
BRANCH   1  22
ATOM     17  C   UNL     1      -2.421  17.309  25.508  0.00  0.00    +0.000 C 
ATOM     18  C   UNL     1      -2.199  16.047  24.779  0.00  0.00    +0.000 A 
ATOM     19  N   UNL     1      -1.152  15.686  24.070  0.00  0.00    +0.000 NA
ATOM     20  C   UNL     1      -1.470  14.421  23.648  0.00  0.00    +0.000 A 
ATOM     21  C   UNL     1      -0.751  13.505  22.873  0.00  0.00    +0.000 A 
ATOM     22  C   UNL     1      -1.319  12.249  22.611  0.00  0.00    +0.000 A 
ATOM     23  C   UNL     1      -2.611  11.947  23.087  0.00  0.00    +0.000 A 
ATOM     24  C   UNL     1      -3.348  12.857  23.862  0.00  0.00    +0.000 A 
ATOM     25  C   UNL     1      -2.724  14.069  24.115  0.00  0.00    +0.000 A 
ATOM     26  O   UNL     1      -3.205  15.116  24.846  0.00  0.00    +0.000 OA
ENDBRANCH   1  22
TORSDOF 1
ENDMDL
MODEL 5
REMARK VINA RESULT:      -7.1      3.016     10.419
REMARK  Name = 
REMARK  2 active torsions:
REMARK  status: ('A' for Active; 'I' for Inactive)
REMARK    1  A    between atoms: C_1  and  C_2
REMARK    2  A    between atoms: C_6  and  N_7
REMARK                            x       y       z     vdW  Elec       q    Type
REMARK                         _______ _______ _______ _____ _____    ______ ____
ROOT
ATOM      1  N   UNL     1      -0.779  11.744  21.432  0.00  0.00    +0.000 N 
ATOM      2  C   UNL     1      -0.063  10.747  22.058  0.00  0.00    +0.000 C 
ATOM      3  O   UNL     1      -0.099  10.525  23.264  0.00  0.00    +0.000 OA
ATOM      4  N   UNL     1       0.665   9.930  21.210  0.00  0.00    +0.000 N 
ATOM      5  C   UNL     1       1.335   8.749  21.798  0.00  0.00    +0.000 C 
ATOM      6  C   UNL     1       1.307   7.537  20.836  0.00  0.00    +0.000 C 
ATOM      7  N   UNL     1       1.855   7.989  19.557  0.00  0.00    +0.000 N 
ATOM      8  C   UNL     1       2.588   7.138  18.760  0.00  0.00    +0.000 A 
ATOM      9  C   UNL     1       3.547   7.693  17.908  0.00  0.00    +0.000 A 
ATOM     10  C   UNL     1       4.331   6.875  17.103  0.00  0.00    +0.000 A 
ATOM     11  C   UNL     1       4.141   5.509  17.160  0.00  0.00    +0.000 A 
ATOM     12  C   UNL     1       3.189   5.023  18.042  0.00  0.00    +0.000 A 
ATOM     13  N   UNL     1       2.426   5.806  18.847  0.00  0.00    +0.000 NA
ATOM     14  C   UNL     1       1.106   9.079  18.926  0.00  0.00    +0.000 C 
ATOM     15  C   UNL     1       1.149  10.292  19.868  0.00  0.00    +0.000 C 
ATOM     16  H   UNL     1      -0.952  11.613  20.448  0.00  0.00    +0.000 HD
ENDROOT
BRANCH   1  22
ATOM     17  C   UNL     1      -6.402  15.680  23.878  0.00  0.00    +0.000 C 
ATOM     18  C   UNL     1      -5.180  14.961  23.471  0.00  0.00    +0.000 A 
ATOM     19  N   UNL     1      -5.081  13.815  22.834  0.00  0.00    +0.000 NA
ATOM     20  C   UNL     1      -3.728  13.640  22.696  0.00  0.00    +0.000 A 
ATOM     21  C   UNL     1      -2.993  12.617  22.089  0.00  0.00    +0.000 A 
ATOM     22  C   UNL     1      -1.593  12.709  22.072  0.00  0.00    +0.000 A 
ATOM     23  C   UNL     1      -0.951  13.795  22.702  0.00  0.00    +0.000 A 
ATOM     24  C   UNL     1      -1.673  14.827  23.321  0.00  0.00    +0.000 A 
ATOM     25  C   UNL     1      -3.054  14.698  23.279  0.00  0.00    +0.000 A 
ATOM     26  O   UNL     1      -3.986  15.558  23.785  0.00  0.00    +0.000 OA
ENDBRANCH   1  22
TORSDOF 1
ENDMDL
MODEL 6
REMARK VINA RESULT:      -7.1      2.525      9.995
REMARK  Name = 
REMARK  2 active torsions:
REMARK  status: ('A' for Active; 'I' for Inactive)
REMARK    1  A    between atoms: C_1  and  C_2
REMARK    2  A    between atoms: C_6  and  N_7
REMARK                            x       y       z     vdW  Elec       q    Type
REMARK                         _______ _______ _______ _____ _____    ______ ____
ROOT
ATOM      1  N   UNL     1       0.400  11.043  21.165  0.00  0.00    +0.000 N 
ATOM      2  C   UNL     1       0.551  10.863  19.808  0.00  0.00    +0.000 C 
ATOM      3  O   UNL     1       0.355  11.738  18.970  0.00  0.00    +0.000 OA
ATOM      4  N   UNL     1       1.027   9.619  19.432  0.00  0.00    +0.000 N 
ATOM      5  C   UNL     1       1.355   9.408  18.005  0.00  0.00    +0.000 C 
ATOM      6  C   UNL     1       2.597   8.503  17.830  0.00  0.00    +0.000 C 
ATOM      7  N   UNL     1       2.351   7.281  18.597  0.00  0.00    +0.000 N 
ATOM      8  C   UNL     1       2.835   6.066  18.167  0.00  0.00    +0.000 A 
ATOM      9  C   UNL     1       2.141   4.910  18.538  0.00  0.00    +0.000 A 
ATOM     10  C   UNL     1       2.573   3.661  18.109  0.00  0.00    +0.000 A 
ATOM     11  C   UNL     1       3.698   3.586  17.314  0.00  0.00    +0.000 A 
ATOM     12  C   UNL     1       4.327   4.770  16.965  0.00  0.00    +0.000 A 
ATOM     13  N   UNL     1       3.909   5.999  17.362  0.00  0.00    +0.000 NA
ATOM     14  C   UNL     1       2.151   7.495  20.033  0.00  0.00    +0.000 C 
ATOM     15  C   UNL     1       0.906   8.377  20.213  0.00  0.00    +0.000 C 
ATOM     16  H   UNL     1       0.912  10.406  21.754  0.00  0.00    +0.000 HD
ENDROOT
BRANCH   1  22
ATOM     17  C   UNL     1      -3.507  15.892  24.948  0.00  0.00    +0.000 C 
ATOM     18  C   UNL     1      -2.612  15.011  24.176  0.00  0.00    +0.000 A 
ATOM     19  N   UNL     1      -2.693  13.708  24.010  0.00  0.00    +0.000 NA
ATOM     20  C   UNL     1      -1.632  13.423  23.190  0.00  0.00    +0.000 A 
ATOM     21  C   UNL     1      -1.195  12.212  22.642  0.00  0.00    +0.000 A 
ATOM     22  C   UNL     1      -0.073  12.216  21.801  0.00  0.00    +0.000 A 
ATOM     23  C   UNL     1       0.621  13.418  21.558  0.00  0.00    +0.000 A 
ATOM     24  C   UNL     1       0.200  14.642  22.103  0.00  0.00    +0.000 A 
ATOM     25  C   UNL     1      -0.933  14.582  22.902  0.00  0.00    +0.000 A 
ATOM     26  O   UNL     1      -1.559  15.614  23.537  0.00  0.00    +0.000 OA
ENDBRANCH   1  22
TORSDOF 1
ENDMDL
MODEL 7
REMARK VINA RESULT:      -7.1      3.617      9.097
REMARK  Name = 
REMARK  2 active torsions:
REMARK  status: ('A' for Active; 'I' for Inactive)
REMARK    1  A    between atoms: C_1  and  C_2
REMARK    2  A    between atoms: C_6  and  N_7
REMARK                            x       y       z     vdW  Elec       q    Type
REMARK                         _______ _______ _______ _____ _____    ______ ____
ROOT
ATOM      1  N   UNL     1       1.571  11.476  19.514  0.00  0.00    +0.000 N 
ATOM      2  C   UNL     1       1.846  10.594  18.492  0.00  0.00    +0.000 C 
ATOM      3  O   UNL     1       2.147  10.932  17.351  0.00  0.00    +0.000 OA
ATOM      4  N   UNL     1       1.837   9.259  18.854  0.00  0.00    +0.000 N 
ATOM      5  C   UNL     1       2.270   8.267  17.844  0.00  0.00    +0.000 C 
ATOM      6  C   UNL     1       3.057   7.101  18.487  0.00  0.00    +0.000 C 
ATOM      7  N   UNL     1       2.228   6.565  19.567  0.00  0.00    +0.000 N 
ATOM      8  C   UNL     1       2.246   5.223  19.874  0.00  0.00    +0.000 A 
ATOM      9  C   UNL     1       1.100   4.660  20.444  0.00  0.00    +0.000 A 
ATOM     10  C   UNL     1       1.057   3.305  20.748  0.00  0.00    +0.000 A 
ATOM     11  C   UNL     1       2.167   2.530  20.480  0.00  0.00    +0.000 A 
ATOM     12  C   UNL     1       3.263   3.145  19.895  0.00  0.00    +0.000 A 
ATOM     13  N   UNL     1       3.315   4.464  19.577  0.00  0.00    +0.000 NA
ATOM     14  C   UNL     1       1.911   7.528  20.625  0.00  0.00    +0.000 C 
ATOM     15  C   UNL     1       1.110   8.679  19.995  0.00  0.00    +0.000 C 
ATOM     16  H   UNL     1       1.688  11.119  20.449  0.00  0.00    +0.000 HD
ENDROOT
BRANCH   1  22
ATOM     17  C   UNL     1      -0.506  18.340  18.225  0.00  0.00    +0.000 C 
ATOM     18  C   UNL     1       0.030  17.006  18.553  0.00  0.00    +0.000 A 
ATOM     19  N   UNL     1      -0.593  15.848  18.530  0.00  0.00    +0.000 NA
ATOM     20  C   UNL     1       0.380  14.953  18.894  0.00  0.00    +0.000 A 
ATOM     21  C   UNL     1       0.341  13.562  19.035  0.00  0.00    +0.000 A 
ATOM     22  C   UNL     1       1.514  12.886  19.402  0.00  0.00    +0.000 A 
ATOM     23  C   UNL     1       2.692  13.613  19.668  0.00  0.00    +0.000 A 
ATOM     24  C   UNL     1       2.748  15.010  19.537  0.00  0.00    +0.000 A 
ATOM     25  C   UNL     1       1.567  15.621  19.141  0.00  0.00    +0.000 A 
ATOM     26  O   UNL     1       1.349  16.950  18.925  0.00  0.00    +0.000 OA
ENDBRANCH   1  22
TORSDOF 1
ENDMDL
MODEL 8
REMARK VINA RESULT:      -7.1      1.871      2.363
REMARK  Name = 
REMARK  2 active torsions:
REMARK  status: ('A' for Active; 'I' for Inactive)
REMARK    1  A    between atoms: C_1  and  C_2
REMARK    2  A    between atoms: C_6  and  N_7
REMARK                            x       y       z     vdW  Elec       q    Type
REMARK                         _______ _______ _______ _____ _____    ______ ____
ROOT
ATOM      1  N   UNL     1       1.634   8.187  19.797  0.00  0.00    +0.000 N 
ATOM      2  C   UNL     1       1.117   9.244  19.079  0.00  0.00    +0.000 C 
ATOM      3  O   UNL     1       1.072   9.288  17.853  0.00  0.00    +0.000 OA
ATOM      4  N   UNL     1       0.562  10.255  19.843  0.00  0.00    +0.000 N 
ATOM      5  C   UNL     1      -0.145  11.346  19.136  0.00  0.00    +0.000 C 
ATOM      6  C   UNL     1      -1.383  11.833  19.925  0.00  0.00    +0.000 C 
ATOM      7  N   UNL     1      -0.931  12.160  21.277  0.00  0.00    +0.000 N 
ATOM      8  C   UNL     1      -1.508  13.189  21.987  0.00  0.00    +0.000 A 
ATOM      9  C   UNL     1      -0.734  13.844  22.950  0.00  0.00    +0.000 A 
ATOM     10  C   UNL     1      -1.262  14.906  23.676  0.00  0.00    +0.000 A 
ATOM     11  C   UNL     1      -2.562  15.296  23.427  0.00  0.00    +0.000 A 
ATOM     12  C   UNL     1      -3.268  14.620  22.446  0.00  0.00    +0.000 A 
ATOM     13  N   UNL     1      -2.762  13.592  21.717  0.00  0.00    +0.000 NA
ATOM     14  C   UNL     1      -0.345  11.036  22.012  0.00  0.00    +0.000 C 
ATOM     15  C   UNL     1       0.898  10.562  21.243  0.00  0.00    +0.000 C 
ATOM     16  H   UNL     1       1.306   8.096  20.746  0.00  0.00    +0.000 HD
ENDROOT
BRANCH   1  22
ATOM     17  C   UNL     1       3.850   1.383  18.426  0.00  0.00    +0.000 C 
ATOM     18  C   UNL     1       3.467   2.798  18.581  0.00  0.00    +0.000 A 
ATOM     19  N   UNL     1       2.552   3.315  19.373  0.00  0.00    +0.000 NA
ATOM     20  C   UNL     1       2.640   4.662  19.129  0.00  0.00    +0.000 A 
ATOM     21  C   UNL     1       1.939   5.741  19.678  0.00  0.00    +0.000 A 
ATOM     22  C   UNL     1       2.258   7.039  19.254  0.00  0.00    +0.000 A 
ATOM     23  C   UNL     1       3.237   7.235  18.258  0.00  0.00    +0.000 A 
ATOM     24  C   UNL     1       3.946   6.163  17.693  0.00  0.00    +0.000 A 
ATOM     25  C   UNL     1       3.610   4.906  18.173  0.00  0.00    +0.000 A 
ATOM     26  O   UNL     1       4.149   3.705  17.811  0.00  0.00    +0.000 OA
ENDBRANCH   1  22
TORSDOF 1
ENDMDL
MODEL 9
REMARK VINA RESULT:      -7.1      2.694     10.285
REMARK  Name = 
REMARK  2 active torsions:
REMARK  status: ('A' for Active; 'I' for Inactive)
REMARK    1  A    between atoms: C_1  and  C_2
REMARK    2  A    between atoms: C_6  and  N_7
REMARK                            x       y       z     vdW  Elec       q    Type
REMARK                         _______ _______ _______ _____ _____    ______ ____
ROOT
ATOM      1  N   UNL     1      -0.861  11.384  21.565  0.00  0.00    +0.000 N 
ATOM      2  C   UNL     1      -0.702  11.270  20.201  0.00  0.00    +0.000 C 
ATOM      3  O   UNL     1      -1.128  12.084  19.387  0.00  0.00    +0.000 OA
ATOM      4  N   UNL     1       0.057  10.189  19.789  0.00  0.00    +0.000 N 
ATOM      5  C   UNL     1       0.394  10.090  18.351  0.00  0.00    +0.000 C 
ATOM      6  C   UNL     1       1.816   9.523  18.134  0.00  0.00    +0.000 C 
ATOM      7  N   UNL     1       1.897   8.265  18.878  0.00  0.00    +0.000 N 
ATOM      8  C   UNL     1       2.655   7.215  18.412  0.00  0.00    +0.000 A 
ATOM      9  C   UNL     1       2.277   5.917  18.769  0.00  0.00    +0.000 A 
ATOM     10  C   UNL     1       2.993   4.821  18.304  0.00  0.00    +0.000 A 
ATOM     11  C   UNL     1       4.084   5.040  17.487  0.00  0.00    +0.000 A 
ATOM     12  C   UNL     1       4.393   6.349  17.154  0.00  0.00    +0.000 A 
ATOM     13  N   UNL     1       3.694   7.429  17.586  0.00  0.00    +0.000 NA
ATOM     14  C   UNL     1       1.684   8.398  20.321  0.00  0.00    +0.000 C 
ATOM     15  C   UNL     1       0.264   8.942  20.544  0.00  0.00    +0.000 C 
ATOM     16  H   UNL     1      -0.195  10.882  22.130  0.00  0.00    +0.000 HD
ENDROOT
BRANCH   1  22
ATOM     17  C   UNL     1      -6.114  15.822  23.973  0.00  0.00    +0.000 C 
ATOM     18  C   UNL     1      -4.966  14.982  23.586  0.00  0.00    +0.000 A 
ATOM     19  N   UNL     1      -4.963  13.891  22.851  0.00  0.00    +0.000 NA
ATOM     20  C   UNL     1      -3.637  13.546  22.793  0.00  0.00    +0.000 A 
ATOM     21  C   UNL     1      -2.991  12.489  22.144  0.00  0.00    +0.000 A 
ATOM     22  C   UNL     1      -1.595  12.392  22.235  0.00  0.00    +0.000 A 
ATOM     23  C   UNL     1      -0.872  13.323  23.009  0.00  0.00    +0.000 A 
ATOM     24  C   UNL     1      -1.505  14.387  23.671  0.00  0.00    +0.000 A 
ATOM     25  C   UNL     1      -2.882  14.450  23.520  0.00  0.00    +0.000 A 
ATOM     26  O   UNL     1      -3.735  15.382  24.039  0.00  0.00    +0.000 OA
ENDBRANCH   1  22
TORSDOF 1
ENDMDL
