MODEL 1
REMARK VINA RESULT:      -9.2      0.000      0.000
REMARK  Name = 
REMARK  2 active torsions:
REMARK  status: ('A' for Active; 'I' for Inactive)
REMARK    1  A    between atoms: C_4  and  C_5
REMARK    2  A    between atoms: C_16  and  C_17
REMARK                            x       y       z     vdW  Elec       q    Type
REMARK                         _______ _______ _______ _____ _____    ______ ____
ROOT
ATOM      1  O   UNL     1       1.242   3.481  21.199  0.00  0.00    +0.000 OA
ATOM      2  C   UNL     1       1.839   4.220  20.429  0.00  0.00    +0.000 A 
ATOM      3  C   UNL     1       1.628   5.694  20.394  0.00  0.00    +0.000 A 
ATOM      4  C   UNL     1       2.311   6.416  19.500  0.00  0.00    +0.000 A 
ATOM      5  N   UNL     1       3.225   5.856  18.607  0.00  0.00    +0.000 N 
ATOM      6  C   UNL     1       3.483   4.523  18.615  0.00  0.00    +0.000 A 
ATOM      7  C   UNL     1       4.325   3.671  17.897  0.00  0.00    +0.000 A 
ATOM      8  C   UNL     1       4.024   2.390  18.438  0.00  0.00    +0.000 A 
ATOM      9  N   UNL     1       3.099   2.417  19.397  0.00  0.00    +0.000 NA
ATOM     10  N   UNL     1       2.780   3.738  19.505  0.00  0.00    +0.000 N 
ATOM     11  H   UNL     1       3.662   6.499  17.946  0.00  0.00    +0.000 HD
ENDROOT
BRANCH   4  12
ATOM     12  C   UNL     1       2.187   7.888  19.442  0.00  0.00    +0.000 A 
ATOM     13  C   UNL     1       2.540   8.523  18.228  0.00  0.00    +0.000 A 
ATOM     14  C   UNL     1       1.826   9.639  17.814  0.00  0.00    +0.000 A 
ATOM     15  C   UNL     1       0.828  10.059  18.665  0.00  0.00    +0.000 A 
ATOM     16  C   UNL     1       0.765   9.700  20.005  0.00  0.00    +0.000 A 
ATOM     17  C   UNL     1       1.391   8.537  20.396  0.00  0.00    +0.000 A 
ATOM     18  C   UNL     1      -0.443  10.367  20.567  0.00  0.00    +0.000 C 
ATOM     19  C   UNL     1      -1.279  10.041  19.346  0.00  0.00    +0.000 C 
ATOM     20  O   UNL     1      -0.433  10.457  18.217  0.00  0.00    +0.000 OA
ENDBRANCH   4  12
BRANCH   7  21
ATOM     21  C   UNL     1       5.269   4.030  16.864  0.00  0.00    +0.000 A 
ATOM     22  C   UNL     1       4.931   4.037  15.508  0.00  0.00    +0.000 A 
ATOM     23  C   UNL     1       5.883   4.411  14.554  0.00  0.00    +0.000 A 
ATOM     24  C   UNL     1       7.140   4.784  14.989  0.00  0.00    +0.000 A 
ATOM     25  N   UNL     1       7.506   4.804  16.286  0.00  0.00    +0.000 NA
ATOM     26  C   UNL     1       6.566   4.432  17.190  0.00  0.00    +0.000 A 
ENDBRANCH   7  21
TORSDOF 2
ENDMDL
MODEL 2
REMARK VINA RESULT:      -8.8      3.633      5.775
REMARK  Name = 
REMARK  2 active torsions:
REMARK  status: ('A' for Active; 'I' for Inactive)
REMARK    1  A    between atoms: C_4  and  C_5
REMARK    2  A    between atoms: C_16  and  C_17
REMARK                            x       y       z     vdW  Elec       q    Type
REMARK                         _______ _______ _______ _____ _____    ______ ____
ROOT
ATOM      1  O   UNL     1       7.331   6.477  17.548  0.00  0.00    +0.000 OA
ATOM      2  C   UNL     1       6.505   5.761  16.996  0.00  0.00    +0.000 A 
ATOM      3  C   UNL     1       5.239   5.332  17.652  0.00  0.00    +0.000 A 
ATOM      4  C   UNL     1       4.409   4.530  16.976  0.00  0.00    +0.000 A 
ATOM      5  N   UNL     1       4.668   4.088  15.679  0.00  0.00    +0.000 N 
ATOM      6  C   UNL     1       5.790   4.472  15.019  0.00  0.00    +0.000 A 
ATOM      7  C   UNL     1       6.325   4.238  13.750  0.00  0.00    +0.000 A 
ATOM      8  C   UNL     1       7.557   4.947  13.783  0.00  0.00    +0.000 A 
ATOM      9  N   UNL     1       7.785   5.570  14.939  0.00  0.00    +0.000 NA
ATOM     10  N   UNL     1       6.685   5.279  15.689  0.00  0.00    +0.000 N 
ATOM     11  H   UNL     1       3.981   3.450  15.274  0.00  0.00    +0.000 HD
ENDROOT
BRANCH   4  12
ATOM     12  C   UNL     1       3.114   4.105  17.547  0.00  0.00    +0.000 A 
ATOM     13  C   UNL     1       2.764   2.741  17.420  0.00  0.00    +0.000 A 
ATOM     14  C   UNL     1       2.064   2.122  18.447  0.00  0.00    +0.000 A 
ATOM     15  C   UNL     1       1.736   2.927  19.515  0.00  0.00    +0.000 A 
ATOM     16  C   UNL     1       1.714   4.314  19.449  0.00  0.00    +0.000 A 
ATOM     17  C   UNL     1       2.488   4.931  18.492  0.00  0.00    +0.000 A 
ATOM     18  C   UNL     1       1.301   4.797  20.796  0.00  0.00    +0.000 C 
ATOM     19  C   UNL     1       2.180   3.787  21.506  0.00  0.00    +0.000 C 
ATOM     20  O   UNL     1       1.863   2.514  20.843  0.00  0.00    +0.000 OA
ENDBRANCH   4  12
BRANCH   7  21
ATOM     21  C   UNL     1       5.743   3.463  12.678  0.00  0.00    +0.000 A 
ATOM     22  C   UNL     1       4.532   3.811  12.072  0.00  0.00    +0.000 A 
ATOM     23  C   UNL     1       4.027   3.032  11.027  0.00  0.00    +0.000 A 
ATOM     24  C   UNL     1       4.757   1.938  10.608  0.00  0.00    +0.000 A 
ATOM     25  N   UNL     1       5.935   1.572  11.154  0.00  0.00    +0.000 NA
ATOM     26  C   UNL     1       6.400   2.342  12.169  0.00  0.00    +0.000 A 
ENDBRANCH   7  21
TORSDOF 2
ENDMDL
MODEL 3
REMARK VINA RESULT:      -8.6      3.772      5.964
REMARK  Name = 
REMARK  2 active torsions:
REMARK  status: ('A' for Active; 'I' for Inactive)
REMARK    1  A    between atoms: C_4  and  C_5
REMARK    2  A    between atoms: C_16  and  C_17
REMARK                            x       y       z     vdW  Elec       q    Type
REMARK                         _______ _______ _______ _____ _____    ______ ____
ROOT
ATOM      1  O   UNL     1       7.325   6.362  17.554  0.00  0.00    +0.000 OA
ATOM      2  C   UNL     1       6.548   5.593  17.004  0.00  0.00    +0.000 A 
ATOM      3  C   UNL     1       5.355   5.022  17.687  0.00  0.00    +0.000 A 
ATOM      4  C   UNL     1       4.576   4.171  17.010  0.00  0.00    +0.000 A 
ATOM      5  N   UNL     1       4.821   3.805  15.687  0.00  0.00    +0.000 N 
ATOM      6  C   UNL     1       5.875   4.319  15.002  0.00  0.00    +0.000 A 
ATOM      7  C   UNL     1       6.376   4.186  13.706  0.00  0.00    +0.000 A 
ATOM      8  C   UNL     1       7.538   5.006  13.723  0.00  0.00    +0.000 A 
ATOM      9  N   UNL     1       7.754   5.603  14.894  0.00  0.00    +0.000 NA
ATOM     10  N   UNL     1       6.718   5.181  15.672  0.00  0.00    +0.000 N 
ATOM     11  H   UNL     1       4.180   3.121  15.281  0.00  0.00    +0.000 HD
ENDROOT
BRANCH   4  12
ATOM     12  C   UNL     1       3.350   3.604  17.610  0.00  0.00    +0.000 A 
ATOM     13  C   UNL     1       3.303   2.202  17.789  0.00  0.00    +0.000 A 
ATOM     14  C   UNL     1       2.656   1.682  18.902  0.00  0.00    +0.000 A 
ATOM     15  C   UNL     1       2.074   2.606  19.740  0.00  0.00    +0.000 A 
ATOM     16  C   UNL     1       1.771   3.905  19.354  0.00  0.00    +0.000 A 
ATOM     17  C   UNL     1       2.485   4.455  18.312  0.00  0.00    +0.000 A 
ATOM     18  C   UNL     1       1.147   4.566  20.534  0.00  0.00    +0.000 C 
ATOM     19  C   UNL     1       2.148   3.955  21.494  0.00  0.00    +0.000 C 
ATOM     20  O   UNL     1       2.163   2.530  21.131  0.00  0.00    +0.000 OA
ENDBRANCH   4  12
BRANCH   7  21
ATOM     21  C   UNL     1       5.825   3.401  12.624  0.00  0.00    +0.000 A 
ATOM     22  C   UNL     1       6.488   2.294  12.086  0.00  0.00    +0.000 A 
ATOM     23  C   UNL     1       5.896   1.563  11.052  0.00  0.00    +0.000 A 
ATOM     24  C   UNL     1       4.651   1.951  10.598  0.00  0.00    +0.000 A 
ATOM     25  N   UNL     1       3.970   3.004  11.094  0.00  0.00    +0.000 NA
ATOM     26  C   UNL     1       4.568   3.699  12.094  0.00  0.00    +0.000 A 
ENDBRANCH   7  21
TORSDOF 2
ENDMDL
MODEL 4
REMARK VINA RESULT:      -8.4      0.704      1.026
REMARK  Name = 
REMARK  2 active torsions:
REMARK  status: ('A' for Active; 'I' for Inactive)
REMARK    1  A    between atoms: C_4  and  C_5
REMARK    2  A    between atoms: C_16  and  C_17
REMARK                            x       y       z     vdW  Elec       q    Type
REMARK                         _______ _______ _______ _____ _____    ______ ____
ROOT
ATOM      1  O   UNL     1       0.968   3.131  20.696  0.00  0.00    +0.000 OA
ATOM      2  C   UNL     1       1.628   3.921  20.034  0.00  0.00    +0.000 A 
ATOM      3  C   UNL     1       1.485   5.398  20.157  0.00  0.00    +0.000 A 
ATOM      4  C   UNL     1       2.236   6.180  19.374  0.00  0.00    +0.000 A 
ATOM      5  N   UNL     1       3.159   5.677  18.457  0.00  0.00    +0.000 N 
ATOM      6  C   UNL     1       3.356   4.340  18.325  0.00  0.00    +0.000 A 
ATOM      7  C   UNL     1       4.187   3.533  17.547  0.00  0.00    +0.000 A 
ATOM      8  C   UNL     1       3.808   2.216  17.929  0.00  0.00    +0.000 A 
ATOM      9  N   UNL     1       2.847   2.182  18.852  0.00  0.00    +0.000 NA
ATOM     10  N   UNL     1       2.583   3.497  19.096  0.00  0.00    +0.000 N 
ATOM     11  H   UNL     1       3.651   6.367  17.888  0.00  0.00    +0.000 HD
ENDROOT
BRANCH   4  12
ATOM     12  C   UNL     1       2.180   7.654  19.477  0.00  0.00    +0.000 A 
ATOM     13  C   UNL     1       2.543   8.399  18.331  0.00  0.00    +0.000 A 
ATOM     14  C   UNL     1       1.877   9.585  18.054  0.00  0.00    +0.000 A 
ATOM     15  C   UNL     1       0.913   9.954  18.966  0.00  0.00    +0.000 A 
ATOM     16  C   UNL     1       0.853   9.456  20.260  0.00  0.00    +0.000 A 
ATOM     17  C   UNL     1       1.430   8.231  20.512  0.00  0.00    +0.000 A 
ATOM     18  C   UNL     1      -0.313  10.112  20.915  0.00  0.00    +0.000 C 
ATOM     19  C   UNL     1      -1.182   9.958  19.683  0.00  0.00    +0.000 C 
ATOM     20  O   UNL     1      -0.335  10.456  18.589  0.00  0.00    +0.000 OA
ENDBRANCH   4  12
BRANCH   7  21
ATOM     21  C   UNL     1       5.188   3.957  16.594  0.00  0.00    +0.000 A 
ATOM     22  C   UNL     1       6.353   4.627  16.977  0.00  0.00    +0.000 A 
ATOM     23  C   UNL     1       7.293   4.997  16.011  0.00  0.00    +0.000 A 
ATOM     24  C   UNL     1       7.047   4.671  14.692  0.00  0.00    +0.000 A 
ATOM     25  N   UNL     1       5.944   4.016  14.278  0.00  0.00    +0.000 NA
ATOM     26  C   UNL     1       5.046   3.672  15.234  0.00  0.00    +0.000 A 
ENDBRANCH   7  21
TORSDOF 2
ENDMDL
MODEL 5
REMARK VINA RESULT:      -8.1      1.074      1.236
REMARK  Name = 
REMARK  2 active torsions:
REMARK  status: ('A' for Active; 'I' for Inactive)
REMARK    1  A    between atoms: C_4  and  C_5
REMARK    2  A    between atoms: C_16  and  C_17
REMARK                            x       y       z     vdW  Elec       q    Type
REMARK                         _______ _______ _______ _____ _____    ______ ____
ROOT
ATOM      1  O   UNL     1       0.995   2.792  20.710  0.00  0.00    +0.000 OA
ATOM      2  C   UNL     1       1.623   3.653  20.110  0.00  0.00    +0.000 A 
ATOM      3  C   UNL     1       1.489   5.106  20.405  0.00  0.00    +0.000 A 
ATOM      4  C   UNL     1       2.201   5.974  19.677  0.00  0.00    +0.000 A 
ATOM      5  N   UNL     1       3.075   5.581  18.665  0.00  0.00    +0.000 N 
ATOM      6  C   UNL     1       3.263   4.268  18.373  0.00  0.00    +0.000 A 
ATOM      7  C   UNL     1       4.051   3.555  17.467  0.00  0.00    +0.000 A 
ATOM      8  C   UNL     1       3.689   2.203  17.718  0.00  0.00    +0.000 A 
ATOM      9  N   UNL     1       2.776   2.063  18.679  0.00  0.00    +0.000 NA
ATOM     10  N   UNL     1       2.528   3.341  19.082  0.00  0.00    +0.000 N 
ATOM     11  H   UNL     1       3.540   6.332  18.152  0.00  0.00    +0.000 HD
ENDROOT
BRANCH   4  12
ATOM     12  C   UNL     1       2.154   7.427  19.948  0.00  0.00    +0.000 A 
ATOM     13  C   UNL     1       1.984   8.289  18.840  0.00  0.00    +0.000 A 
ATOM     14  C   UNL     1       1.231   9.446  18.990  0.00  0.00    +0.000 A 
ATOM     15  C   UNL     1       0.729   9.671  20.252  0.00  0.00    +0.000 A 
ATOM     16  C   UNL     1       1.231   9.063  21.395  0.00  0.00    +0.000 A 
ATOM     17  C   UNL     1       1.892   7.863  21.255  0.00  0.00    +0.000 A 
ATOM     18  C   UNL     1       0.429   9.580  22.539  0.00  0.00    +0.000 C 
ATOM     19  C   UNL     1      -0.872   9.472  21.769  0.00  0.00    +0.000 C 
ATOM     20  O   UNL     1      -0.575  10.116  20.481  0.00  0.00    +0.000 OA
ENDBRANCH   4  12
BRANCH   7  21
ATOM     21  C   UNL     1       5.003   4.088  16.519  0.00  0.00    +0.000 A 
ATOM     22  C   UNL     1       5.484   3.342  15.439  0.00  0.00    +0.000 A 
ATOM     23  C   UNL     1       6.391   3.917  14.544  0.00  0.00    +0.000 A 
ATOM     24  C   UNL     1       6.777   5.227  14.747  0.00  0.00    +0.000 A 
ATOM     25  N   UNL     1       6.331   5.987  15.767  0.00  0.00    +0.000 NA
ATOM     26  C   UNL     1       5.456   5.404  16.624  0.00  0.00    +0.000 A 
ENDBRANCH   7  21
TORSDOF 2
ENDMDL
MODEL 6
REMARK VINA RESULT:      -7.9      3.221      7.994
REMARK  Name = 
REMARK  2 active torsions:
REMARK  status: ('A' for Active; 'I' for Inactive)
REMARK    1  A    between atoms: C_4  and  C_5
REMARK    2  A    between atoms: C_16  and  C_17
REMARK                            x       y       z     vdW  Elec       q    Type
REMARK                         _______ _______ _______ _____ _____    ______ ____
ROOT
ATOM      1  O   UNL     1       3.540   8.197  16.486  0.00  0.00    +0.000 OA
ATOM      2  C   UNL     1       2.979   7.967  17.550  0.00  0.00    +0.000 A 
ATOM      3  C   UNL     1       3.038   6.641  18.225  0.00  0.00    +0.000 A 
ATOM      4  C   UNL     1       2.373   6.480  19.374  0.00  0.00    +0.000 A 
ATOM      5  N   UNL     1       1.639   7.500  19.978  0.00  0.00    +0.000 N 
ATOM      6  C   UNL     1       1.577   8.739  19.425  0.00  0.00    +0.000 A 
ATOM      7  C   UNL     1       0.971   9.949  19.769  0.00  0.00    +0.000 A 
ATOM      8  C   UNL     1       1.318  10.802  18.685  0.00  0.00    +0.000 A 
ATOM      9  N   UNL     1       2.066  10.209  17.755  0.00  0.00    +0.000 NA
ATOM     10  N   UNL     1       2.228   8.941  18.226  0.00  0.00    +0.000 N 
ATOM     11  H   UNL     1       1.144   7.253  20.836  0.00  0.00    +0.000 HD
ENDROOT
BRANCH   4  12
ATOM     12  C   UNL     1       2.426   5.206  20.123  0.00  0.00    +0.000 A 
ATOM     13  C   UNL     1       1.197   4.650  20.547  0.00  0.00    +0.000 A 
ATOM     14  C   UNL     1       1.045   3.269  20.556  0.00  0.00    +0.000 A 
ATOM     15  C   UNL     1       2.150   2.545  20.169  0.00  0.00    +0.000 A 
ATOM     16  C   UNL     1       3.439   3.062  20.158  0.00  0.00    +0.000 A 
ATOM     17  C   UNL     1       3.590   4.426  20.048  0.00  0.00    +0.000 A 
ATOM     18  C   UNL     1       4.333   1.965  19.695  0.00  0.00    +0.000 C 
ATOM     19  C   UNL     1       3.360   1.530  18.617  0.00  0.00    +0.000 C 
ATOM     20  O   UNL     1       2.072   1.439  19.320  0.00  0.00    +0.000 OA
ENDBRANCH   4  12
BRANCH   7  21
ATOM     21  C   UNL     1       0.191  10.240  20.950  0.00  0.00    +0.000 A 
ATOM     22  C   UNL     1       0.294   9.486  22.123  0.00  0.00    +0.000 A 
ATOM     23  C   UNL     1      -0.475   9.827  23.240  0.00  0.00    +0.000 A 
ATOM     24  C   UNL     1      -1.311  10.923  23.155  0.00  0.00    +0.000 A 
ATOM     25  N   UNL     1      -1.433  11.685  22.051  0.00  0.00    +0.000 NA
ATOM     26  C   UNL     1      -0.680  11.331  20.980  0.00  0.00    +0.000 A 
ENDBRANCH   7  21
TORSDOF 2
ENDMDL
MODEL 7
REMARK VINA RESULT:      -7.7      3.855      5.935
REMARK  Name = 
REMARK  2 active torsions:
REMARK  status: ('A' for Active; 'I' for Inactive)
REMARK    1  A    between atoms: C_4  and  C_5
REMARK    2  A    between atoms: C_16  and  C_17
REMARK                            x       y       z     vdW  Elec       q    Type
REMARK                         _______ _______ _______ _____ _____    ______ ____
ROOT
ATOM      1  O   UNL     1       7.648   6.236  18.050  0.00  0.00    +0.000 OA
ATOM      2  C   UNL     1       6.909   5.415  17.523  0.00  0.00    +0.000 A 
ATOM      3  C   UNL     1       5.937   4.590  18.291  0.00  0.00    +0.000 A 
ATOM      4  C   UNL     1       5.188   3.702  17.628  0.00  0.00    +0.000 A 
ATOM      5  N   UNL     1       5.263   3.524  16.247  0.00  0.00    +0.000 N 
ATOM      6  C   UNL     1       6.107   4.271  15.490  0.00  0.00    +0.000 A 
ATOM      7  C   UNL     1       6.403   4.359  14.129  0.00  0.00    +0.000 A 
ATOM      8  C   UNL     1       7.423   5.350  14.084  0.00  0.00    +0.000 A 
ATOM      9  N   UNL     1       7.741   5.845  15.280  0.00  0.00    +0.000 NA
ATOM     10  N   UNL     1       6.916   5.181  16.138  0.00  0.00    +0.000 N 
ATOM     11  H   UNL     1       4.668   2.793  15.854  0.00  0.00    +0.000 HD
ENDROOT
BRANCH   4  12
ATOM     12  C   UNL     1       4.169   2.884  18.321  0.00  0.00    +0.000 A 
ATOM     13  C   UNL     1       4.549   2.264  19.534  0.00  0.00    +0.000 A 
ATOM     14  C   UNL     1       3.615   2.143  20.555  0.00  0.00    +0.000 A 
ATOM     15  C   UNL     1       2.357   2.624  20.271  0.00  0.00    +0.000 A 
ATOM     16  C   UNL     1       1.892   2.840  18.981  0.00  0.00    +0.000 A 
ATOM     17  C   UNL     1       2.819   3.060  17.986  0.00  0.00    +0.000 A 
ATOM     18  C   UNL     1       0.497   3.343  19.110  0.00  0.00    +0.000 C 
ATOM     19  C   UNL     1       0.855   4.251  20.269  0.00  0.00    +0.000 C 
ATOM     20  O   UNL     1       1.612   3.379  21.180  0.00  0.00    +0.000 OA
ENDBRANCH   4  12
BRANCH   7  21
ATOM     21  C   UNL     1       5.801   3.616  13.046  0.00  0.00    +0.000 A 
ATOM     22  C   UNL     1       4.548   3.942  12.517  0.00  0.00    +0.000 A 
ATOM     23  C   UNL     1       4.024   3.197  11.457  0.00  0.00    +0.000 A 
ATOM     24  C   UNL     1       4.777   2.158  10.946  0.00  0.00    +0.000 A 
ATOM     25  N   UNL     1       5.993   1.815  11.415  0.00  0.00    +0.000 NA
ATOM     26  C   UNL     1       6.477   2.551  12.447  0.00  0.00    +0.000 A 
ENDBRANCH   7  21
TORSDOF 2
ENDMDL
MODEL 8
REMARK VINA RESULT:      -7.5      4.851      9.937
REMARK  Name = 
REMARK  2 active torsions:
REMARK  status: ('A' for Active; 'I' for Inactive)
REMARK    1  A    between atoms: C_4  and  C_5
REMARK    2  A    between atoms: C_16  and  C_17
REMARK                            x       y       z     vdW  Elec       q    Type
REMARK                         _______ _______ _______ _____ _____    ______ ____
ROOT
ATOM      1  O   UNL     1      -3.178   9.895  15.245  0.00  0.00    +0.000 OA
ATOM      2  C   UNL     1      -2.816  10.223  16.367  0.00  0.00    +0.000 A 
ATOM      3  C   UNL     1      -1.487   9.855  16.929  0.00  0.00    +0.000 A 
ATOM      4  C   UNL     1      -1.191  10.241  18.175  0.00  0.00    +0.000 A 
ATOM      5  N   UNL     1      -2.064  10.986  18.968  0.00  0.00    +0.000 N 
ATOM      6  C   UNL     1      -3.275  11.378  18.497  0.00  0.00    +0.000 A 
ATOM      7  C   UNL     1      -4.342  12.124  19.003  0.00  0.00    +0.000 A 
ATOM      8  C   UNL     1      -5.291  12.089  17.944  0.00  0.00    +0.000 A 
ATOM      9  N   UNL     1      -4.878  11.404  16.877  0.00  0.00    +0.000 NA
ATOM     10  N   UNL     1      -3.630  10.980  17.225  0.00  0.00    +0.000 N 
ATOM     11  H   UNL     1      -1.746  11.194  19.916  0.00  0.00    +0.000 HD
ENDROOT
BRANCH   4  12
ATOM     12  C   UNL     1       0.127   9.952  18.778  0.00  0.00    +0.000 A 
ATOM     13  C   UNL     1       0.167   9.721  20.173  0.00  0.00    +0.000 A 
ATOM     14  C   UNL     1       1.062   8.789  20.681  0.00  0.00    +0.000 A 
ATOM     15  C   UNL     1       1.877   8.179  19.754  0.00  0.00    +0.000 A 
ATOM     16  C   UNL     1       2.117   8.695  18.488  0.00  0.00    +0.000 A 
ATOM     17  C   UNL     1       1.177   9.542  17.944  0.00  0.00    +0.000 A 
ATOM     18  C   UNL     1       3.052   7.752  17.814  0.00  0.00    +0.000 C 
ATOM     19  C   UNL     1       2.314   6.535  18.337  0.00  0.00    +0.000 C 
ATOM     20  O   UNL     1       2.152   6.810  19.772  0.00  0.00    +0.000 OA
ENDBRANCH   4  12
BRANCH   7  21
ATOM     21  C   UNL     1      -4.433  12.769  20.292  0.00  0.00    +0.000 A 
ATOM     22  C   UNL     1      -5.463  12.497  21.198  0.00  0.00    +0.000 A 
ATOM     23  C   UNL     1      -5.488  13.140  22.438  0.00  0.00    +0.000 A 
ATOM     24  C   UNL     1      -4.472  14.025  22.743  0.00  0.00    +0.000 A 
ATOM     25  N   UNL     1      -3.454  14.309  21.907  0.00  0.00    +0.000 NA
ATOM     26  C   UNL     1      -3.455  13.675  20.708  0.00  0.00    +0.000 A 
ENDBRANCH   7  21
TORSDOF 2
ENDMDL
MODEL 9
REMARK VINA RESULT:      -7.5      3.054      5.247
REMARK  Name = 
REMARK  2 active torsions:
REMARK  status: ('A' for Active; 'I' for Inactive)
REMARK    1  A    between atoms: C_4  and  C_5
REMARK    2  A    between atoms: C_16  and  C_17
REMARK                            x       y       z     vdW  Elec       q    Type
REMARK                         _______ _______ _______ _____ _____    ______ ____
ROOT
ATOM      1  O   UNL     1       2.876  10.161  17.222  0.00  0.00    +0.000 OA
ATOM      2  C   UNL     1       2.301   9.516  18.088  0.00  0.00    +0.000 A 
ATOM      3  C   UNL     1       1.297  10.113  19.010  0.00  0.00    +0.000 A 
ATOM      4  C   UNL     1       0.739   9.331  19.941  0.00  0.00    +0.000 A 
ATOM      5  N   UNL     1       1.043   7.977  20.079  0.00  0.00    +0.000 N 
ATOM      6  C   UNL     1       1.927   7.370  19.245  0.00  0.00    +0.000 A 
ATOM      7  C   UNL     1       2.423   6.073  19.100  0.00  0.00    +0.000 A 
ATOM      8  C   UNL     1       3.348   6.200  18.027  0.00  0.00    +0.000 A 
ATOM      9  N   UNL     1       3.432   7.436  17.536  0.00  0.00    +0.000 NA
ATOM     10  N   UNL     1       2.544   8.147  18.287  0.00  0.00    +0.000 N 
ATOM     11  H   UNL     1       0.582   7.487  20.847  0.00  0.00    +0.000 HD
ENDROOT
BRANCH   4  12
ATOM     12  C   UNL     1      -0.300   9.846  20.858  0.00  0.00    +0.000 A 
ATOM     13  C   UNL     1      -0.259   9.403  22.201  0.00  0.00    +0.000 A 
ATOM     14  C   UNL     1      -0.620  10.280  23.215  0.00  0.00    +0.000 A 
ATOM     15  C   UNL     1      -1.028  11.530  22.806  0.00  0.00    +0.000 A 
ATOM     16  C   UNL     1      -1.452  11.812  21.515  0.00  0.00    +0.000 A 
ATOM     17  C   UNL     1      -1.012  10.998  20.495  0.00  0.00    +0.000 A 
ATOM     18  C   UNL     1      -1.814  13.256  21.492  0.00  0.00    +0.000 C 
ATOM     19  C   UNL     1      -0.602  13.646  22.314  0.00  0.00    +0.000 C 
ATOM     20  O   UNL     1      -0.623  12.705  23.443  0.00  0.00    +0.000 OA
ENDBRANCH   4  12
BRANCH   7  21
ATOM     21  C   UNL     1       2.062   4.901  19.864  0.00  0.00    +0.000 A 
ATOM     22  C   UNL     1       1.296   3.861  19.328  0.00  0.00    +0.000 A 
ATOM     23  C   UNL     1       0.994   2.743  20.111  0.00  0.00    +0.000 A 
ATOM     24  C   UNL     1       1.481   2.691  21.402  0.00  0.00    +0.000 A 
ATOM     25  N   UNL     1       2.233   3.663  21.956  0.00  0.00    +0.000 NA
ATOM     26  C   UNL     1       2.508   4.739  21.177  0.00  0.00    +0.000 A 
ENDBRANCH   7  21
TORSDOF 2
ENDMDL
