MODEL 1
REMARK VINA RESULT:      -9.2      0.000      0.000
REMARK  Name = 
REMARK  3 active torsions:
REMARK  status: ('A' for Active; 'I' for Inactive)
REMARK    1  A    between atoms: C_1  and  N_2
REMARK    2  A    between atoms: C_11  and  C_12
REMARK    3  A    between atoms: C_14  and  C_15
REMARK                            x       y       z     vdW  Elec       q    Type
REMARK                         _______ _______ _______ _____ _____    ______ ____
ROOT
ATOM      1  C   UNL     1       4.011   2.768  18.820  0.00  0.00    +0.000 C 
ATOM      2  N   UNL     1       4.118   4.035  18.128  0.00  0.00    +0.000 N 
ATOM      3  C   UNL     1       4.868   4.268  16.992  0.00  0.00    +0.000 A 
ATOM      4  C   UNL     1       5.712   3.430  16.243  0.00  0.00    +0.000 A 
ATOM      5  C   UNL     1       6.336   3.959  15.109  0.00  0.00    +0.000 A 
ATOM      6  C   UNL     1       6.126   5.280  14.727  0.00  0.00    +0.000 A 
ATOM      7  C   UNL     1       5.289   6.109  15.481  0.00  0.00    +0.000 A 
ATOM      8  C   UNL     1       4.654   5.602  16.633  0.00  0.00    +0.000 A 
ATOM      9  C   UNL     1       3.775   6.178  17.602  0.00  0.00    +0.000 A 
ATOM     10  C   UNL     1       3.222   7.467  17.772  0.00  0.00    +0.000 A 
ATOM     11  C   UNL     1       2.364   7.739  18.854  0.00  0.00    +0.000 A 
ATOM     12  C   UNL     1       2.060   6.707  19.752  0.00  0.00    +0.000 A 
ATOM     13  C   UNL     1       2.593   5.420  19.605  0.00  0.00    +0.000 A 
ATOM     14  C   UNL     1       3.452   5.181  18.523  0.00  0.00    +0.000 A 
ENDROOT
BRANCH  11  15
ATOM     15  C   UNL     1       1.755   9.109  19.054  0.00  0.00    +0.000 C 
ATOM     16  C   UNL     1       0.658   9.478  18.058  0.00  0.00    +0.000 C 
ATOM     17  C   UNL     1      -0.429   9.920  19.000  0.00  0.00    +0.000 C 
ATOM     18  N   UNL     1      -0.185   9.710  20.259  0.00  0.00    +0.000 NA
ATOM     19  N   UNL     1       1.090   9.269  20.348  0.00  0.00    +0.000 N 
ATOM     20  H   UNL     1       1.196   8.463  20.965  0.00  0.00    +0.000 HD
BRANCH  17  21
ATOM     21  C   UNL     1      -1.692  10.532  18.517  0.00  0.00    +0.000 A 
ATOM     22  C   UNL     1      -2.300  11.597  19.192  0.00  0.00    +0.000 A 
ATOM     23  C   UNL     1      -3.519  12.110  18.735  0.00  0.00    +0.000 A 
ATOM     24  C   UNL     1      -4.128  11.562  17.606  0.00  0.00    +0.000 A 
ATOM     25 CL   UNL     1      -5.635  12.187  17.060  0.00  0.00    +0.000 Cl
ATOM     26  C   UNL     1      -3.526  10.510  16.922  0.00  0.00    +0.000 A 
ATOM     27  C   UNL     1      -2.309   9.996  17.378  0.00  0.00    +0.000 A 
ENDBRANCH  17  21
ENDBRANCH  11  15
TORSDOF 2
ENDMDL
MODEL 2
REMARK VINA RESULT:      -8.9      1.239      3.072
REMARK  Name = 
REMARK  3 active torsions:
REMARK  status: ('A' for Active; 'I' for Inactive)
REMARK    1  A    between atoms: C_1  and  N_2
REMARK    2  A    between atoms: C_11  and  C_12
REMARK    3  A    between atoms: C_14  and  C_15
REMARK                            x       y       z     vdW  Elec       q    Type
REMARK                         _______ _______ _______ _____ _____    ______ ____
ROOT
ATOM      1  C   UNL     1       5.143   4.175  17.527  0.00  0.00    +0.000 C 
ATOM      2  N   UNL     1       4.132   4.693  18.425  0.00  0.00    +0.000 N 
ATOM      3  C   UNL     1       3.574   4.008  19.486  0.00  0.00    +0.000 A 
ATOM      4  C   UNL     1       3.772   2.700  19.960  0.00  0.00    +0.000 A 
ATOM      5  C   UNL     1       3.058   2.288  21.089  0.00  0.00    +0.000 A 
ATOM      6  C   UNL     1       2.177   3.151  21.733  0.00  0.00    +0.000 A 
ATOM      7  C   UNL     1       1.982   4.449  21.252  0.00  0.00    +0.000 A 
ATOM      8  C   UNL     1       2.684   4.887  20.110  0.00  0.00    +0.000 A 
ATOM      9  C   UNL     1       2.697   6.114  19.377  0.00  0.00    +0.000 A 
ATOM     10  C   UNL     1       2.010   7.340  19.518  0.00  0.00    +0.000 A 
ATOM     11  C   UNL     1       2.241   8.396  18.616  0.00  0.00    +0.000 A 
ATOM     12  C   UNL     1       3.171   8.212  17.584  0.00  0.00    +0.000 A 
ATOM     13  C   UNL     1       3.868   7.008  17.424  0.00  0.00    +0.000 A 
ATOM     14  C   UNL     1       3.610   5.970  18.332  0.00  0.00    +0.000 A 
ENDROOT
BRANCH  11  15
ATOM     15  C   UNL     1       1.522   9.720  18.749  0.00  0.00    +0.000 C 
ATOM     16  C   UNL     1       0.269   9.863  17.887  0.00  0.00    +0.000 C 
ATOM     17  C   UNL     1      -0.723  10.319  18.921  0.00  0.00    +0.000 C 
ATOM     18  N   UNL     1      -0.294  10.290  20.147  0.00  0.00    +0.000 NA
ATOM     19  N   UNL     1       1.021   9.979  20.100  0.00  0.00    +0.000 N 
ATOM     20  H   UNL     1       1.293   9.269  20.780  0.00  0.00    +0.000 HD
BRANCH  17  21
ATOM     21  C   UNL     1      -2.097  10.751  18.560  0.00  0.00    +0.000 A 
ATOM     22  C   UNL     1      -2.751  11.778  19.251  0.00  0.00    +0.000 A 
ATOM     23  C   UNL     1      -4.067  12.119  18.915  0.00  0.00    +0.000 A 
ATOM     24  C   UNL     1      -4.726  11.436  17.893  0.00  0.00    +0.000 A 
ATOM     25 CL   UNL     1      -6.349  11.848  17.498  0.00  0.00    +0.000 Cl
ATOM     26  C   UNL     1      -4.080  10.420  17.195  0.00  0.00    +0.000 A 
ATOM     27  C   UNL     1      -2.767  10.078  17.529  0.00  0.00    +0.000 A 
ENDBRANCH  17  21
ENDBRANCH  11  15
TORSDOF 2
ENDMDL
MODEL 3
REMARK VINA RESULT:      -8.8      1.057      2.671
REMARK  Name = 
REMARK  3 active torsions:
REMARK  status: ('A' for Active; 'I' for Inactive)
REMARK    1  A    between atoms: C_1  and  N_2
REMARK    2  A    between atoms: C_11  and  C_12
REMARK    3  A    between atoms: C_14  and  C_15
REMARK                            x       y       z     vdW  Elec       q    Type
REMARK                         _______ _______ _______ _____ _____    ______ ____
ROOT
ATOM      1  C   UNL     1       5.472   4.059  16.510  0.00  0.00    +0.000 C 
ATOM      2  N   UNL     1       4.276   4.393  17.255  0.00  0.00    +0.000 N 
ATOM      3  C   UNL     1       3.432   3.487  17.867  0.00  0.00    +0.000 A 
ATOM      4  C   UNL     1       3.453   2.082  17.922  0.00  0.00    +0.000 A 
ATOM      5  C   UNL     1       2.450   1.432  18.647  0.00  0.00    +0.000 A 
ATOM      6  C   UNL     1       1.459   2.154  19.303  0.00  0.00    +0.000 A 
ATOM      7  C   UNL     1       1.442   3.550  19.240  0.00  0.00    +0.000 A 
ATOM      8  C   UNL     1       2.438   4.231  18.508  0.00  0.00    +0.000 A 
ATOM      9  C   UNL     1       2.687   5.612  18.241  0.00  0.00    +0.000 A 
ATOM     10  C   UNL     1       2.028   6.808  18.603  0.00  0.00    +0.000 A 
ATOM     11  C   UNL     1       2.526   8.055  18.179  0.00  0.00    +0.000 A 
ATOM     12  C   UNL     1       3.692   8.087  17.401  0.00  0.00    +0.000 A 
ATOM     13  C   UNL     1       4.365   6.917  17.031  0.00  0.00    +0.000 A 
ATOM     14  C   UNL     1       3.840   5.689  17.460  0.00  0.00    +0.000 A 
ENDROOT
BRANCH  11  15
ATOM     15  C   UNL     1       1.842   9.350  18.558  0.00  0.00    +0.000 C 
ATOM     16  C   UNL     1       0.655   9.733  17.678  0.00  0.00    +0.000 C 
ATOM     17  C   UNL     1      -0.389   9.998  18.728  0.00  0.00    +0.000 C 
ATOM     18  N   UNL     1      -0.044   9.684  19.940  0.00  0.00    +0.000 NA
ATOM     19  N   UNL     1       1.261   9.331  19.901  0.00  0.00    +0.000 N 
ATOM     20  H   UNL     1       1.465   8.479  20.424  0.00  0.00    +0.000 HD
BRANCH  17  21
ATOM     21  C   UNL     1      -1.722  10.560  18.392  0.00  0.00    +0.000 A 
ATOM     22  C   UNL     1      -2.318  11.558  19.172  0.00  0.00    +0.000 A 
ATOM     23  C   UNL     1      -3.600  12.022  18.853  0.00  0.00    +0.000 A 
ATOM     24  C   UNL     1      -4.282  11.493  17.757  0.00  0.00    +0.000 A 
ATOM     25 CL   UNL     1      -5.863  12.057  17.382  0.00  0.00    +0.000 Cl
ATOM     26  C   UNL     1      -3.692  10.508  16.970  0.00  0.00    +0.000 A 
ATOM     27  C   UNL     1      -2.413  10.043  17.287  0.00  0.00    +0.000 A 
ENDBRANCH  17  21
ENDBRANCH  11  15
TORSDOF 2
ENDMDL
MODEL 4
REMARK VINA RESULT:      -8.8      1.000      1.492
REMARK  Name = 
REMARK  3 active torsions:
REMARK  status: ('A' for Active; 'I' for Inactive)
REMARK    1  A    between atoms: C_1  and  N_2
REMARK    2  A    between atoms: C_11  and  C_12
REMARK    3  A    between atoms: C_14  and  C_15
REMARK                            x       y       z     vdW  Elec       q    Type
REMARK                         _______ _______ _______ _____ _____    ______ ____
ROOT
ATOM      1  C   UNL     1       3.741   3.998  19.954  0.00  0.00    +0.000 C 
ATOM      2  N   UNL     1       3.792   5.068  18.980  0.00  0.00    +0.000 N 
ATOM      3  C   UNL     1       4.558   5.072  17.832  0.00  0.00    +0.000 A 
ATOM      4  C   UNL     1       5.471   4.136  17.315  0.00  0.00    +0.000 A 
ATOM      5  C   UNL     1       6.093   4.420  16.096  0.00  0.00    +0.000 A 
ATOM      6  C   UNL     1       5.815   5.595  15.406  0.00  0.00    +0.000 A 
ATOM      7  C   UNL     1       4.909   6.523  15.929  0.00  0.00    +0.000 A 
ATOM      8  C   UNL     1       4.274   6.265  17.161  0.00  0.00    +0.000 A 
ATOM      9  C   UNL     1       3.336   6.997  17.953  0.00  0.00    +0.000 A 
ATOM     10  C   UNL     1       2.702   8.251  17.802  0.00  0.00    +0.000 A 
ATOM     11  C   UNL     1       1.800   8.717  18.776  0.00  0.00    +0.000 A 
ATOM     12  C   UNL     1       1.533   7.911  19.892  0.00  0.00    +0.000 A 
ATOM     13  C   UNL     1       2.146   6.663  20.064  0.00  0.00    +0.000 A 
ATOM     14  C   UNL     1       3.048   6.229  19.081  0.00  0.00    +0.000 A 
ENDROOT
BRANCH  11  15
ATOM     15  C   UNL     1       1.104  10.053  18.634  0.00  0.00    +0.000 C 
ATOM     16  C   UNL     1      -0.196  10.021  17.834  0.00  0.00    +0.000 C 
ATOM     17  C   UNL     1      -1.120  10.730  18.786  0.00  0.00    +0.000 C 
ATOM     18  N   UNL     1      -0.619  10.977  19.959  0.00  0.00    +0.000 NA
ATOM     19  N   UNL     1       0.688  10.632  19.913  0.00  0.00    +0.000 N 
ATOM     20  H   UNL     1       0.992  10.094  20.725  0.00  0.00    +0.000 HD
BRANCH  17  21
ATOM     21  C   UNL     1      -2.508  11.099  18.411  0.00  0.00    +0.000 A 
ATOM     22  C   UNL     1      -3.061  10.730  17.179  0.00  0.00    +0.000 A 
ATOM     23  C   UNL     1      -4.354  11.145  16.840  0.00  0.00    +0.000 A 
ATOM     24  C   UNL     1      -5.093  11.926  17.730  0.00  0.00    +0.000 A 
ATOM     25 CL   UNL     1      -6.675  12.446  17.301  0.00  0.00    +0.000 Cl
ATOM     26  C   UNL     1      -4.555  12.289  18.961  0.00  0.00    +0.000 A 
ATOM     27  C   UNL     1      -3.263  11.876  19.301  0.00  0.00    +0.000 A 
ENDBRANCH  17  21
ENDBRANCH  11  15
TORSDOF 2
ENDMDL
MODEL 5
REMARK VINA RESULT:      -8.7      2.997      4.413
REMARK  Name = 
REMARK  3 active torsions:
REMARK  status: ('A' for Active; 'I' for Inactive)
REMARK    1  A    between atoms: C_1  and  N_2
REMARK    2  A    between atoms: C_11  and  C_12
REMARK    3  A    between atoms: C_14  and  C_15
REMARK                            x       y       z     vdW  Elec       q    Type
REMARK                         _______ _______ _______ _____ _____    ______ ____
ROOT
ATOM      1  C   UNL     1       5.578   4.399  17.877  0.00  0.00    +0.000 C 
ATOM      2  N   UNL     1       4.378   4.819  18.571  0.00  0.00    +0.000 N 
ATOM      3  C   UNL     1       3.722   4.098  19.548  0.00  0.00    +0.000 A 
ATOM      4  C   UNL     1       3.975   2.829  20.100  0.00  0.00    +0.000 A 
ATOM      5  C   UNL     1       3.125   2.364  21.108  0.00  0.00    +0.000 A 
ATOM      6  C   UNL     1       2.060   3.135  21.560  0.00  0.00    +0.000 A 
ATOM      7  C   UNL     1       1.812   4.393  21.003  0.00  0.00    +0.000 A 
ATOM      8  C   UNL     1       2.649   4.883  19.978  0.00  0.00    +0.000 A 
ATOM      9  C   UNL     1       2.657   6.089  19.211  0.00  0.00    +0.000 A 
ATOM     10  C   UNL     1       1.828   7.232  19.186  0.00  0.00    +0.000 A 
ATOM     11  C   UNL     1       2.096   8.289  18.295  0.00  0.00    +0.000 A 
ATOM     12  C   UNL     1       3.205   8.190  17.443  0.00  0.00    +0.000 A 
ATOM     13  C   UNL     1       4.043   7.069  17.450  0.00  0.00    +0.000 A 
ATOM     14  C   UNL     1       3.746   6.027  18.341  0.00  0.00    +0.000 A 
ENDROOT
BRANCH  11  15
ATOM     15  C   UNL     1       1.228   9.527  18.253  0.00  0.00    +0.000 C 
ATOM     16  C   UNL     1       0.508   9.854  19.559  0.00  0.00    +0.000 C 
ATOM     17  C   UNL     1       0.886  11.301  19.724  0.00  0.00    +0.000 C 
ATOM     18  N   UNL     1       1.766  11.741  18.875  0.00  0.00    +0.000 NA
ATOM     19  N   UNL     1       1.975  10.754  17.974  0.00  0.00    +0.000 N 
ATOM     20  H   UNL     1       2.961  10.596  17.770  0.00  0.00    +0.000 HD
BRANCH  17  21
ATOM     21  C   UNL     1       0.305  12.151  20.793  0.00  0.00    +0.000 A 
ATOM     22  C   UNL     1       0.688  13.488  20.960  0.00  0.00    +0.000 A 
ATOM     23  C   UNL     1       0.158  14.240  22.015  0.00  0.00    +0.000 A 
ATOM     24  C   UNL     1      -0.752  13.659  22.899  0.00  0.00    +0.000 A 
ATOM     25 CL   UNL     1      -1.387  14.585  24.203  0.00  0.00    +0.000 Cl
ATOM     26  C   UNL     1      -1.145  12.334  22.735  0.00  0.00    +0.000 A 
ATOM     27  C   UNL     1      -0.617  11.581  21.682  0.00  0.00    +0.000 A 
ENDBRANCH  17  21
ENDBRANCH  11  15
TORSDOF 2
ENDMDL
MODEL 6
REMARK VINA RESULT:      -8.5      1.431      3.330
REMARK  Name = 
REMARK  3 active torsions:
REMARK  status: ('A' for Active; 'I' for Inactive)
REMARK    1  A    between atoms: C_1  and  N_2
REMARK    2  A    between atoms: C_11  and  C_12
REMARK    3  A    between atoms: C_14  and  C_15
REMARK                            x       y       z     vdW  Elec       q    Type
REMARK                         _______ _______ _______ _____ _____    ______ ____
ROOT
ATOM      1  C   UNL     1       5.545   3.821  18.281  0.00  0.00    +0.000 C 
ATOM      2  N   UNL     1       4.338   4.418  18.811  0.00  0.00    +0.000 N 
ATOM      3  C   UNL     1       3.502   3.844  19.749  0.00  0.00    +0.000 A 
ATOM      4  C   UNL     1       3.544   2.597  20.396  0.00  0.00    +0.000 A 
ATOM      5  C   UNL     1       2.545   2.299  21.328  0.00  0.00    +0.000 A 
ATOM      6  C   UNL     1       1.536   3.214  21.612  0.00  0.00    +0.000 A 
ATOM      7  C   UNL     1       1.499   4.450  20.960  0.00  0.00    +0.000 A 
ATOM      8  C   UNL     1       2.490   4.772  20.010  0.00  0.00    +0.000 A 
ATOM      9  C   UNL     1       2.721   5.913  19.181  0.00  0.00    +0.000 A 
ATOM     10  C   UNL     1       2.040   7.137  18.999  0.00  0.00    +0.000 A 
ATOM     11  C   UNL     1       2.523   8.093  18.085  0.00  0.00    +0.000 A 
ATOM     12  C   UNL     1       3.695   7.813  17.370  0.00  0.00    +0.000 A 
ATOM     13  C   UNL     1       4.390   6.608  17.534  0.00  0.00    +0.000 A 
ATOM     14  C   UNL     1       3.880   5.671  18.444  0.00  0.00    +0.000 A 
ENDROOT
BRANCH  11  15
ATOM     15  C   UNL     1       1.816   9.414  17.876  0.00  0.00    +0.000 C 
ATOM     16  C   UNL     1       0.354   9.302  17.447  0.00  0.00    +0.000 C 
ATOM     17  C   UNL     1      -0.296  10.214  18.450  0.00  0.00    +0.000 C 
ATOM     18  N   UNL     1       0.488  10.644  19.393  0.00  0.00    +0.000 NA
ATOM     19  N   UNL     1       1.739  10.233  19.086  0.00  0.00    +0.000 N 
ATOM     20  H   UNL     1       2.240   9.836  19.882  0.00  0.00    +0.000 HD
BRANCH  17  21
ATOM     21  C   UNL     1      -1.733  10.577  18.372  0.00  0.00    +0.000 A 
ATOM     22  C   UNL     1      -2.618   9.902  17.523  0.00  0.00    +0.000 A 
ATOM     23  C   UNL     1      -3.954  10.310  17.437  0.00  0.00    +0.000 A 
ATOM     24  C   UNL     1      -4.405  11.389  18.199  0.00  0.00    +0.000 A 
ATOM     25 CL   UNL     1      -6.044  11.896  18.076  0.00  0.00    +0.000 Cl
ATOM     26  C   UNL     1      -3.535  12.059  19.053  0.00  0.00    +0.000 A 
ATOM     27  C   UNL     1      -2.200  11.653  19.139  0.00  0.00    +0.000 A 
ENDBRANCH  17  21
ENDBRANCH  11  15
TORSDOF 2
ENDMDL
MODEL 7
REMARK VINA RESULT:      -8.5      2.959      4.100
REMARK  Name = 
REMARK  3 active torsions:
REMARK  status: ('A' for Active; 'I' for Inactive)
REMARK    1  A    between atoms: C_1  and  N_2
REMARK    2  A    between atoms: C_11  and  C_12
REMARK    3  A    between atoms: C_14  and  C_15
REMARK                            x       y       z     vdW  Elec       q    Type
REMARK                         _______ _______ _______ _____ _____    ______ ____
ROOT
ATOM      1  C   UNL     1       5.879   4.474  17.468  0.00  0.00    +0.000 C 
ATOM      2  N   UNL     1       4.482   4.691  17.782  0.00  0.00    +0.000 N 
ATOM      3  C   UNL     1       3.582   3.713  18.155  0.00  0.00    +0.000 A 
ATOM      4  C   UNL     1       3.722   2.322  18.300  0.00  0.00    +0.000 A 
ATOM      5  C   UNL     1       2.610   1.583  18.716  0.00  0.00    +0.000 A 
ATOM      6  C   UNL     1       1.397   2.206  18.985  0.00  0.00    +0.000 A 
ATOM      7  C   UNL     1       1.264   3.589  18.834  0.00  0.00    +0.000 A 
ATOM      8  C   UNL     1       2.368   4.357  18.408  0.00  0.00    +0.000 A 
ATOM      9  C   UNL     1       2.551   5.750  18.148  0.00  0.00    +0.000 A 
ATOM     10  C   UNL     1       1.698   6.874  18.213  0.00  0.00    +0.000 A 
ATOM     11  C   UNL     1       2.179   8.156  17.889  0.00  0.00    +0.000 A 
ATOM     12  C   UNL     1       3.522   8.299  17.511  0.00  0.00    +0.000 A 
ATOM     13  C   UNL     1       4.389   7.202  17.442  0.00  0.00    +0.000 A 
ATOM     14  C   UNL     1       3.879   5.935  17.761  0.00  0.00    +0.000 A 
ENDROOT
BRANCH  11  15
ATOM     15  C   UNL     1       1.287   9.376  17.956  0.00  0.00    +0.000 C 
ATOM     16  C   UNL     1       0.610   9.606  19.305  0.00  0.00    +0.000 C 
ATOM     17  C   UNL     1       0.967  11.046  19.548  0.00  0.00    +0.000 C 
ATOM     18  N   UNL     1       1.807  11.557  18.699  0.00  0.00    +0.000 NA
ATOM     19  N   UNL     1       2.001  10.634  17.730  0.00  0.00    +0.000 N 
ATOM     20  H   UNL     1       2.982  10.509  17.481  0.00  0.00    +0.000 HD
BRANCH  17  21
ATOM     21  C   UNL     1       0.410  11.816  20.690  0.00  0.00    +0.000 A 
ATOM     22  C   UNL     1      -0.454  11.229  21.622  0.00  0.00    +0.000 A 
ATOM     23  C   UNL     1      -1.001  12.004  22.651  0.00  0.00    +0.000 A 
ATOM     24  C   UNL     1      -0.684  13.359  22.751  0.00  0.00    +0.000 A 
ATOM     25 CL   UNL     1      -1.373  14.307  24.010  0.00  0.00    +0.000 Cl
ATOM     26  C   UNL     1       0.182  13.948  21.835  0.00  0.00    +0.000 A 
ATOM     27  C   UNL     1       0.729  13.177  20.805  0.00  0.00    +0.000 A 
ENDBRANCH  17  21
ENDBRANCH  11  15
TORSDOF 2
ENDMDL
MODEL 8
REMARK VINA RESULT:      -8.4      2.329      3.850
REMARK  Name = 
REMARK  3 active torsions:
REMARK  status: ('A' for Active; 'I' for Inactive)
REMARK    1  A    between atoms: C_1  and  N_2
REMARK    2  A    between atoms: C_11  and  C_12
REMARK    3  A    between atoms: C_14  and  C_15
REMARK                            x       y       z     vdW  Elec       q    Type
REMARK                         _______ _______ _______ _____ _____    ______ ____
ROOT
ATOM      1  C   UNL     1       5.650   4.341  18.142  0.00  0.00    +0.000 C 
ATOM      2  N   UNL     1       4.385   4.794  18.682  0.00  0.00    +0.000 N 
ATOM      3  C   UNL     1       3.616   4.112  19.604  0.00  0.00    +0.000 A 
ATOM      4  C   UNL     1       3.792   2.862  20.223  0.00  0.00    +0.000 A 
ATOM      5  C   UNL     1       2.830   2.438  21.145  0.00  0.00    +0.000 A 
ATOM      6  C   UNL     1       1.729   3.232  21.448  0.00  0.00    +0.000 A 
ATOM      7  C   UNL     1       1.559   4.472  20.824  0.00  0.00    +0.000 A 
ATOM      8  C   UNL     1       2.511   4.920  19.884  0.00  0.00    +0.000 A 
ATOM      9  C   UNL     1       2.618   6.098  19.082  0.00  0.00    +0.000 A 
ATOM     10  C   UNL     1       1.810   7.246  18.925  0.00  0.00    +0.000 A 
ATOM     11  C   UNL     1       2.187   8.269  18.035  0.00  0.00    +0.000 A 
ATOM     12  C   UNL     1       3.383   8.132  17.316  0.00  0.00    +0.000 A 
ATOM     13  C   UNL     1       4.203   7.006  17.455  0.00  0.00    +0.000 A 
ATOM     14  C   UNL     1       3.796   5.998  18.342  0.00  0.00    +0.000 A 
ENDROOT
BRANCH  11  15
ATOM     15  C   UNL     1       1.343   9.511  17.854  0.00  0.00    +0.000 C 
ATOM     16  C   UNL     1       0.158   9.629  18.810  0.00  0.00    +0.000 C 
ATOM     17  C   UNL     1       0.370  11.022  19.336  0.00  0.00    +0.000 C 
ATOM     18  N   UNL     1       1.487  11.582  18.980  0.00  0.00    +0.000 NA
ATOM     19  N   UNL     1       2.078  10.755  18.087  0.00  0.00    +0.000 N 
ATOM     20  H   UNL     1       3.073  10.616  18.263  0.00  0.00    +0.000 HD
BRANCH  17  21
ATOM     21  C   UNL     1      -0.621  11.694  20.214  0.00  0.00    +0.000 A 
ATOM     22  C   UNL     1      -0.421  11.812  21.595  0.00  0.00    +0.000 A 
ATOM     23  C   UNL     1      -1.406  12.403  22.395  0.00  0.00    +0.000 A 
ATOM     24  C   UNL     1      -2.585  12.876  21.819  0.00  0.00    +0.000 A 
ATOM     25 CL   UNL     1      -3.797  13.586  22.811  0.00  0.00    +0.000 Cl
ATOM     26  C   UNL     1      -2.787  12.771  20.446  0.00  0.00    +0.000 A 
ATOM     27  C   UNL     1      -1.806  12.181  19.644  0.00  0.00    +0.000 A 
ENDBRANCH  17  21
ENDBRANCH  11  15
TORSDOF 2
ENDMDL
MODEL 9
REMARK VINA RESULT:      -8.4      1.277      1.867
REMARK  Name = 
REMARK  3 active torsions:
REMARK  status: ('A' for Active; 'I' for Inactive)
REMARK    1  A    between atoms: C_1  and  N_2
REMARK    2  A    between atoms: C_11  and  C_12
REMARK    3  A    between atoms: C_14  and  C_15
REMARK                            x       y       z     vdW  Elec       q    Type
REMARK                         _______ _______ _______ _____ _____    ______ ____
ROOT
ATOM      1  C   UNL     1       3.093   4.450  20.741  0.00  0.00    +0.000 C 
ATOM      2  N   UNL     1       3.226   5.436  19.689  0.00  0.00    +0.000 N 
ATOM      3  C   UNL     1       4.055   5.330  18.590  0.00  0.00    +0.000 A 
ATOM      4  C   UNL     1       4.971   4.335  18.205  0.00  0.00    +0.000 A 
ATOM      5  C   UNL     1       5.668   4.504  17.005  0.00  0.00    +0.000 A 
ATOM      6  C   UNL     1       5.460   5.625  16.208  0.00  0.00    +0.000 A 
ATOM      7  C   UNL     1       4.551   6.612  16.601  0.00  0.00    +0.000 A 
ATOM      8  C   UNL     1       3.841   6.470  17.811  0.00  0.00    +0.000 A 
ATOM      9  C   UNL     1       2.879   7.284  18.485  0.00  0.00    +0.000 A 
ATOM     10  C   UNL     1       2.288   8.534  18.198  0.00  0.00    +0.000 A 
ATOM     11  C   UNL     1       1.345   9.098  19.077  0.00  0.00    +0.000 A 
ATOM     12  C   UNL     1       0.995   8.392  20.236  0.00  0.00    +0.000 A 
ATOM     13  C   UNL     1       1.564   7.149  20.544  0.00  0.00    +0.000 A 
ATOM     14  C   UNL     1       2.508   6.617  19.653  0.00  0.00    +0.000 A 
ENDROOT
BRANCH  11  15
ATOM     15  C   UNL     1       0.694  10.432  18.789  0.00  0.00    +0.000 C 
ATOM     16  C   UNL     1      -0.654  10.351  18.075  0.00  0.00    +0.000 C 
ATOM     17  C   UNL     1      -1.489  11.227  18.968  0.00  0.00    +0.000 C 
ATOM     18  N   UNL     1      -0.907  11.610  20.065  0.00  0.00    +0.000 NA
ATOM     19  N   UNL     1       0.380  11.201  19.994  0.00  0.00    +0.000 N 
ATOM     20  H   UNL     1       0.713  10.767  20.855  0.00  0.00    +0.000 HD
BRANCH  17  21
ATOM     21  C   UNL     1      -2.883  11.606  18.623  0.00  0.00    +0.000 A 
ATOM     22  C   UNL     1      -3.744  12.180  19.565  0.00  0.00    +0.000 A 
ATOM     23  C   UNL     1      -5.068  12.471  19.215  0.00  0.00    +0.000 A 
ATOM     24  C   UNL     1      -5.528  12.192  17.928  0.00  0.00    +0.000 A 
ATOM     25 CL   UNL     1      -7.161  12.537  17.510  0.00  0.00    +0.000 Cl
ATOM     26  C   UNL     1      -4.676  11.630  16.983  0.00  0.00    +0.000 A 
ATOM     27  C   UNL     1      -3.354  11.337  17.330  0.00  0.00    +0.000 A 
ENDBRANCH  17  21
ENDBRANCH  11  15
TORSDOF 2
ENDMDL
