MODEL 1
REMARK VINA RESULT:      -9.1      0.000      0.000
REMARK  Name = 
REMARK  8 active torsions:
REMARK  status: ('A' for Active; 'I' for Inactive)
REMARK    1  A    between atoms: C_1  and  O_2
REMARK    2  A    between atoms: O_2  and  C_3
REMARK    3  A    between atoms: C_6  and  C_7
REMARK    4  A    between atoms: C_13  and  C_14
REMARK    5  A    between atoms: C_18  and  C_19
REMARK    6  A    between atoms: C_19  and  C_20
REMARK    7  A    between atoms: C_19  and  C_21
REMARK    8  A    between atoms: C_26  and  O_27
REMARK                            x       y       z     vdW  Elec       q    Type
REMARK                         _______ _______ _______ _____ _____    ______ ____
ROOT
ATOM      1  C   UNL     1       4.487   3.876  18.563  0.00  0.00    +0.000 A 
ATOM      2  N   UNL     1       4.509   2.681  19.133  0.00  0.00    +0.000 NA
ATOM      3  N   UNL     1       3.608   2.666  20.173  0.00  0.00    +0.000 NA
ATOM      4  C   UNL     1       3.023   3.840  20.211  0.00  0.00    +0.000 A 
ATOM      5  C   UNL     1       2.046   4.402  21.079  0.00  0.00    +0.000 A 
ATOM      6  C   UNL     1       1.615   5.662  20.873  0.00  0.00    +0.000 A 
ATOM      7  C   UNL     1       2.108   6.469  19.760  0.00  0.00    +0.000 A 
ATOM      8  C   UNL     1       3.013   5.917  18.926  0.00  0.00    +0.000 A 
ATOM      9  N   UNL     1       3.497   4.632  19.175  0.00  0.00    +0.000 N 
ENDROOT
BRANCH   1  13
ATOM     10  C   UNL     1       6.997   5.168  15.316  0.00  0.00    +0.000 A 
ATOM     11  C   UNL     1       6.182   4.035  15.199  0.00  0.00    +0.000 A 
ATOM     12  C   UNL     1       5.374   3.610  16.260  0.00  0.00    +0.000 A 
ATOM     13  C   UNL     1       5.366   4.309  17.471  0.00  0.00    +0.000 A 
ATOM     14  C   UNL     1       6.234   5.402  17.608  0.00  0.00    +0.000 A 
ATOM     15  C   UNL     1       7.016   5.847  16.536  0.00  0.00    +0.000 A 
BRANCH  10  17
ATOM     16  C   UNL     1       7.308   4.796  12.976  0.00  0.00    +0.000 C 
ATOM     17  O   UNL     1       7.694   5.454  14.174  0.00  0.00    +0.000 OA
ENDBRANCH  10  17
BRANCH  15  18
ATOM     18  O   UNL     1       7.786   6.962  16.728  0.00  0.00    +0.000 OA
ATOM     19  H   UNL     1       8.138   7.271  15.878  0.00  0.00    +0.000 HD
ENDBRANCH  15  18
ENDBRANCH   1  13
BRANCH   7  20
ATOM     20  C   UNL     1       1.741   7.872  19.524  0.00  0.00    +0.000 A 
ATOM     21  C   UNL     1       2.008   8.490  18.300  0.00  0.00    +0.000 A 
ATOM     22  C   UNL     1       1.703   9.838  18.122  0.00  0.00    +0.000 A 
ATOM     23  C   UNL     1       1.127  10.575  19.161  0.00  0.00    +0.000 A 
ATOM     24  C   UNL     1       0.844   9.972  20.396  0.00  0.00    +0.000 A 
ATOM     25  C   UNL     1       1.158   8.615  20.563  0.00  0.00    +0.000 A 
BRANCH  24  26
ATOM     26  C   UNL     1       0.212  10.786  21.512  0.00  0.00    +0.000 C 
ATOM     27  C   UNL     1      -0.973  11.610  21.003  0.00  0.00    +0.000 C 
ATOM     28  C   UNL     1      -0.210   9.903  22.690  0.00  0.00    +0.000 C 
ENDBRANCH  24  26
ENDBRANCH   7  20
TORSDOF 5
ENDMDL
MODEL 2
REMARK VINA RESULT:      -8.5      0.566      1.334
REMARK  Name = 
REMARK  8 active torsions:
REMARK  status: ('A' for Active; 'I' for Inactive)
REMARK    1  A    between atoms: C_1  and  O_2
REMARK    2  A    between atoms: O_2  and  C_3
REMARK    3  A    between atoms: C_6  and  C_7
REMARK    4  A    between atoms: C_13  and  C_14
REMARK    5  A    between atoms: C_18  and  C_19
REMARK    6  A    between atoms: C_19  and  C_20
REMARK    7  A    between atoms: C_19  and  C_21
REMARK    8  A    between atoms: C_26  and  O_27
REMARK                            x       y       z     vdW  Elec       q    Type
REMARK                         _______ _______ _______ _____ _____    ______ ____
ROOT
ATOM      1  C   UNL     1       4.528   3.875  18.462  0.00  0.00    +0.000 A 
ATOM      2  N   UNL     1       4.567   2.688  19.047  0.00  0.00    +0.000 NA
ATOM      3  N   UNL     1       3.688   2.682  20.106  0.00  0.00    +0.000 NA
ATOM      4  C   UNL     1       3.099   3.855  20.142  0.00  0.00    +0.000 A 
ATOM      5  C   UNL     1       2.138   4.423  21.022  0.00  0.00    +0.000 A 
ATOM      6  C   UNL     1       1.697   5.680  20.809  0.00  0.00    +0.000 A 
ATOM      7  C   UNL     1       2.164   6.473  19.676  0.00  0.00    +0.000 A 
ATOM      8  C   UNL     1       3.053   5.914  18.830  0.00  0.00    +0.000 A 
ATOM      9  N   UNL     1       3.547   4.635  19.086  0.00  0.00    +0.000 N 
ENDROOT
BRANCH   1  13
ATOM     10  C   UNL     1       7.100   5.090  15.235  0.00  0.00    +0.000 A 
ATOM     11  C   UNL     1       7.100   5.769  16.460  0.00  0.00    +0.000 A 
ATOM     12  C   UNL     1       6.255   5.379  17.506  0.00  0.00    +0.000 A 
ATOM     13  C   UNL     1       5.382   4.298  17.347  0.00  0.00    +0.000 A 
ATOM     14  C   UNL     1       5.336   3.665  16.097  0.00  0.00    +0.000 A 
ATOM     15  C   UNL     1       6.204   4.033  15.063  0.00  0.00    +0.000 A 
BRANCH  10  17
ATOM     16  C   UNL     1       7.817   5.291  12.964  0.00  0.00    +0.000 C 
ATOM     17  O   UNL     1       8.009   5.586  14.340  0.00  0.00    +0.000 OA
ENDBRANCH  10  17
BRANCH  15  18
ATOM     18  O   UNL     1       6.145   3.322  13.896  0.00  0.00    +0.000 OA
ATOM     19  H   UNL     1       6.821   3.643  13.278  0.00  0.00    +0.000 HD
ENDBRANCH  15  18
ENDBRANCH   1  13
BRANCH   7  20
ATOM     20  C   UNL     1       1.785   7.872  19.429  0.00  0.00    +0.000 A 
ATOM     21  C   UNL     1       2.069   8.490  18.210  0.00  0.00    +0.000 A 
ATOM     22  C   UNL     1       1.752   9.835  18.023  0.00  0.00    +0.000 A 
ATOM     23  C   UNL     1       1.148  10.567  19.048  0.00  0.00    +0.000 A 
ATOM     24  C   UNL     1       0.849   9.964  20.279  0.00  0.00    +0.000 A 
ATOM     25  C   UNL     1       1.174   8.610  20.455  0.00  0.00    +0.000 A 
BRANCH  24  26
ATOM     26  C   UNL     1       0.185  10.773  21.381  0.00  0.00    +0.000 C 
ATOM     27  C   UNL     1      -0.988  11.596  20.843  0.00  0.00    +0.000 C 
ATOM     28  C   UNL     1      -0.264   9.886  22.545  0.00  0.00    +0.000 C 
ENDBRANCH  24  26
ENDBRANCH   7  20
TORSDOF 5
ENDMDL
MODEL 3
REMARK VINA RESULT:      -8.0      2.399      7.692
REMARK  Name = 
REMARK  8 active torsions:
REMARK  status: ('A' for Active; 'I' for Inactive)
REMARK    1  A    between atoms: C_1  and  O_2
REMARK    2  A    between atoms: O_2  and  C_3
REMARK    3  A    between atoms: C_6  and  C_7
REMARK    4  A    between atoms: C_13  and  C_14
REMARK    5  A    between atoms: C_18  and  C_19
REMARK    6  A    between atoms: C_19  and  C_20
REMARK    7  A    between atoms: C_19  and  C_21
REMARK    8  A    between atoms: C_26  and  O_27
REMARK                            x       y       z     vdW  Elec       q    Type
REMARK                         _______ _______ _______ _____ _____    ______ ____
ROOT
ATOM      1  C   UNL     1       1.837   5.046  19.815  0.00  0.00    +0.000 A 
ATOM      2  N   UNL     1       1.133   4.231  20.586  0.00  0.00    +0.000 NA
ATOM      3  N   UNL     1       1.496   2.932  20.311  0.00  0.00    +0.000 NA
ATOM      4  C   UNL     1       2.437   2.966  19.396  0.00  0.00    +0.000 A 
ATOM      5  C   UNL     1       3.155   1.945  18.715  0.00  0.00    +0.000 A 
ATOM      6  C   UNL     1       4.092   2.280  17.805  0.00  0.00    +0.000 A 
ATOM      7  C   UNL     1       4.411   3.675  17.512  0.00  0.00    +0.000 A 
ATOM      8  C   UNL     1       3.745   4.635  18.185  0.00  0.00    +0.000 A 
ATOM      9  N   UNL     1       2.738   4.284  19.085  0.00  0.00    +0.000 N 
ENDROOT
BRANCH   1  13
ATOM     10  C   UNL     1       1.432   9.328  19.698  0.00  0.00    +0.000 A 
ATOM     11  C   UNL     1       1.105   8.597  20.848  0.00  0.00    +0.000 A 
ATOM     12  C   UNL     1       1.228   7.203  20.881  0.00  0.00    +0.000 A 
ATOM     13  C   UNL     1       1.677   6.503  19.756  0.00  0.00    +0.000 A 
ATOM     14  C   UNL     1       1.936   7.231  18.586  0.00  0.00    +0.000 A 
ATOM     15  C   UNL     1       1.848   8.627  18.564  0.00  0.00    +0.000 A 
BRANCH  10  17
ATOM     16  C   UNL     1       0.709  11.150  21.065  0.00  0.00    +0.000 C 
ATOM     17  O   UNL     1       1.282  10.679  19.853  0.00  0.00    +0.000 OA
ENDBRANCH  10  17
BRANCH  15  18
ATOM     18  O   UNL     1       2.183   9.270  17.403  0.00  0.00    +0.000 OA
ATOM     19  H   UNL     1       3.040   8.945  17.082  0.00  0.00    +0.000 HD
ENDBRANCH  15  18
ENDBRANCH   1  13
BRANCH   7  20
ATOM     20  C   UNL     1       5.362   4.110  16.480  0.00  0.00    +0.000 A 
ATOM     21  C   UNL     1       6.302   5.108  16.741  0.00  0.00    +0.000 A 
ATOM     22  C   UNL     1       7.153   5.544  15.727  0.00  0.00    +0.000 A 
ATOM     23  C   UNL     1       7.074   4.983  14.449  0.00  0.00    +0.000 A 
ATOM     24  C   UNL     1       6.142   3.974  14.167  0.00  0.00    +0.000 A 
ATOM     25  C   UNL     1       5.290   3.545  15.196  0.00  0.00    +0.000 A 
BRANCH  24  26
ATOM     26  C   UNL     1       6.074   3.370  12.774  0.00  0.00    +0.000 C 
ATOM     27  C   UNL     1       4.680   3.525  12.163  0.00  0.00    +0.000 C 
ATOM     28  C   UNL     1       7.141   3.961  11.847  0.00  0.00    +0.000 C 
ENDBRANCH  24  26
ENDBRANCH   7  20
TORSDOF 5
ENDMDL
MODEL 4
REMARK VINA RESULT:      -8.0      2.786      7.710
REMARK  Name = 
REMARK  8 active torsions:
REMARK  status: ('A' for Active; 'I' for Inactive)
REMARK    1  A    between atoms: C_1  and  O_2
REMARK    2  A    between atoms: O_2  and  C_3
REMARK    3  A    between atoms: C_6  and  C_7
REMARK    4  A    between atoms: C_13  and  C_14
REMARK    5  A    between atoms: C_18  and  C_19
REMARK    6  A    between atoms: C_19  and  C_20
REMARK    7  A    between atoms: C_19  and  C_21
REMARK    8  A    between atoms: C_26  and  O_27
REMARK                            x       y       z     vdW  Elec       q    Type
REMARK                         _______ _______ _______ _____ _____    ______ ____
ROOT
ATOM      1  C   UNL     1       1.859   5.079  19.833  0.00  0.00    +0.000 A 
ATOM      2  N   UNL     1       1.136   4.272  20.594  0.00  0.00    +0.000 NA
ATOM      3  N   UNL     1       1.467   2.968  20.304  0.00  0.00    +0.000 NA
ATOM      4  C   UNL     1       2.409   2.990  19.389  0.00  0.00    +0.000 A 
ATOM      5  C   UNL     1       3.103   1.960  18.697  0.00  0.00    +0.000 A 
ATOM      6  C   UNL     1       4.048   2.283  17.791  0.00  0.00    +0.000 A 
ATOM      7  C   UNL     1       4.402   3.673  17.515  0.00  0.00    +0.000 A 
ATOM      8  C   UNL     1       3.758   4.641  18.198  0.00  0.00    +0.000 A 
ATOM      9  N   UNL     1       2.743   4.304  19.094  0.00  0.00    +0.000 N 
ENDROOT
BRANCH   1  13
ATOM     10  C   UNL     1       1.430   9.356  19.656  0.00  0.00    +0.000 A 
ATOM     11  C   UNL     1       1.885   8.624  18.551  0.00  0.00    +0.000 A 
ATOM     12  C   UNL     1       2.034   7.234  18.614  0.00  0.00    +0.000 A 
ATOM     13  C   UNL     1       1.735   6.540  19.791  0.00  0.00    +0.000 A 
ATOM     14  C   UNL     1       1.347   7.284  20.914  0.00  0.00    +0.000 A 
ATOM     15  C   UNL     1       1.165   8.669  20.842  0.00  0.00    +0.000 A 
BRANCH  10  17
ATOM     16  C   UNL     1       0.085  11.175  18.884  0.00  0.00    +0.000 C 
ATOM     17  O   UNL     1       1.316  10.697  19.407  0.00  0.00    +0.000 OA
ENDBRANCH  10  17
BRANCH  15  18
ATOM     18  O   UNL     1       0.718   9.314  21.963  0.00  0.00    +0.000 OA
ATOM     19  H   UNL     1      -0.220   9.538  21.863  0.00  0.00    +0.000 HD
ENDBRANCH  15  18
ENDBRANCH   1  13
BRANCH   7  20
ATOM     20  C   UNL     1       5.363   4.097  16.487  0.00  0.00    +0.000 A 
ATOM     21  C   UNL     1       6.323   5.074  16.759  0.00  0.00    +0.000 A 
ATOM     22  C   UNL     1       7.185   5.500  15.750  0.00  0.00    +0.000 A 
ATOM     23  C   UNL     1       7.097   4.952  14.468  0.00  0.00    +0.000 A 
ATOM     24  C   UNL     1       6.144   3.964  14.175  0.00  0.00    +0.000 A 
ATOM     25  C   UNL     1       5.282   3.545  15.199  0.00  0.00    +0.000 A 
BRANCH  24  26
ATOM     26  C   UNL     1       6.067   3.374  12.777  0.00  0.00    +0.000 C 
ATOM     27  C   UNL     1       4.670   3.542  12.174  0.00  0.00    +0.000 C 
ATOM     28  C   UNL     1       7.131   3.968  11.850  0.00  0.00    +0.000 C 
ENDBRANCH  24  26
ENDBRANCH   7  20
TORSDOF 5
ENDMDL
MODEL 5
REMARK VINA RESULT:      -7.9      5.088      8.548
REMARK  Name = 
REMARK  8 active torsions:
REMARK  status: ('A' for Active; 'I' for Inactive)
REMARK    1  A    between atoms: C_1  and  O_2
REMARK    2  A    between atoms: O_2  and  C_3
REMARK    3  A    between atoms: C_6  and  C_7
REMARK    4  A    between atoms: C_13  and  C_14
REMARK    5  A    between atoms: C_18  and  C_19
REMARK    6  A    between atoms: C_19  and  C_20
REMARK    7  A    between atoms: C_19  and  C_21
REMARK    8  A    between atoms: C_26  and  O_27
REMARK                            x       y       z     vdW  Elec       q    Type
REMARK                         _______ _______ _______ _____ _____    ______ ____
ROOT
ATOM      1  C   UNL     1      -1.302  10.957  20.111  0.00  0.00    +0.000 A 
ATOM      2  N   UNL     1      -1.566  11.804  21.094  0.00  0.00    +0.000 NA
ATOM      3  N   UNL     1      -0.776  11.492  22.177  0.00  0.00    +0.000 NA
ATOM      4  C   UNL     1      -0.016  10.477  21.837  0.00  0.00    +0.000 A 
ATOM      5  C   UNL     1       0.957   9.722  22.547  0.00  0.00    +0.000 A 
ATOM      6  C   UNL     1       1.601   8.712  21.929  0.00  0.00    +0.000 A 
ATOM      7  C   UNL     1       1.345   8.381  20.530  0.00  0.00    +0.000 A 
ATOM      8  C   UNL     1       0.441   9.122  19.857  0.00  0.00    +0.000 A 
ATOM      9  N   UNL     1      -0.262  10.131  20.516  0.00  0.00    +0.000 N 
ENDROOT
BRANCH   1  13
ATOM     10  C   UNL     1      -3.369  10.748  16.344  0.00  0.00    +0.000 A 
ATOM     11  C   UNL     1      -2.190  10.024  16.568  0.00  0.00    +0.000 A 
ATOM     12  C   UNL     1      -1.514  10.101  17.791  0.00  0.00    +0.000 A 
ATOM     13  C   UNL     1      -2.000  10.913  18.822  0.00  0.00    +0.000 A 
ATOM     14  C   UNL     1      -3.140  11.688  18.568  0.00  0.00    +0.000 A 
ATOM     15  C   UNL     1      -3.836  11.585  17.359  0.00  0.00    +0.000 A 
BRANCH  10  17
ATOM     16  C   UNL     1      -3.046  10.091  14.068  0.00  0.00    +0.000 C 
ATOM     17  O   UNL     1      -3.911  10.530  15.106  0.00  0.00    +0.000 OA
ENDBRANCH  10  17
BRANCH  15  18
ATOM     18  O   UNL     1      -4.978  12.324  17.215  0.00  0.00    +0.000 OA
ATOM     19  H   UNL     1      -5.546  12.210  17.994  0.00  0.00    +0.000 HD
ENDBRANCH  15  18
ENDBRANCH   1  13
BRANCH   7  20
ATOM     20  C   UNL     1       1.952   7.247  19.820  0.00  0.00    +0.000 A 
ATOM     21  C   UNL     1       2.644   7.436  18.622  0.00  0.00    +0.000 A 
ATOM     22  C   UNL     1       3.160   6.336  17.938  0.00  0.00    +0.000 A 
ATOM     23  C   UNL     1       2.991   5.045  18.446  0.00  0.00    +0.000 A 
ATOM     24  C   UNL     1       2.305   4.834  19.652  0.00  0.00    +0.000 A 
ATOM     25  C   UNL     1       1.789   5.949  20.330  0.00  0.00    +0.000 A 
BRANCH  24  26
ATOM     26  C   UNL     1       2.137   3.425  20.194  0.00  0.00    +0.000 C 
ATOM     27  C   UNL     1       2.102   3.413  21.724  0.00  0.00    +0.000 C 
ATOM     28  C   UNL     1       0.894   2.740  19.619  0.00  0.00    +0.000 C 
ENDBRANCH  24  26
ENDBRANCH   7  20
TORSDOF 5
ENDMDL
MODEL 6
REMARK VINA RESULT:      -7.7      1.223      1.982
REMARK  Name = 
REMARK  8 active torsions:
REMARK  status: ('A' for Active; 'I' for Inactive)
REMARK    1  A    between atoms: C_1  and  O_2
REMARK    2  A    between atoms: O_2  and  C_3
REMARK    3  A    between atoms: C_6  and  C_7
REMARK    4  A    between atoms: C_13  and  C_14
REMARK    5  A    between atoms: C_18  and  C_19
REMARK    6  A    between atoms: C_19  and  C_20
REMARK    7  A    between atoms: C_19  and  C_21
REMARK    8  A    between atoms: C_26  and  O_27
REMARK                            x       y       z     vdW  Elec       q    Type
REMARK                         _______ _______ _______ _____ _____    ______ ____
ROOT
ATOM      1  C   UNL     1       3.905   3.140  17.951  0.00  0.00    +0.000 A 
ATOM      2  N   UNL     1       3.708   1.833  18.038  0.00  0.00    +0.000 NA
ATOM      3  N   UNL     1       2.705   1.594  18.950  0.00  0.00    +0.000 NA
ATOM      4  C   UNL     1       2.279   2.756  19.389  0.00  0.00    +0.000 A 
ATOM      5  C   UNL     1       1.296   3.121  20.349  0.00  0.00    +0.000 A 
ATOM      6  C   UNL     1       1.061   4.424  20.602  0.00  0.00    +0.000 A 
ATOM      7  C   UNL     1       1.774   5.483  19.895  0.00  0.00    +0.000 A 
ATOM      8  C   UNL     1       2.684   5.126  18.965  0.00  0.00    +0.000 A 
ATOM      9  N   UNL     1       2.963   3.777  18.746  0.00  0.00    +0.000 N 
ENDROOT
BRANCH   1  13
ATOM     10  C   UNL     1       6.903   5.083  15.552  0.00  0.00    +0.000 A 
ATOM     11  C   UNL     1       5.930   4.258  14.973  0.00  0.00    +0.000 A 
ATOM     12  C   UNL     1       4.962   3.618  15.756  0.00  0.00    +0.000 A 
ATOM     13  C   UNL     1       4.948   3.786  17.145  0.00  0.00    +0.000 A 
ATOM     14  C   UNL     1       5.964   4.556  17.727  0.00  0.00    +0.000 A 
ATOM     15  C   UNL     1       6.911   5.223  16.942  0.00  0.00    +0.000 A 
BRANCH  10  17
ATOM     16  C   UNL     1       7.707   5.163  13.303  0.00  0.00    +0.000 C 
ATOM     17  O   UNL     1       7.748   5.650  14.637  0.00  0.00    +0.000 OA
ENDBRANCH  10  17
BRANCH  15  18
ATOM     18  O   UNL     1       7.829   6.011  17.581  0.00  0.00    +0.000 OA
ATOM     19  H   UNL     1       8.316   6.543  16.932  0.00  0.00    +0.000 HD
ENDBRANCH  15  18
ENDBRANCH   1  13
BRANCH   7  20
ATOM     20  C   UNL     1       1.624   6.918  20.176  0.00  0.00    +0.000 A 
ATOM     21  C   UNL     1       1.564   7.392  21.488  0.00  0.00    +0.000 A 
ATOM     22  C   UNL     1       1.361   8.750  21.727  0.00  0.00    +0.000 A 
ATOM     23  C   UNL     1       1.222   9.642  20.660  0.00  0.00    +0.000 A 
ATOM     24  C   UNL     1       1.287   9.188  19.334  0.00  0.00    +0.000 A 
ATOM     25  C   UNL     1       1.489   7.818  19.107  0.00  0.00    +0.000 A 
BRANCH  24  26
ATOM     26  C   UNL     1       1.141  10.172  18.186  0.00  0.00    +0.000 C 
ATOM     27  C   UNL     1      -0.321  10.324  17.759  0.00  0.00    +0.000 C 
ATOM     28  C   UNL     1       1.749  11.536  18.527  0.00  0.00    +0.000 C 
ENDBRANCH  24  26
ENDBRANCH   7  20
TORSDOF 5
ENDMDL
MODEL 7
REMARK VINA RESULT:      -7.5      1.115      1.318
REMARK  Name = 
REMARK  8 active torsions:
REMARK  status: ('A' for Active; 'I' for Inactive)
REMARK    1  A    between atoms: C_1  and  O_2
REMARK    2  A    between atoms: O_2  and  C_3
REMARK    3  A    between atoms: C_6  and  C_7
REMARK    4  A    between atoms: C_13  and  C_14
REMARK    5  A    between atoms: C_18  and  C_19
REMARK    6  A    between atoms: C_19  and  C_20
REMARK    7  A    between atoms: C_19  and  C_21
REMARK    8  A    between atoms: C_26  and  O_27
REMARK                            x       y       z     vdW  Elec       q    Type
REMARK                         _______ _______ _______ _____ _____    ______ ____
ROOT
ATOM      1  C   UNL     1       3.941   4.273  18.818  0.00  0.00    +0.000 A 
ATOM      2  N   UNL     1       3.776   3.125  19.457  0.00  0.00    +0.000 NA
ATOM      3  N   UNL     1       2.805   3.285  20.420  0.00  0.00    +0.000 NA
ATOM      4  C   UNL     1       2.366   4.520  20.342  0.00  0.00    +0.000 A 
ATOM      5  C   UNL     1       1.404   5.250  21.092  0.00  0.00    +0.000 A 
ATOM      6  C   UNL     1       1.146   6.535  20.779  0.00  0.00    +0.000 A 
ATOM      7  C   UNL     1       1.814   7.201  19.664  0.00  0.00    +0.000 A 
ATOM      8  C   UNL     1       2.704   6.491  18.941  0.00  0.00    +0.000 A 
ATOM      9  N   UNL     1       3.008   5.179  19.303  0.00  0.00    +0.000 N 
ENDROOT
BRANCH   1  13
ATOM     10  C   UNL     1       6.871   5.097  15.778  0.00  0.00    +0.000 A 
ATOM     11  C   UNL     1       5.512   5.364  15.570  0.00  0.00    +0.000 A 
ATOM     12  C   UNL     1       4.558   5.087  16.556  0.00  0.00    +0.000 A 
ATOM     13  C   UNL     1       4.944   4.525  17.778  0.00  0.00    +0.000 A 
ATOM     14  C   UNL     1       6.295   4.194  17.955  0.00  0.00    +0.000 A 
ATOM     15  C   UNL     1       7.253   4.504  16.983  0.00  0.00    +0.000 A 
BRANCH  10  17
ATOM     16  C   UNL     1       7.398   4.866  13.458  0.00  0.00    +0.000 C 
ATOM     17  O   UNL     1       7.662   5.459  14.722  0.00  0.00    +0.000 OA
ENDBRANCH  10  17
BRANCH  15  18
ATOM     18  O   UNL     1       8.560   4.212  17.259  0.00  0.00    +0.000 OA
ATOM     19  H   UNL     1       9.084   4.234  16.442  0.00  0.00    +0.000 HD
ENDBRANCH  15  18
ENDBRANCH   1  13
BRANCH   7  20
ATOM     20  C   UNL     1       1.639   8.618  19.318  0.00  0.00    +0.000 A 
ATOM     21  C   UNL     1       2.171   9.141  18.137  0.00  0.00    +0.000 A 
ATOM     22  C   UNL     1       2.041  10.501  17.860  0.00  0.00    +0.000 A 
ATOM     23  C   UNL     1       1.378  11.344  18.756  0.00  0.00    +0.000 A 
ATOM     24  C   UNL     1       0.830  10.838  19.944  0.00  0.00    +0.000 A 
ATOM     25  C   UNL     1       0.969   9.468  20.212  0.00  0.00    +0.000 A 
BRANCH  24  26
ATOM     26  C   UNL     1       0.105  11.767  20.903  0.00  0.00    +0.000 C 
ATOM     27  C   UNL     1       0.800  13.127  20.999  0.00  0.00    +0.000 C 
ATOM     28  C   UNL     1      -1.369  11.938  20.524  0.00  0.00    +0.000 C 
ENDBRANCH  24  26
ENDBRANCH   7  20
TORSDOF 5
ENDMDL
MODEL 8
REMARK VINA RESULT:      -7.4      4.981      8.558
REMARK  Name = 
REMARK  8 active torsions:
REMARK  status: ('A' for Active; 'I' for Inactive)
REMARK    1  A    between atoms: C_1  and  O_2
REMARK    2  A    between atoms: O_2  and  C_3
REMARK    3  A    between atoms: C_6  and  C_7
REMARK    4  A    between atoms: C_13  and  C_14
REMARK    5  A    between atoms: C_18  and  C_19
REMARK    6  A    between atoms: C_19  and  C_20
REMARK    7  A    between atoms: C_19  and  C_21
REMARK    8  A    between atoms: C_26  and  O_27
REMARK                            x       y       z     vdW  Elec       q    Type
REMARK                         _______ _______ _______ _____ _____    ______ ____
ROOT
ATOM      1  C   UNL     1      -0.954  10.962  20.136  0.00  0.00    +0.000 A 
ATOM      2  N   UNL     1      -1.074  11.913  21.050  0.00  0.00    +0.000 NA
ATOM      3  N   UNL     1      -0.266  11.606  22.121  0.00  0.00    +0.000 NA
ATOM      4  C   UNL     1       0.361  10.487  21.841  0.00  0.00    +0.000 A 
ATOM      5  C   UNL     1       1.282   9.690  22.574  0.00  0.00    +0.000 A 
ATOM      6  C   UNL     1       1.780   8.566  22.021  0.00  0.00    +0.000 A 
ATOM      7  C   UNL     1       1.418   8.151  20.669  0.00  0.00    +0.000 A 
ATOM      8  C   UNL     1       0.566   8.930  19.971  0.00  0.00    +0.000 A 
ATOM      9  N   UNL     1       0.011  10.062  20.567  0.00  0.00    +0.000 N 
ENDROOT
BRANCH   1  13
ATOM     10  C   UNL     1      -3.213  10.669  16.486  0.00  0.00    +0.000 A 
ATOM     11  C   UNL     1      -2.019   9.959  16.661  0.00  0.00    +0.000 A 
ATOM     12  C   UNL     1      -1.279  10.063  17.845  0.00  0.00    +0.000 A 
ATOM     13  C   UNL     1      -1.717  10.890  18.885  0.00  0.00    +0.000 A 
ATOM     14  C   UNL     1      -2.876  11.652  18.678  0.00  0.00    +0.000 A 
ATOM     15  C   UNL     1      -3.634  11.521  17.509  0.00  0.00    +0.000 A 
BRANCH  10  17
ATOM     16  C   UNL     1      -2.997  10.026  14.194  0.00  0.00    +0.000 C 
ATOM     17  O   UNL     1      -3.818  10.424  15.283  0.00  0.00    +0.000 OA
ENDBRANCH  10  17
BRANCH  15  18
ATOM     18  O   UNL     1      -4.788  12.248  17.412  0.00  0.00    +0.000 OA
ATOM     19  H   UNL     1      -4.943  12.501  16.488  0.00  0.00    +0.000 HD
ENDBRANCH  15  18
ENDBRANCH   1  13
BRANCH   7  20
ATOM     20  C   UNL     1       1.861   6.901  20.036  0.00  0.00    +0.000 A 
ATOM     21  C   UNL     1       1.502   5.659  20.566  0.00  0.00    +0.000 A 
ATOM     22  C   UNL     1       1.984   4.489  19.982  0.00  0.00    +0.000 A 
ATOM     23  C   UNL     1       2.823   4.551  18.865  0.00  0.00    +0.000 A 
ATOM     24  C   UNL     1       3.190   5.787  18.313  0.00  0.00    +0.000 A 
ATOM     25  C   UNL     1       2.699   6.958  18.912  0.00  0.00    +0.000 A 
BRANCH  24  26
ATOM     26  C   UNL     1       4.097   5.836  17.095  0.00  0.00    +0.000 C 
ATOM     27  C   UNL     1       5.224   6.856  17.275  0.00  0.00    +0.000 C 
ATOM     28  C   UNL     1       4.665   4.455  16.755  0.00  0.00    +0.000 C 
ENDBRANCH  24  26
ENDBRANCH   7  20
TORSDOF 5
ENDMDL
MODEL 9
REMARK VINA RESULT:      -7.3      4.622      8.212
REMARK  Name = 
REMARK  8 active torsions:
REMARK  status: ('A' for Active; 'I' for Inactive)
REMARK    1  A    between atoms: C_1  and  O_2
REMARK    2  A    between atoms: O_2  and  C_3
REMARK    3  A    between atoms: C_6  and  C_7
REMARK    4  A    between atoms: C_13  and  C_14
REMARK    5  A    between atoms: C_18  and  C_19
REMARK    6  A    between atoms: C_19  and  C_20
REMARK    7  A    between atoms: C_19  and  C_21
REMARK    8  A    between atoms: C_26  and  O_27
REMARK                            x       y       z     vdW  Elec       q    Type
REMARK                         _______ _______ _______ _____ _____    ______ ____
ROOT
ATOM      1  C   UNL     1       0.547  12.246  21.443  0.00  0.00    +0.000 A 
ATOM      2  N   UNL     1      -0.215  12.825  22.358  0.00  0.00    +0.000 NA
ATOM      3  N   UNL     1      -0.841  11.850  23.100  0.00  0.00    +0.000 NA
ATOM      4  C   UNL     1      -0.435  10.685  22.652  0.00  0.00    +0.000 A 
ATOM      5  C   UNL     1      -0.763   9.348  23.008  0.00  0.00    +0.000 A 
ATOM      6  C   UNL     1      -0.173   8.321  22.365  0.00  0.00    +0.000 A 
ATOM      7  C   UNL     1       0.822   8.541  21.319  0.00  0.00    +0.000 A 
ATOM      8  C   UNL     1       1.147   9.813  21.008  0.00  0.00    +0.000 A 
ATOM      9  N   UNL     1       0.494  10.872  21.638  0.00  0.00    +0.000 N 
ENDROOT
BRANCH   1  13
ATOM     10  C   UNL     1       2.853  14.310  18.454  0.00  0.00    +0.000 A 
ATOM     11  C   UNL     1       2.533  14.918  19.675  0.00  0.00    +0.000 A 
ATOM     12  C   UNL     1       1.774  14.249  20.643  0.00  0.00    +0.000 A 
ATOM     13  C   UNL     1       1.310  12.951  20.407  0.00  0.00    +0.000 A 
ATOM     14  C   UNL     1       1.572  12.373  19.156  0.00  0.00    +0.000 A 
ATOM     15  C   UNL     1       2.360  13.028  18.204  0.00  0.00    +0.000 A 
BRANCH  10  17
ATOM     16  C   UNL     1       3.654  16.493  17.901  0.00  0.00    +0.000 C 
ATOM     17  O   UNL     1       3.625  15.096  17.643  0.00  0.00    +0.000 OA
ENDBRANCH  10  17
BRANCH  15  18
ATOM     18  O   UNL     1       2.628  12.369  17.035  0.00  0.00    +0.000 OA
ATOM     19  H   UNL     1       3.148  12.939  16.446  0.00  0.00    +0.000 HD
ENDBRANCH  15  18
ENDBRANCH   1  13
BRANCH   7  20
ATOM     20  C   UNL     1       1.444   7.472  20.525  0.00  0.00    +0.000 A 
ATOM     21  C   UNL     1       2.182   7.765  19.376  0.00  0.00    +0.000 A 
ATOM     22  C   UNL     1       2.712   6.729  18.609  0.00  0.00    +0.000 A 
ATOM     23  C   UNL     1       2.513   5.398  18.986  0.00  0.00    +0.000 A 
ATOM     24  C   UNL     1       1.781   5.082  20.140  0.00  0.00    +0.000 A 
ATOM     25  C   UNL     1       1.251   6.134  20.903  0.00  0.00    +0.000 A 
BRANCH  24  26
ATOM     26  C   UNL     1       1.581   3.630  20.539  0.00  0.00    +0.000 C 
ATOM     27  C   UNL     1       0.805   2.856  19.471  0.00  0.00    +0.000 C 
ATOM     28  C   UNL     1       2.911   2.937  20.849  0.00  0.00    +0.000 C 
ENDBRANCH  24  26
ENDBRANCH   7  20
TORSDOF 5
ENDMDL
