MODEL 1
REMARK VINA RESULT:      -7.7      0.000      0.000
REMARK  Name = 
REMARK  6 active torsions:
REMARK  status: ('A' for Active; 'I' for Inactive)
REMARK    1  A    between atoms: C_1  and  C_2
REMARK    2  A    between atoms: C_2  and  C_3
REMARK    3  A    between atoms: C_6  and  C_8
REMARK    4  A    between atoms: C_11  and  C_12
REMARK    5  A    between atoms: N_21  and  C_22
REMARK    6  A    between atoms: C_22  and  C_23
REMARK                            x       y       z     vdW  Elec       q    Type
REMARK                         _______ _______ _______ _____ _____    ______ ____
ROOT
ATOM      1  C   UNL     1       2.693   5.600  17.920  0.00  0.00    +0.000 C 
ATOM      2  C   UNL     1       3.677   4.593  17.283  0.00  0.00    +0.000 C 
ATOM      3  N   UNL     1       4.857   4.374  18.121  0.00  0.00    +0.000 N 
ATOM      4  C   UNL     1       6.181   4.437  17.696  0.00  0.00    +0.000 C 
ATOM      5  O   UNL     1       7.110   4.412  18.502  0.00  0.00    +0.000 OA
ATOM      6  C   UNL     1       4.568   4.055  19.522  0.00  0.00    +0.000 C 
ATOM      7  C   UNL     1       3.471   4.955  20.136  0.00  0.00    +0.000 C 
ATOM      8  N   UNL     1       2.269   5.188  19.289  0.00  0.00    +0.000 NA
ENDROOT
BRANCH   4   9
ATOM      9  C   UNL     1       6.463   4.588  16.278  0.00  0.00    +0.000 A 
ATOM     10  C   UNL     1       7.275   5.450  15.562  0.00  0.00    +0.000 A 
ATOM     11  C   UNL     1       7.208   5.088  14.198  0.00  0.00    +0.000 A 
ATOM     12  C   UNL     1       6.265   4.085  14.068  0.00  0.00    +0.000 A 
ATOM     13  N   UNL     1       5.804   3.824  15.339  0.00  0.00    +0.000 N 
ATOM     14  H   UNL     1       5.106   3.131  15.580  0.00  0.00    +0.000 HD
BRANCH  12  15
ATOM     15  C   UNL     1       5.774   3.398  12.877  0.00  0.00    +0.000 A 
ATOM     16  C   UNL     1       6.560   2.421  12.251  0.00  0.00    +0.000 A 
ATOM     17  C   UNL     1       6.114   1.779  11.092  0.00  0.00    +0.000 A 
ATOM     18  C   UNL     1       4.873   2.110  10.549  0.00  0.00    +0.000 A 
ATOM     19  C   UNL     1       4.082   3.076  11.161  0.00  0.00    +0.000 A 
ATOM     20  C   UNL     1       4.529   3.719  12.319  0.00  0.00    +0.000 A 
ENDBRANCH  12  15
ENDBRANCH   4   9
BRANCH   1  22
ATOM     21  C   UNL     1       2.203   8.117  18.150  0.00  0.00    +0.000 C 
ATOM     22  C   UNL     1       3.265   7.044  17.915  0.00  0.00    +0.000 C 
ENDBRANCH   1  22
BRANCH   8  23
ATOM     23  C   UNL     1       1.416   3.967  19.285  0.00  0.00    +0.000 C 
BRANCH  23  24
ATOM     24  C   UNL     1       1.717   2.861  20.313  0.00  0.00    +0.000 C 
ATOM     25  F   UNL     1       0.795   2.864  21.311  0.00  0.00    +0.000 F 
ATOM     26  F   UNL     1       1.590   1.651  19.703  0.00  0.00    +0.000 F 
ENDBRANCH  23  24
ENDBRANCH   8  23
TORSDOF 5
ENDMDL
MODEL 2
REMARK VINA RESULT:      -7.6      0.691      1.266
REMARK  Name = 
REMARK  6 active torsions:
REMARK  status: ('A' for Active; 'I' for Inactive)
REMARK    1  A    between atoms: C_1  and  C_2
REMARK    2  A    between atoms: C_2  and  C_3
REMARK    3  A    between atoms: C_6  and  C_8
REMARK    4  A    between atoms: C_11  and  C_12
REMARK    5  A    between atoms: N_21  and  C_22
REMARK    6  A    between atoms: C_22  and  C_23
REMARK                            x       y       z     vdW  Elec       q    Type
REMARK                         _______ _______ _______ _____ _____    ______ ____
ROOT
ATOM      1  C   UNL     1       3.046   5.216  17.873  0.00  0.00    +0.000 C 
ATOM      2  C   UNL     1       4.069   4.293  17.174  0.00  0.00    +0.000 C 
ATOM      3  N   UNL     1       5.319   4.189  17.927  0.00  0.00    +0.000 N 
ATOM      4  C   UNL     1       6.600   4.363  17.408  0.00  0.00    +0.000 C 
ATOM      5  O   UNL     1       7.581   4.430  18.146  0.00  0.00    +0.000 OA
ATOM      6  C   UNL     1       5.159   3.862  19.347  0.00  0.00    +0.000 C 
ATOM      7  C   UNL     1       4.033   4.669  20.032  0.00  0.00    +0.000 C 
ATOM      8  N   UNL     1       2.758   4.785  19.271  0.00  0.00    +0.000 NA
ENDROOT
BRANCH   4   9
ATOM      9  C   UNL     1       6.766   4.521  15.973  0.00  0.00    +0.000 A 
ATOM     10  C   UNL     1       7.515   5.390  15.198  0.00  0.00    +0.000 A 
ATOM     11  C   UNL     1       7.340   5.033  13.842  0.00  0.00    +0.000 A 
ATOM     12  C   UNL     1       6.394   4.027  13.784  0.00  0.00    +0.000 A 
ATOM     13  N   UNL     1       6.037   3.758  15.087  0.00  0.00    +0.000 N 
ATOM     14  H   UNL     1       5.363   3.062  15.379  0.00  0.00    +0.000 HD
BRANCH  12  15
ATOM     15  C   UNL     1       5.811   3.343  12.632  0.00  0.00    +0.000 A 
ATOM     16  C   UNL     1       4.578   3.759  12.113  0.00  0.00    +0.000 A 
ATOM     17  C   UNL     1       3.996   3.092  11.032  0.00  0.00    +0.000 A 
ATOM     18  C   UNL     1       4.645   2.001  10.458  0.00  0.00    +0.000 A 
ATOM     19  C   UNL     1       5.871   1.577  10.962  0.00  0.00    +0.000 A 
ATOM     20  C   UNL     1       6.452   2.244  12.045  0.00  0.00    +0.000 A 
ENDBRANCH  12  15
ENDBRANCH   4   9
BRANCH   1  22
ATOM     21  C   UNL     1       2.356   7.681  18.142  0.00  0.00    +0.000 C 
ATOM     22  C   UNL     1       3.485   6.704  17.819  0.00  0.00    +0.000 C 
ENDBRANCH   1  22
BRANCH   8  23
ATOM     23  C   UNL     1       2.020   3.493  19.335  0.00  0.00    +0.000 C 
BRANCH  23  24
ATOM     24  C   UNL     1       0.899   3.342  20.380  0.00  0.00    +0.000 C 
ATOM     25  F   UNL     1       1.416   3.080  21.610  0.00  0.00    +0.000 F 
ATOM     26  F   UNL     1       0.251   4.532  20.503  0.00  0.00    +0.000 F 
ENDBRANCH  23  24
ENDBRANCH   8  23
TORSDOF 5
ENDMDL
MODEL 3
REMARK VINA RESULT:      -7.4      1.878      2.813
REMARK  Name = 
REMARK  6 active torsions:
REMARK  status: ('A' for Active; 'I' for Inactive)
REMARK    1  A    between atoms: C_1  and  C_2
REMARK    2  A    between atoms: C_2  and  C_3
REMARK    3  A    between atoms: C_6  and  C_8
REMARK    4  A    between atoms: C_11  and  C_12
REMARK    5  A    between atoms: N_21  and  C_22
REMARK    6  A    between atoms: C_22  and  C_23
REMARK                            x       y       z     vdW  Elec       q    Type
REMARK                         _______ _______ _______ _____ _____    ______ ____
ROOT
ATOM      1  C   UNL     1       2.574   3.839  19.140  0.00  0.00    +0.000 C 
ATOM      2  C   UNL     1       3.832   4.735  19.101  0.00  0.00    +0.000 C 
ATOM      3  N   UNL     1       3.499   6.138  18.849  0.00  0.00    +0.000 N 
ATOM      4  C   UNL     1       4.089   6.955  17.887  0.00  0.00    +0.000 C 
ATOM      5  O   UNL     1       3.628   8.065  17.627  0.00  0.00    +0.000 OA
ATOM      6  C   UNL     1       2.453   6.690  19.715  0.00  0.00    +0.000 C 
ATOM      7  C   UNL     1       1.247   5.739  19.891  0.00  0.00    +0.000 C 
ATOM      8  N   UNL     1       1.576   4.309  20.143  0.00  0.00    +0.000 NA
ENDROOT
BRANCH   4   9
ATOM      9  C   UNL     1       5.235   6.459  17.144  0.00  0.00    +0.000 A 
ATOM     10  C   UNL     1       6.596   6.455  17.398  0.00  0.00    +0.000 A 
ATOM     11  C   UNL     1       7.238   5.768  16.342  0.00  0.00    +0.000 A 
ATOM     12  C   UNL     1       6.284   5.459  15.391  0.00  0.00    +0.000 A 
ATOM     13  N   UNL     1       5.084   5.919  15.885  0.00  0.00    +0.000 N 
ATOM     14  H   UNL     1       4.188   5.838  15.421  0.00  0.00    +0.000 HD
BRANCH  12  15
ATOM     15  C   UNL     1       6.422   4.805  14.092  0.00  0.00    +0.000 A 
ATOM     16  C   UNL     1       5.494   3.835  13.688  0.00  0.00    +0.000 A 
ATOM     17  C   UNL     1       5.634   3.181  12.461  0.00  0.00    +0.000 A 
ATOM     18  C   UNL     1       6.705   3.493  11.625  0.00  0.00    +0.000 A 
ATOM     19  C   UNL     1       7.633   4.454  12.013  0.00  0.00    +0.000 A 
ATOM     20  C   UNL     1       7.493   5.108  13.241  0.00  0.00    +0.000 A 
ENDBRANCH  12  15
ENDBRANCH   4   9
BRANCH   1  22
ATOM     21  C   UNL     1       2.925   3.228  16.665  0.00  0.00    +0.000 C 
ATOM     22  C   UNL     1       1.934   3.686  17.734  0.00  0.00    +0.000 C 
ENDBRANCH   1  22
BRANCH   8  23
ATOM     23  C   UNL     1       2.048   4.145  21.547  0.00  0.00    +0.000 C 
BRANCH  23  24
ATOM     24  C   UNL     1       2.221   2.719  22.099  0.00  0.00    +0.000 C 
ATOM     25  F   UNL     1       1.275   1.885  21.591  0.00  0.00    +0.000 F 
ATOM     26  F   UNL     1       3.413   2.224  21.668  0.00  0.00    +0.000 F 
ENDBRANCH  23  24
ENDBRANCH   8  23
TORSDOF 5
ENDMDL
MODEL 4
REMARK VINA RESULT:      -7.4      4.509      6.954
REMARK  Name = 
REMARK  6 active torsions:
REMARK  status: ('A' for Active; 'I' for Inactive)
REMARK    1  A    between atoms: C_1  and  C_2
REMARK    2  A    between atoms: C_2  and  C_3
REMARK    3  A    between atoms: C_6  and  C_8
REMARK    4  A    between atoms: C_11  and  C_12
REMARK    5  A    between atoms: N_21  and  C_22
REMARK    6  A    between atoms: C_22  and  C_23
REMARK                            x       y       z     vdW  Elec       q    Type
REMARK                         _______ _______ _______ _____ _____    ______ ____
ROOT
ATOM      1  C   UNL     1       3.734   5.757  18.260  0.00  0.00    +0.000 C 
ATOM      2  C   UNL     1       5.164   5.897  17.692  0.00  0.00    +0.000 C 
ATOM      3  N   UNL     1       6.165   5.282  18.565  0.00  0.00    +0.000 N 
ATOM      4  C   UNL     1       7.339   5.885  19.010  0.00  0.00    +0.000 C 
ATOM      5  O   UNL     1       8.033   5.361  19.879  0.00  0.00    +0.000 OA
ATOM      6  C   UNL     1       5.864   3.908  18.976  0.00  0.00    +0.000 C 
ATOM      7  C   UNL     1       4.392   3.710  19.404  0.00  0.00    +0.000 C 
ATOM      8  N   UNL     1       3.367   4.336  18.524  0.00  0.00    +0.000 NA
ENDROOT
BRANCH   4   9
ATOM      9  C   UNL     1       7.716   7.181  18.472  0.00  0.00    +0.000 A 
ATOM     10  C   UNL     1       7.473   7.811  17.263  0.00  0.00    +0.000 A 
ATOM     11  C   UNL     1       8.033   9.107  17.321  0.00  0.00    +0.000 A 
ATOM     12  C   UNL     1       8.718   9.223  18.516  0.00  0.00    +0.000 A 
ATOM     13  N   UNL     1       8.539   8.030  19.181  0.00  0.00    +0.000 N 
ATOM     14  H   UNL     1       8.916   7.804  20.093  0.00  0.00    +0.000 HD
BRANCH  12  15
ATOM     15  C   UNL     1       9.515  10.327  19.046  0.00  0.00    +0.000 A 
ATOM     16  C   UNL     1      10.436  10.991  18.224  0.00  0.00    +0.000 A 
ATOM     17  C   UNL     1      11.226  12.028  18.728  0.00  0.00    +0.000 A 
ATOM     18  C   UNL     1      11.100  12.412  20.062  0.00  0.00    +0.000 A 
ATOM     19  C   UNL     1      10.189  11.762  20.889  0.00  0.00    +0.000 A 
ATOM     20  C   UNL     1       9.399  10.724  20.385  0.00  0.00    +0.000 A 
ENDBRANCH  12  15
ENDBRANCH   4   9
BRANCH   1  22
ATOM     21  C   UNL     1       2.094   6.617  20.048  0.00  0.00    +0.000 C 
ATOM     22  C   UNL     1       3.528   6.639  19.521  0.00  0.00    +0.000 C 
ENDBRANCH   1  22
BRANCH   8  23
ATOM     23  C   UNL     1       3.225   3.536  17.276  0.00  0.00    +0.000 C 
BRANCH  23  24
ATOM     24  C   UNL     1       2.568   2.147  17.368  0.00  0.00    +0.000 C 
ATOM     25  F   UNL     1       3.443   1.229  17.856  0.00  0.00    +0.000 F 
ATOM     26  F   UNL     1       1.553   2.202  18.274  0.00  0.00    +0.000 F 
ENDBRANCH  23  24
ENDBRANCH   8  23
TORSDOF 5
ENDMDL
MODEL 5
REMARK VINA RESULT:      -7.2      1.802      2.695
REMARK  Name = 
REMARK  6 active torsions:
REMARK  status: ('A' for Active; 'I' for Inactive)
REMARK    1  A    between atoms: C_1  and  C_2
REMARK    2  A    between atoms: C_2  and  C_3
REMARK    3  A    between atoms: C_6  and  C_8
REMARK    4  A    between atoms: C_11  and  C_12
REMARK    5  A    between atoms: N_21  and  C_22
REMARK    6  A    between atoms: C_22  and  C_23
REMARK                            x       y       z     vdW  Elec       q    Type
REMARK                         _______ _______ _______ _____ _____    ______ ____
ROOT
ATOM      1  C   UNL     1       2.469   3.727  19.173  0.00  0.00    +0.000 C 
ATOM      2  C   UNL     1       3.796   4.519  19.144  0.00  0.00    +0.000 C 
ATOM      3  N   UNL     1       3.582   5.940  18.867  0.00  0.00    +0.000 N 
ATOM      4  C   UNL     1       4.251   6.692  17.905  0.00  0.00    +0.000 C 
ATOM      5  O   UNL     1       3.886   7.832  17.622  0.00  0.00    +0.000 OA
ATOM      6  C   UNL     1       2.570   6.587  19.707  0.00  0.00    +0.000 C 
ATOM      7  C   UNL     1       1.289   5.739  19.875  0.00  0.00    +0.000 C 
ATOM      8  N   UNL     1       1.496   4.291  20.152  0.00  0.00    +0.000 NA
ENDROOT
BRANCH   4   9
ATOM      9  C   UNL     1       5.366   6.095  17.189  0.00  0.00    +0.000 A 
ATOM     10  C   UNL     1       6.678   5.824  17.537  0.00  0.00    +0.000 A 
ATOM     11  C   UNL     1       7.295   5.163  16.451  0.00  0.00    +0.000 A 
ATOM     12  C   UNL     1       6.397   5.139  15.400  0.00  0.00    +0.000 A 
ATOM     13  N   UNL     1       5.247   5.740  15.862  0.00  0.00    +0.000 N 
ATOM     14  H   UNL     1       4.398   5.871  15.327  0.00  0.00    +0.000 HD
BRANCH  12  15
ATOM     15  C   UNL     1       6.548   4.627  14.040  0.00  0.00    +0.000 A 
ATOM     16  C   UNL     1       7.506   5.180  13.180  0.00  0.00    +0.000 A 
ATOM     17  C   UNL     1       7.637   4.720  11.867  0.00  0.00    +0.000 A 
ATOM     18  C   UNL     1       6.810   3.699  11.402  0.00  0.00    +0.000 A 
ATOM     19  C   UNL     1       5.855   3.140  12.246  0.00  0.00    +0.000 A 
ATOM     20  C   UNL     1       5.723   3.601  13.559  0.00  0.00    +0.000 A 
ENDBRANCH  12  15
ENDBRANCH   4   9
BRANCH   1  22
ATOM     21  C   UNL     1       2.855   3.228  16.677  0.00  0.00    +0.000 C 
ATOM     22  C   UNL     1       1.842   3.606  17.758  0.00  0.00    +0.000 C 
ENDBRANCH   1  22
BRANCH   8  23
ATOM     23  C   UNL     1       1.931   4.110  21.566  0.00  0.00    +0.000 C 
BRANCH  23  24
ATOM     24  C   UNL     1       2.094   2.677  22.104  0.00  0.00    +0.000 C 
ATOM     25  F   UNL     1       1.304   1.810  21.418  0.00  0.00    +0.000 F 
ATOM     26  F   UNL     1       3.371   2.267  21.876  0.00  0.00    +0.000 F 
ENDBRANCH  23  24
ENDBRANCH   8  23
TORSDOF 5
ENDMDL
MODEL 6
REMARK VINA RESULT:      -7.2      3.779      8.479
REMARK  Name = 
REMARK  6 active torsions:
REMARK  status: ('A' for Active; 'I' for Inactive)
REMARK    1  A    between atoms: C_1  and  C_2
REMARK    2  A    between atoms: C_2  and  C_3
REMARK    3  A    between atoms: C_6  and  C_8
REMARK    4  A    between atoms: C_11  and  C_12
REMARK    5  A    between atoms: N_21  and  C_22
REMARK    6  A    between atoms: C_22  and  C_23
REMARK                            x       y       z     vdW  Elec       q    Type
REMARK                         _______ _______ _______ _____ _____    ______ ____
ROOT
ATOM      1  C   UNL     1       5.989   6.053  16.906  0.00  0.00    +0.000 C 
ATOM      2  C   UNL     1       5.170   6.474  18.146  0.00  0.00    +0.000 C 
ATOM      3  N   UNL     1       4.186   5.459  18.525  0.00  0.00    +0.000 N 
ATOM      4  C   UNL     1       2.834   5.687  18.773  0.00  0.00    +0.000 C 
ATOM      5  O   UNL     1       2.048   4.752  18.914  0.00  0.00    +0.000 OA
ATOM      6  C   UNL     1       4.719   4.099  18.650  0.00  0.00    +0.000 C 
ATOM      7  C   UNL     1       5.667   3.711  17.493  0.00  0.00    +0.000 C 
ATOM      8  N   UNL     1       6.668   4.739  17.096  0.00  0.00    +0.000 NA
ENDROOT
BRANCH   4   9
ATOM      9  C   UNL     1       2.342   7.053  18.812  0.00  0.00    +0.000 A 
ATOM     10  C   UNL     1       2.389   8.101  17.909  0.00  0.00    +0.000 A 
ATOM     11  C   UNL     1       1.678   9.190  18.461  0.00  0.00    +0.000 A 
ATOM     12  C   UNL     1       1.301   8.847  19.745  0.00  0.00    +0.000 A 
ATOM     13  N   UNL     1       1.745   7.559  19.946  0.00  0.00    +0.000 N 
ATOM     14  H   UNL     1       1.618   7.020  20.794  0.00  0.00    +0.000 HD
BRANCH  12  15
ATOM     15  C   UNL     1       0.597   9.624  20.763  0.00  0.00    +0.000 A 
ATOM     16  C   UNL     1       0.431  11.007  20.607  0.00  0.00    +0.000 A 
ATOM     17  C   UNL     1      -0.213  11.764  21.589  0.00  0.00    +0.000 A 
ATOM     18  C   UNL     1      -0.699  11.144  22.738  0.00  0.00    +0.000 A 
ATOM     19  C   UNL     1      -0.542   9.771  22.906  0.00  0.00    +0.000 A 
ATOM     20  C   UNL     1       0.103   9.013  21.924  0.00  0.00    +0.000 A 
ENDBRANCH  12  15
ENDBRANCH   4   9
BRANCH   1  22
ATOM     21  C   UNL     1       5.707   5.207  14.491  0.00  0.00    +0.000 C 
ATOM     22  C   UNL     1       5.124   6.061  15.617  0.00  0.00    +0.000 C 
ENDBRANCH   1  22
BRANCH   8  23
ATOM     23  C   UNL     1       7.756   4.795  18.113  0.00  0.00    +0.000 C 
BRANCH  23  24
ATOM     24  C   UNL     1       7.705   5.904  19.180  0.00  0.00    +0.000 C 
ATOM     25  F   UNL     1       8.220   5.465  20.358  0.00  0.00    +0.000 F 
ATOM     26  F   UNL     1       8.511   6.927  18.787  0.00  0.00    +0.000 F 
ENDBRANCH  23  24
ENDBRANCH   8  23
TORSDOF 5
ENDMDL
MODEL 7
REMARK VINA RESULT:      -7.1      0.824      1.021
REMARK  Name = 
REMARK  6 active torsions:
REMARK  status: ('A' for Active; 'I' for Inactive)
REMARK    1  A    between atoms: C_1  and  C_2
REMARK    2  A    between atoms: C_2  and  C_3
REMARK    3  A    between atoms: C_6  and  C_8
REMARK    4  A    between atoms: C_11  and  C_12
REMARK    5  A    between atoms: N_21  and  C_22
REMARK    6  A    between atoms: C_22  and  C_23
REMARK                            x       y       z     vdW  Elec       q    Type
REMARK                         _______ _______ _______ _____ _____    ______ ____
ROOT
ATOM      1  C   UNL     1       3.330   5.365  17.728  0.00  0.00    +0.000 C 
ATOM      2  C   UNL     1       4.344   4.427  17.035  0.00  0.00    +0.000 C 
ATOM      3  N   UNL     1       5.638   4.417  17.719  0.00  0.00    +0.000 N 
ATOM      4  C   UNL     1       6.880   4.594  17.114  0.00  0.00    +0.000 C 
ATOM      5  O   UNL     1       7.898   4.746  17.787  0.00  0.00    +0.000 OA
ATOM      6  C   UNL     1       5.570   4.188  19.165  0.00  0.00    +0.000 C 
ATOM      7  C   UNL     1       4.456   5.005  19.857  0.00  0.00    +0.000 C 
ATOM      8  N   UNL     1       3.137   5.025  19.167  0.00  0.00    +0.000 NA
ENDROOT
BRANCH   4   9
ATOM      9  C   UNL     1       6.959   4.655  15.665  0.00  0.00    +0.000 A 
ATOM     10  C   UNL     1       7.674   5.455  14.789  0.00  0.00    +0.000 A 
ATOM     11  C   UNL     1       7.407   5.014  13.473  0.00  0.00    +0.000 A 
ATOM     12  C   UNL     1       6.442   4.027  13.540  0.00  0.00    +0.000 A 
ATOM     13  N   UNL     1       6.162   3.852  14.877  0.00  0.00    +0.000 N 
ATOM     14  H   UNL     1       5.496   3.191  15.256  0.00  0.00    +0.000 HD
BRANCH  12  15
ATOM     15  C   UNL     1       5.777   3.282  12.474  0.00  0.00    +0.000 A 
ATOM     16  C   UNL     1       6.396   2.162  11.903  0.00  0.00    +0.000 A 
ATOM     17  C   UNL     1       5.782   1.460  10.861  0.00  0.00    +0.000 A 
ATOM     18  C   UNL     1       4.541   1.873  10.382  0.00  0.00    +0.000 A 
ATOM     19  C   UNL     1       3.914   2.983  10.940  0.00  0.00    +0.000 A 
ATOM     20  C   UNL     1       4.528   3.685  11.982  0.00  0.00    +0.000 A 
ENDBRANCH  12  15
ENDBRANCH   4   9
BRANCH   1  22
ATOM     21  C   UNL     1       2.648   7.823  18.067  0.00  0.00    +0.000 C 
ATOM     22  C   UNL     1       3.711   6.858  17.544  0.00  0.00    +0.000 C 
ENDBRANCH   1  22
BRANCH   8  23
ATOM     23  C   UNL     1       2.450   3.718  19.364  0.00  0.00    +0.000 C 
BRANCH  23  24
ATOM     24  C   UNL     1       0.925   3.717  19.575  0.00  0.00    +0.000 C 
ATOM     25  F   UNL     1       0.387   2.523  19.213  0.00  0.00    +0.000 F 
ATOM     26  F   UNL     1       0.668   3.844  20.906  0.00  0.00    +0.000 F 
ENDBRANCH  23  24
ENDBRANCH   8  23
TORSDOF 5
ENDMDL
MODEL 8
REMARK VINA RESULT:      -7.1      5.336      7.855
REMARK  Name = 
REMARK  6 active torsions:
REMARK  status: ('A' for Active; 'I' for Inactive)
REMARK    1  A    between atoms: C_1  and  C_2
REMARK    2  A    between atoms: C_2  and  C_3
REMARK    3  A    between atoms: C_6  and  C_8
REMARK    4  A    between atoms: C_11  and  C_12
REMARK    5  A    between atoms: N_21  and  C_22
REMARK    6  A    between atoms: C_22  and  C_23
REMARK                            x       y       z     vdW  Elec       q    Type
REMARK                         _______ _______ _______ _____ _____    ______ ____
ROOT
ATOM      1  C   UNL     1      -1.903  10.571  18.749  0.00  0.00    +0.000 C 
ATOM      2  C   UNL     1      -0.557  10.260  19.442  0.00  0.00    +0.000 C 
ATOM      3  N   UNL     1       0.549  11.020  18.859  0.00  0.00    +0.000 N 
ATOM      4  C   UNL     1       1.768  10.492  18.439  0.00  0.00    +0.000 C 
ATOM      5  O   UNL     1       2.569  11.174  17.802  0.00  0.00    +0.000 OA
ATOM      6  C   UNL     1       0.310  12.461  18.736  0.00  0.00    +0.000 C 
ATOM      7  C   UNL     1      -1.094  12.798  18.185  0.00  0.00    +0.000 C 
ATOM      8  N   UNL     1      -2.226  12.026  18.768  0.00  0.00    +0.000 NA
ENDROOT
BRANCH   4   9
ATOM      9  C   UNL     1       2.067   9.098  18.713  0.00  0.00    +0.000 A 
ATOM     10  C   UNL     1       1.771   8.257  19.772  0.00  0.00    +0.000 A 
ATOM     11  C   UNL     1       2.263   6.969  19.464  0.00  0.00    +0.000 A 
ATOM     12  C   UNL     1       2.961   7.052  18.274  0.00  0.00    +0.000 A 
ATOM     13  N   UNL     1       2.857   8.361  17.856  0.00  0.00    +0.000 N 
ATOM     14  H   UNL     1       3.260   8.741  17.009  0.00  0.00    +0.000 HD
BRANCH  12  15
ATOM     15  C   UNL     1       3.708   6.032  17.542  0.00  0.00    +0.000 A 
ATOM     16  C   UNL     1       4.746   6.401  16.676  0.00  0.00    +0.000 A 
ATOM     17  C   UNL     1       5.447   5.435  15.948  0.00  0.00    +0.000 A 
ATOM     18  C   UNL     1       5.114   4.088  16.081  0.00  0.00    +0.000 A 
ATOM     19  C   UNL     1       4.086   3.708  16.938  0.00  0.00    +0.000 A 
ATOM     20  C   UNL     1       3.385   4.673  17.666  0.00  0.00    +0.000 A 
ENDBRANCH  12  15
ENDBRANCH   4   9
BRANCH   1  22
ATOM     21  C   UNL     1      -3.294  10.218  16.612  0.00  0.00    +0.000 C 
ATOM     22  C   UNL     1      -1.951   9.999  17.306  0.00  0.00    +0.000 C 
ENDBRANCH   1  22
BRANCH   8  23
ATOM     23  C   UNL     1      -2.522  12.532  20.138  0.00  0.00    +0.000 C 
BRANCH  23  24
ATOM     24  C   UNL     1      -3.979  12.888  20.487  0.00  0.00    +0.000 C 
ATOM     25  F   UNL     1      -4.830  12.446  19.524  0.00  0.00    +0.000 F 
ATOM     26  F   UNL     1      -4.332  12.222  21.620  0.00  0.00    +0.000 F 
ENDBRANCH  23  24
ENDBRANCH   8  23
TORSDOF 5
ENDMDL
MODEL 9
REMARK VINA RESULT:      -7.1      4.780      7.537
REMARK  Name = 
REMARK  6 active torsions:
REMARK  status: ('A' for Active; 'I' for Inactive)
REMARK    1  A    between atoms: C_1  and  C_2
REMARK    2  A    between atoms: C_2  and  C_3
REMARK    3  A    between atoms: C_6  and  C_8
REMARK    4  A    between atoms: C_11  and  C_12
REMARK    5  A    between atoms: N_21  and  C_22
REMARK    6  A    between atoms: C_22  and  C_23
REMARK                            x       y       z     vdW  Elec       q    Type
REMARK                         _______ _______ _______ _____ _____    ______ ____
ROOT
ATOM      1  C   UNL     1      -0.123  10.866  18.765  0.00  0.00    +0.000 C 
ATOM      2  C   UNL     1      -0.248   9.574  19.603  0.00  0.00    +0.000 C 
ATOM      3  N   UNL     1       0.309   9.735  20.947  0.00  0.00    +0.000 N 
ATOM      4  C   UNL     1       1.217   8.876  21.561  0.00  0.00    +0.000 C 
ATOM      5  O   UNL     1       1.764   9.181  22.620  0.00  0.00    +0.000 OA
ATOM      6  C   UNL     1      -0.167  10.915  21.675  0.00  0.00    +0.000 C 
ATOM      7  C   UNL     1      -0.196  12.193  20.806  0.00  0.00    +0.000 C 
ATOM      8  N   UNL     1      -0.755  12.038  19.435  0.00  0.00    +0.000 NA
ENDROOT
BRANCH   4   9
ATOM      9  C   UNL     1       1.560   7.624  20.908  0.00  0.00    +0.000 A 
ATOM     10  C   UNL     1       1.211   6.306  21.148  0.00  0.00    +0.000 A 
ATOM     11  C   UNL     1       1.793   5.506  20.138  0.00  0.00    +0.000 A 
ATOM     12  C   UNL     1       2.591   6.320  19.355  0.00  0.00    +0.000 A 
ATOM     13  N   UNL     1       2.459   7.593  19.863  0.00  0.00    +0.000 N 
ATOM     14  H   UNL     1       2.917   8.420  19.502  0.00  0.00    +0.000 HD
BRANCH  12  15
ATOM     15  C   UNL     1       3.450   5.991  18.220  0.00  0.00    +0.000 A 
ATOM     16  C   UNL     1       3.629   4.656  17.834  0.00  0.00    +0.000 A 
ATOM     17  C   UNL     1       4.473   4.328  16.769  0.00  0.00    +0.000 A 
ATOM     18  C   UNL     1       5.146   5.335  16.079  0.00  0.00    +0.000 A 
ATOM     19  C   UNL     1       4.975   6.665  16.451  0.00  0.00    +0.000 A 
ATOM     20  C   UNL     1       4.132   6.993  17.517  0.00  0.00    +0.000 A 
ENDBRANCH  12  15
ENDBRANCH   4   9
BRANCH   1  22
ATOM     21  C   UNL     1       2.069   9.960  17.766  0.00  0.00    +0.000 C 
ATOM     22  C   UNL     1       1.352  11.161  18.381  0.00  0.00    +0.000 C 
ENDBRANCH   1  22
BRANCH   8  23
ATOM     23  C   UNL     1      -2.239  11.927  19.512  0.00  0.00    +0.000 C 
BRANCH  23  24
ATOM     24  C   UNL     1      -3.011  11.536  18.238  0.00  0.00    +0.000 C 
ATOM     25  F   UNL     1      -3.258  10.200  18.212  0.00  0.00    +0.000 F 
ATOM     26  F   UNL     1      -4.233  12.133  18.267  0.00  0.00    +0.000 F 
ENDBRANCH  23  24
ENDBRANCH   8  23
TORSDOF 5
ENDMDL
