MODEL 1
REMARK VINA RESULT:      -8.4      0.000      0.000
REMARK  Name = 
REMARK  8 active torsions:
REMARK  status: ('A' for Active; 'I' for Inactive)
REMARK    1  A    between atoms: C_1  and  C_2
REMARK    2  A    between atoms: C_6  and  N_7
REMARK    3  A    between atoms: C_8  and  C_10
REMARK    4  A    between atoms: C_10  and  C_11
REMARK    5  A    between atoms: C_13  and  C_14
REMARK    6  A    between atoms: C_20  and  C_21
REMARK    7  A    between atoms: C_20  and  C_22
REMARK    8  A    between atoms: C_22  and  C_24
REMARK                            x       y       z     vdW  Elec       q    Type
REMARK                         _______ _______ _______ _____ _____    ______ ____
ROOT
ATOM      1  C   UNL     1       5.984   5.374  18.437  0.00  0.00    +0.000 C 
ATOM      2  C   UNL     1       5.556   3.936  18.099  0.00  0.00    +0.000 C 
ATOM      3  C   UNL     1       6.408   4.752  17.085  0.00  0.00    +0.000 C 
ATOM      4  C   UNL     1       7.865   4.305  16.942  0.00  0.00    +0.000 C 
ENDROOT
BRANCH   2   5
ATOM      5  C   UNL     1       4.043   3.673  18.242  0.00  0.00    +0.000 A 
ATOM      6  C   UNL     1       3.122   3.712  17.187  0.00  0.00    +0.000 A 
ATOM      7  C   UNL     1       1.736   3.625  17.410  0.00  0.00    +0.000 A 
ATOM      8  C   UNL     1       1.235   3.505  18.702  0.00  0.00    +0.000 A 
ATOM      9  C   UNL     1       2.121   3.323  19.752  0.00  0.00    +0.000 A 
ATOM     10  C   UNL     1       3.502   3.346  19.509  0.00  0.00    +0.000 A 
ENDBRANCH   2   5
BRANCH   1  12
ATOM     11  N   UNL     1       3.740   6.346  18.948  0.00  0.00    +0.000 N 
ATOM     12  C   UNL     1       4.985   6.493  18.356  0.00  0.00    +0.000 C 
ATOM     13  O   UNL     1       5.337   7.518  17.791  0.00  0.00    +0.000 OA
ATOM     14  H   UNL     1       3.531   5.542  19.520  0.00  0.00    +0.000 HD
BRANCH  11  20
ATOM     15  C   UNL     1       0.363   9.047  21.306  0.00  0.00    +0.000 C 
ATOM     16  C   UNL     1       1.113   8.724  20.048  0.00  0.00    +0.000 A 
ATOM     17  C   UNL     1       0.884   9.449  18.872  0.00  0.00    +0.000 A 
ATOM     18  C   UNL     1       1.582   9.140  17.715  0.00  0.00    +0.000 A 
ATOM     19  C   UNL     1       2.503   8.103  17.732  0.00  0.00    +0.000 A 
ATOM     20  C   UNL     1       2.766   7.373  18.900  0.00  0.00    +0.000 A 
ATOM     21  C   UNL     1       2.050   7.679  20.055  0.00  0.00    +0.000 A 
ENDBRANCH  11  20
ENDBRANCH   1  12
BRANCH   1  22
ATOM     22  C   UNL     1       6.911   5.455  19.543  0.00  0.00    +0.000 C 
ATOM     23  N   UNL     1       7.664   5.470  20.415  0.00  0.00    +0.000 NA
ENDBRANCH   1  22
BRANCH   3  24
ATOM     24  C   UNL     1       5.780   5.179  15.743  0.00  0.00    +0.000 C 
ATOM     25  O   UNL     1       4.739   5.832  15.772  0.00  0.00    +0.000 OA
BRANCH  24  26
ATOM     26  C   UNL     1       6.231   4.624  14.403  0.00  0.00    +0.000 A 
ATOM     27  C   UNL     1       5.493   3.654  13.723  0.00  0.00    +0.000 A 
ATOM     28  C   UNL     1       5.776   3.345  12.385  0.00  0.00    +0.000 A 
ATOM     29  C   UNL     1       6.823   3.976  11.718  0.00  0.00    +0.000 A 
ATOM     30  C   UNL     1       7.638   4.867  12.413  0.00  0.00    +0.000 A 
ATOM     31  C   UNL     1       7.353   5.179  13.753  0.00  0.00    +0.000 A 
ENDBRANCH  24  26
ENDBRANCH   3  24
TORSDOF 6
ENDMDL
MODEL 2
REMARK VINA RESULT:      -7.9      1.776      6.795
REMARK  Name = 
REMARK  8 active torsions:
REMARK  status: ('A' for Active; 'I' for Inactive)
REMARK    1  A    between atoms: C_1  and  C_2
REMARK    2  A    between atoms: C_6  and  N_7
REMARK    3  A    between atoms: C_8  and  C_10
REMARK    4  A    between atoms: C_10  and  C_11
REMARK    5  A    between atoms: C_13  and  C_14
REMARK    6  A    between atoms: C_20  and  C_21
REMARK    7  A    between atoms: C_20  and  C_22
REMARK    8  A    between atoms: C_22  and  C_24
REMARK                            x       y       z     vdW  Elec       q    Type
REMARK                         _______ _______ _______ _____ _____    ______ ____
ROOT
ATOM      1  C   UNL     1       4.307   3.643  18.862  0.00  0.00    +0.000 C 
ATOM      2  C   UNL     1       4.671   4.882  19.696  0.00  0.00    +0.000 C 
ATOM      3  C   UNL     1       3.179   4.546  19.413  0.00  0.00    +0.000 C 
ATOM      4  C   UNL     1       2.383   4.025  20.612  0.00  0.00    +0.000 C 
ENDROOT
BRANCH   2   5
ATOM      5  C   UNL     1       5.692   5.824  19.025  0.00  0.00    +0.000 A 
ATOM      6  C   UNL     1       5.374   6.786  18.058  0.00  0.00    +0.000 A 
ATOM      7  C   UNL     1       6.371   7.499  17.368  0.00  0.00    +0.000 A 
ATOM      8  C   UNL     1       7.717   7.257  17.624  0.00  0.00    +0.000 A 
ATOM      9  C   UNL     1       8.062   6.417  18.670  0.00  0.00    +0.000 A 
ATOM     10  C   UNL     1       7.057   5.761  19.395  0.00  0.00    +0.000 A 
ENDBRANCH   2   5
BRANCH   1  12
ATOM     11  N   UNL     1       5.716   4.023  16.834  0.00  0.00    +0.000 N 
ATOM     12  C   UNL     1       4.491   3.663  17.371  0.00  0.00    +0.000 C 
ATOM     13  O   UNL     1       3.539   3.316  16.685  0.00  0.00    +0.000 OA
ATOM     14  H   UNL     1       6.517   4.172  17.429  0.00  0.00    +0.000 HD
BRANCH  11  20
ATOM     15  C   UNL     1       8.407   5.646  13.041  0.00  0.00    +0.000 C 
ATOM     16  C   UNL     1       7.261   4.829  13.558  0.00  0.00    +0.000 A 
ATOM     17  C   UNL     1       6.461   4.084  12.682  0.00  0.00    +0.000 A 
ATOM     18  C   UNL     1       5.403   3.334  13.172  0.00  0.00    +0.000 A 
ATOM     19  C   UNL     1       5.142   3.333  14.534  0.00  0.00    +0.000 A 
ATOM     20  C   UNL     1       5.938   4.054  15.435  0.00  0.00    +0.000 A 
ATOM     21  C   UNL     1       6.990   4.818  14.935  0.00  0.00    +0.000 A 
ENDBRANCH  11  20
ENDBRANCH   1  12
BRANCH   1  22
ATOM     22  C   UNL     1       4.645   2.393  19.506  0.00  0.00    +0.000 C 
ATOM     23  N   UNL     1       4.928   1.425  20.063  0.00  0.00    +0.000 NA
ENDBRANCH   1  22
BRANCH   3  24
ATOM     24  C   UNL     1       2.353   5.483  18.509  0.00  0.00    +0.000 C 
ATOM     25  O   UNL     1       2.009   5.069  17.405  0.00  0.00    +0.000 OA
BRANCH  24  26
ATOM     26  C   UNL     1       2.166   6.962  18.801  0.00  0.00    +0.000 A 
ATOM     27  C   UNL     1       2.151   7.917  17.783  0.00  0.00    +0.000 A 
ATOM     28  C   UNL     1       1.721   9.228  18.036  0.00  0.00    +0.000 A 
ATOM     29  C   UNL     1       1.334   9.612  19.317  0.00  0.00    +0.000 A 
ATOM     30  C   UNL     1       1.445   8.703  20.367  0.00  0.00    +0.000 A 
ATOM     31  C   UNL     1       1.872   7.389  20.114  0.00  0.00    +0.000 A 
ENDBRANCH  24  26
ENDBRANCH   3  24
TORSDOF 6
ENDMDL
MODEL 3
REMARK VINA RESULT:      -7.9      7.135     11.081
REMARK  Name = 
REMARK  8 active torsions:
REMARK  status: ('A' for Active; 'I' for Inactive)
REMARK    1  A    between atoms: C_1  and  C_2
REMARK    2  A    between atoms: C_6  and  N_7
REMARK    3  A    between atoms: C_8  and  C_10
REMARK    4  A    between atoms: C_10  and  C_11
REMARK    5  A    between atoms: C_13  and  C_14
REMARK    6  A    between atoms: C_20  and  C_21
REMARK    7  A    between atoms: C_20  and  C_22
REMARK    8  A    between atoms: C_22  and  C_24
REMARK                            x       y       z     vdW  Elec       q    Type
REMARK                         _______ _______ _______ _____ _____    ______ ____
ROOT
ATOM      1  C   UNL     1       0.174  10.521  20.476  0.00  0.00    +0.000 C 
ATOM      2  C   UNL     1       0.886  11.644  21.248  0.00  0.00    +0.000 C 
ATOM      3  C   UNL     1      -0.432  11.034  21.804  0.00  0.00    +0.000 C 
ATOM      4  C   UNL     1      -0.275  10.144  23.038  0.00  0.00    +0.000 C 
ENDROOT
BRANCH   2   5
ATOM      5  C   UNL     1       1.202  12.896  20.404  0.00  0.00    +0.000 A 
ATOM      6  C   UNL     1       0.483  14.097  20.457  0.00  0.00    +0.000 A 
ATOM      7  C   UNL     1       0.719  15.142  19.546  0.00  0.00    +0.000 A 
ATOM      8  C   UNL     1       1.680  15.006  18.549  0.00  0.00    +0.000 A 
ATOM      9  C   UNL     1       2.502  13.891  18.556  0.00  0.00    +0.000 A 
ATOM     10  C   UNL     1       2.301  12.884  19.510  0.00  0.00    +0.000 A 
ENDBRANCH   2   5
BRANCH   1  12
ATOM     11  N   UNL     1      -1.732  10.100  18.916  0.00  0.00    +0.000 N 
ATOM     12  C   UNL     1      -0.607  10.844  19.233  0.00  0.00    +0.000 C 
ATOM     13  O   UNL     1      -0.227  11.795  18.565  0.00  0.00    +0.000 OA
ATOM     14  H   UNL     1      -2.094   9.412  19.559  0.00  0.00    +0.000 HD
BRANCH  11  20
ATOM     15  C   UNL     1      -5.626  12.325  16.881  0.00  0.00    +0.000 C 
ATOM     16  C   UNL     1      -4.403  11.470  16.735  0.00  0.00    +0.000 A 
ATOM     17  C   UNL     1      -4.012  10.987  15.480  0.00  0.00    +0.000 A 
ATOM     18  C   UNL     1      -2.880  10.196  15.359  0.00  0.00    +0.000 A 
ATOM     19  C   UNL     1      -2.144   9.882  16.492  0.00  0.00    +0.000 A 
ATOM     20  C   UNL     1      -2.502  10.368  17.758  0.00  0.00    +0.000 A 
ATOM     21  C   UNL     1      -3.649  11.150  17.875  0.00  0.00    +0.000 A 
ENDBRANCH  11  20
ENDBRANCH   1  12
BRANCH   1  22
ATOM     22  C   UNL     1       0.926   9.288  20.426  0.00  0.00    +0.000 C 
ATOM     23  N   UNL     1       1.491   8.284  20.420  0.00  0.00    +0.000 NA
ENDBRANCH   1  22
BRANCH   3  24
ATOM     24  C   UNL     1      -1.705  11.903  21.851  0.00  0.00    +0.000 C 
ATOM     25  O   UNL     1      -2.320  12.090  20.804  0.00  0.00    +0.000 OA
BRANCH  24  26
ATOM     26  C   UNL     1      -2.089  12.743  23.058  0.00  0.00    +0.000 A 
ATOM     27  C   UNL     1      -1.289  13.796  23.506  0.00  0.00    +0.000 A 
ATOM     28  C   UNL     1      -1.775  14.717  24.445  0.00  0.00    +0.000 A 
ATOM     29  C   UNL     1      -3.056  14.579  24.974  0.00  0.00    +0.000 A 
ATOM     30  C   UNL     1      -3.828  13.475  24.620  0.00  0.00    +0.000 A 
ATOM     31  C   UNL     1      -3.342  12.554  23.677  0.00  0.00    +0.000 A 
ENDBRANCH  24  26
ENDBRANCH   3  24
TORSDOF 6
ENDMDL
MODEL 4
REMARK VINA RESULT:      -7.7      0.257      1.261
REMARK  Name = 
REMARK  8 active torsions:
REMARK  status: ('A' for Active; 'I' for Inactive)
REMARK    1  A    between atoms: C_1  and  C_2
REMARK    2  A    between atoms: C_6  and  N_7
REMARK    3  A    between atoms: C_8  and  C_10
REMARK    4  A    between atoms: C_10  and  C_11
REMARK    5  A    between atoms: C_13  and  C_14
REMARK    6  A    between atoms: C_20  and  C_21
REMARK    7  A    between atoms: C_20  and  C_22
REMARK    8  A    between atoms: C_22  and  C_24
REMARK                            x       y       z     vdW  Elec       q    Type
REMARK                         _______ _______ _______ _____ _____    ______ ____
ROOT
ATOM      1  C   UNL     1       5.973   5.407  18.371  0.00  0.00    +0.000 C 
ATOM      2  C   UNL     1       5.504   3.990  18.002  0.00  0.00    +0.000 C 
ATOM      3  C   UNL     1       6.301   4.837  16.970  0.00  0.00    +0.000 C 
ATOM      4  C   UNL     1       7.739   4.380  16.716  0.00  0.00    +0.000 C 
ENDROOT
BRANCH   2   5
ATOM      5  C   UNL     1       3.999   3.738  18.231  0.00  0.00    +0.000 A 
ATOM      6  C   UNL     1       3.397   3.584  19.487  0.00  0.00    +0.000 A 
ATOM      7  C   UNL     1       2.053   3.195  19.621  0.00  0.00    +0.000 A 
ATOM      8  C   UNL     1       1.276   2.941  18.495  0.00  0.00    +0.000 A 
ATOM      9  C   UNL     1       1.797   3.220  17.242  0.00  0.00    +0.000 A 
ATOM     10  C   UNL     1       3.120   3.670  17.123  0.00  0.00    +0.000 A 
ENDBRANCH   2   5
BRANCH   1  12
ATOM     11  N   UNL     1       3.702   6.320  18.873  0.00  0.00    +0.000 N 
ATOM     12  C   UNL     1       4.986   6.539  18.400  0.00  0.00    +0.000 C 
ATOM     13  O   UNL     1       5.381   7.636  18.032  0.00  0.00    +0.000 OA
ATOM     14  H   UNL     1       3.450   5.438  19.293  0.00  0.00    +0.000 HD
BRANCH  11  20
ATOM     15  C   UNL     1       0.450   8.911  21.513  0.00  0.00    +0.000 C 
ATOM     16  C   UNL     1       1.145   8.654  20.210  0.00  0.00    +0.000 A 
ATOM     17  C   UNL     1       0.878   9.446  19.087  0.00  0.00    +0.000 A 
ATOM     18  C   UNL     1       1.526   9.196  17.887  0.00  0.00    +0.000 A 
ATOM     19  C   UNL     1       2.436   8.152  17.809  0.00  0.00    +0.000 A 
ATOM     20  C   UNL     1       2.737   7.356  18.923  0.00  0.00    +0.000 A 
ATOM     21  C   UNL     1       2.071   7.602  20.121  0.00  0.00    +0.000 A 
ENDBRANCH  11  20
ENDBRANCH   1  12
BRANCH   1  22
ATOM     22  C   UNL     1       6.969   5.432  19.418  0.00  0.00    +0.000 C 
ATOM     23  N   UNL     1       7.723   5.456  20.289  0.00  0.00    +0.000 NA
ENDBRANCH   1  22
BRANCH   3  24
ATOM     24  C   UNL     1       5.594   5.328  15.690  0.00  0.00    +0.000 C 
ATOM     25  O   UNL     1       4.560   5.979  15.812  0.00  0.00    +0.000 OA
BRANCH  24  26
ATOM     26  C   UNL     1       5.962   4.836  14.301  0.00  0.00    +0.000 A 
ATOM     27  C   UNL     1       7.139   5.236  13.666  0.00  0.00    +0.000 A 
ATOM     28  C   UNL     1       7.590   4.580  12.512  0.00  0.00    +0.000 A 
ATOM     29  C   UNL     1       6.853   3.537  11.956  0.00  0.00    +0.000 A 
ATOM     30  C   UNL     1       5.623   3.196  12.513  0.00  0.00    +0.000 A 
ATOM     31  C   UNL     1       5.173   3.850  13.672  0.00  0.00    +0.000 A 
ENDBRANCH  24  26
ENDBRANCH   3  24
TORSDOF 6
ENDMDL
MODEL 5
REMARK VINA RESULT:      -7.7      6.081     10.195
REMARK  Name = 
REMARK  8 active torsions:
REMARK  status: ('A' for Active; 'I' for Inactive)
REMARK    1  A    between atoms: C_1  and  C_2
REMARK    2  A    between atoms: C_6  and  N_7
REMARK    3  A    between atoms: C_8  and  C_10
REMARK    4  A    between atoms: C_10  and  C_11
REMARK    5  A    between atoms: C_13  and  C_14
REMARK    6  A    between atoms: C_20  and  C_21
REMARK    7  A    between atoms: C_20  and  C_22
REMARK    8  A    between atoms: C_22  and  C_24
REMARK                            x       y       z     vdW  Elec       q    Type
REMARK                         _______ _______ _______ _____ _____    ______ ____
ROOT
ATOM      1  C   UNL     1      -0.755  13.210  20.126  0.00  0.00    +0.000 C 
ATOM      2  C   UNL     1      -0.435  13.421  21.615  0.00  0.00    +0.000 C 
ATOM      3  C   UNL     1       0.378  12.387  20.784  0.00  0.00    +0.000 C 
ATOM      4  C   UNL     1       1.818  12.790  20.461  0.00  0.00    +0.000 C 
ENDROOT
BRANCH   2   5
ATOM      5  C   UNL     1      -1.655  13.305  22.551  0.00  0.00    +0.000 A 
ATOM      6  C   UNL     1      -2.126  12.107  23.104  0.00  0.00    +0.000 A 
ATOM      7  C   UNL     1      -3.337  12.046  23.816  0.00  0.00    +0.000 A 
ATOM      8  C   UNL     1      -4.116  13.187  23.984  0.00  0.00    +0.000 A 
ATOM      9  C   UNL     1      -3.612  14.410  23.574  0.00  0.00    +0.000 A 
ATOM     10  C   UNL     1      -2.372  14.469  22.922  0.00  0.00    +0.000 A 
ENDBRANCH   2   5
BRANCH   1  12
ATOM     11  N   UNL     1      -3.227  13.028  19.811  0.00  0.00    +0.000 N 
ATOM     12  C   UNL     1      -1.978  12.435  19.725  0.00  0.00    +0.000 C 
ATOM     13  O   UNL     1      -1.807  11.303  19.295  0.00  0.00    +0.000 OA
ATOM     14  H   UNL     1      -3.320  14.006  20.041  0.00  0.00    +0.000 HD
BRANCH  11  20
ATOM     15  C   UNL     1      -7.665  11.315  21.087  0.00  0.00    +0.000 C 
ATOM     16  C   UNL     1      -6.602  11.504  20.046  0.00  0.00    +0.000 A 
ATOM     17  C   UNL     1      -6.793  11.047  18.736  0.00  0.00    +0.000 A 
ATOM     18  C   UNL     1      -5.802  11.226  17.784  0.00  0.00    +0.000 A 
ATOM     19  C   UNL     1      -4.618  11.855  18.143  0.00  0.00    +0.000 A 
ATOM     20  C   UNL     1      -4.408  12.339  19.442  0.00  0.00    +0.000 A 
ATOM     21  C   UNL     1      -5.402  12.141  20.398  0.00  0.00    +0.000 A 
ENDBRANCH  11  20
ENDBRANCH   1  12
BRANCH   1  22
ATOM     22  C   UNL     1      -0.460  14.362  19.303  0.00  0.00    +0.000 C 
ATOM     23  N   UNL     1      -0.258  15.260  18.611  0.00  0.00    +0.000 NA
ENDBRANCH   1  22
BRANCH   3  24
ATOM     24  C   UNL     1       0.233  10.885  21.099  0.00  0.00    +0.000 C 
ATOM     25  O   UNL     1      -0.149  10.562  22.221  0.00  0.00    +0.000 OA
BRANCH  24  26
ATOM     26  C   UNL     1       0.779   9.793  20.195  0.00  0.00    +0.000 A 
ATOM     27  C   UNL     1       0.988  10.003  18.831  0.00  0.00    +0.000 A 
ATOM     28  C   UNL     1       1.727   9.087  18.069  0.00  0.00    +0.000 A 
ATOM     29  C   UNL     1       2.239   7.931  18.652  0.00  0.00    +0.000 A 
ATOM     30  C   UNL     1       1.948   7.651  19.986  0.00  0.00    +0.000 A 
ATOM     31  C   UNL     1       1.210   8.570  20.750  0.00  0.00    +0.000 A 
ENDBRANCH  24  26
ENDBRANCH   3  24
TORSDOF 6
ENDMDL
MODEL 6
REMARK VINA RESULT:      -7.6      1.776      6.785
REMARK  Name = 
REMARK  8 active torsions:
REMARK  status: ('A' for Active; 'I' for Inactive)
REMARK    1  A    between atoms: C_1  and  C_2
REMARK    2  A    between atoms: C_6  and  N_7
REMARK    3  A    between atoms: C_8  and  C_10
REMARK    4  A    between atoms: C_10  and  C_11
REMARK    5  A    between atoms: C_13  and  C_14
REMARK    6  A    between atoms: C_20  and  C_21
REMARK    7  A    between atoms: C_20  and  C_22
REMARK    8  A    between atoms: C_22  and  C_24
REMARK                            x       y       z     vdW  Elec       q    Type
REMARK                         _______ _______ _______ _____ _____    ______ ____
ROOT
ATOM      1  C   UNL     1       4.237   3.491  18.551  0.00  0.00    +0.000 C 
ATOM      2  C   UNL     1       4.566   4.631  19.528  0.00  0.00    +0.000 C 
ATOM      3  C   UNL     1       3.091   4.364  19.115  0.00  0.00    +0.000 C 
ATOM      4  C   UNL     1       2.205   3.747  20.200  0.00  0.00    +0.000 C 
ENDROOT
BRANCH   2   5
ATOM      5  C   UNL     1       5.648   5.608  19.025  0.00  0.00    +0.000 A 
ATOM      6  C   UNL     1       5.430   6.629  18.091  0.00  0.00    +0.000 A 
ATOM      7  C   UNL     1       6.490   7.379  17.552  0.00  0.00    +0.000 A 
ATOM      8  C   UNL     1       7.804   7.116  17.929  0.00  0.00    +0.000 A 
ATOM      9  C   UNL     1       8.041   6.212  18.951  0.00  0.00    +0.000 A 
ATOM     10  C   UNL     1       6.969   5.517  19.528  0.00  0.00    +0.000 A 
ENDBRANCH   2   5
BRANCH   1  12
ATOM     11  N   UNL     1       5.817   3.899  16.660  0.00  0.00    +0.000 N 
ATOM     12  C   UNL     1       4.521   3.654  17.085  0.00  0.00    +0.000 C 
ATOM     13  O   UNL     1       3.581   3.523  16.314  0.00  0.00    +0.000 OA
ATOM     14  H   UNL     1       6.589   3.867  17.309  0.00  0.00    +0.000 HD
BRANCH  11  20
ATOM     15  C   UNL     1       4.664   3.032  11.950  0.00  0.00    +0.000 C 
ATOM     16  C   UNL     1       5.575   3.657  12.965  0.00  0.00    +0.000 A 
ATOM     17  C   UNL     1       6.684   4.411  12.563  0.00  0.00    +0.000 A 
ATOM     18  C   UNL     1       7.519   4.982  13.511  0.00  0.00    +0.000 A 
ATOM     19  C   UNL     1       7.250   4.792  14.859  0.00  0.00    +0.000 A 
ATOM     20  C   UNL     1       6.136   4.058  15.289  0.00  0.00    +0.000 A 
ATOM     21  C   UNL     1       5.309   3.474  14.331  0.00  0.00    +0.000 A 
ENDBRANCH  11  20
ENDBRANCH   1  12
BRANCH   1  22
ATOM     22  C   UNL     1       4.505   2.175  19.087  0.00  0.00    +0.000 C 
ATOM     23  N   UNL     1       4.667   1.116  19.511  0.00  0.00    +0.000 NA
ENDBRANCH   1  22
BRANCH   3  24
ATOM     24  C   UNL     1       2.346   5.408  18.258  0.00  0.00    +0.000 C 
ATOM     25  O   UNL     1       2.044   5.104  17.106  0.00  0.00    +0.000 OA
BRANCH  24  26
ATOM     26  C   UNL     1       2.200   6.863  18.668  0.00  0.00    +0.000 A 
ATOM     27  C   UNL     1       2.184   7.895  17.728  0.00  0.00    +0.000 A 
ATOM     28  C   UNL     1       1.790   9.190  18.092  0.00  0.00    +0.000 A 
ATOM     29  C   UNL     1       1.439   9.481  19.407  0.00  0.00    +0.000 A 
ATOM     30  C   UNL     1       1.552   8.491  20.380  0.00  0.00    +0.000 A 
ATOM     31  C   UNL     1       1.943   7.192  20.016  0.00  0.00    +0.000 A 
ENDBRANCH  24  26
ENDBRANCH   3  24
TORSDOF 6
ENDMDL
MODEL 7
REMARK VINA RESULT:      -7.4      7.118     11.173
REMARK  Name = 
REMARK  8 active torsions:
REMARK  status: ('A' for Active; 'I' for Inactive)
REMARK    1  A    between atoms: C_1  and  C_2
REMARK    2  A    between atoms: C_6  and  N_7
REMARK    3  A    between atoms: C_8  and  C_10
REMARK    4  A    between atoms: C_10  and  C_11
REMARK    5  A    between atoms: C_13  and  C_14
REMARK    6  A    between atoms: C_20  and  C_21
REMARK    7  A    between atoms: C_20  and  C_22
REMARK    8  A    between atoms: C_22  and  C_24
REMARK                            x       y       z     vdW  Elec       q    Type
REMARK                         _______ _______ _______ _____ _____    ______ ____
ROOT
ATOM      1  C   UNL     1       0.136  10.633  20.346  0.00  0.00    +0.000 C 
ATOM      2  C   UNL     1       0.884  11.734  21.115  0.00  0.00    +0.000 C 
ATOM      3  C   UNL     1      -0.425  11.131  21.699  0.00  0.00    +0.000 C 
ATOM      4  C   UNL     1      -0.243  10.218  22.914  0.00  0.00    +0.000 C 
ENDROOT
BRANCH   2   5
ATOM      5  C   UNL     1       1.191  12.996  20.282  0.00  0.00    +0.000 A 
ATOM      6  C   UNL     1       2.156  13.069  19.269  0.00  0.00    +0.000 A 
ATOM      7  C   UNL     1       2.499  14.289  18.661  0.00  0.00    +0.000 A 
ATOM      8  C   UNL     1       1.888  15.474  19.060  0.00  0.00    +0.000 A 
ATOM      9  C   UNL     1       0.832  15.417  19.955  0.00  0.00    +0.000 A 
ATOM     10  C   UNL     1       0.454  14.184  20.508  0.00  0.00    +0.000 A 
ENDBRANCH   2   5
BRANCH   1  12
ATOM     11  N   UNL     1      -1.825  10.266  18.842  0.00  0.00    +0.000 N 
ATOM     12  C   UNL     1      -0.678  10.986  19.133  0.00  0.00    +0.000 C 
ATOM     13  O   UNL     1      -0.301  11.938  18.464  0.00  0.00    +0.000 OA
ATOM     14  H   UNL     1      -2.180   9.575  19.486  0.00  0.00    +0.000 HD
BRANCH  11  20
ATOM     15  C   UNL     1      -2.693   9.660  14.031  0.00  0.00    +0.000 C 
ATOM     16  C   UNL     1      -3.079  10.262  15.349  0.00  0.00    +0.000 A 
ATOM     17  C   UNL     1      -4.224  11.059  15.464  0.00  0.00    +0.000 A 
ATOM     18  C   UNL     1      -4.569  11.612  16.688  0.00  0.00    +0.000 A 
ATOM     19  C   UNL     1      -3.767  11.373  17.793  0.00  0.00    +0.000 A 
ATOM     20  C   UNL     1      -2.626  10.562  17.712  0.00  0.00    +0.000 A 
ATOM     21  C   UNL     1      -2.276  10.023  16.476  0.00  0.00    +0.000 A 
ENDBRANCH  11  20
ENDBRANCH   1  12
BRANCH   1  22
ATOM     22  C   UNL     1       0.870   9.391  20.254  0.00  0.00    +0.000 C 
ATOM     23  N   UNL     1       1.411   8.376  20.191  0.00  0.00    +0.000 NA
ENDBRANCH   1  22
BRANCH   3  24
ATOM     24  C   UNL     1      -1.684  12.015  21.799  0.00  0.00    +0.000 C 
ATOM     25  O   UNL     1      -2.331  12.221  20.775  0.00  0.00    +0.000 OA
BRANCH  24  26
ATOM     26  C   UNL     1      -2.018  12.845  23.027  0.00  0.00    +0.000 A 
ATOM     27  C   UNL     1      -1.179  13.866  23.475  0.00  0.00    +0.000 A 
ATOM     28  C   UNL     1      -1.618  14.785  24.438  0.00  0.00    +0.000 A 
ATOM     29  C   UNL     1      -2.891  14.676  24.993  0.00  0.00    +0.000 A 
ATOM     30  C   UNL     1      -3.702  13.600  24.638  0.00  0.00    +0.000 A 
ATOM     31  C   UNL     1      -3.263  12.681  23.670  0.00  0.00    +0.000 A 
ENDBRANCH  24  26
ENDBRANCH   3  24
TORSDOF 6
ENDMDL
MODEL 8
REMARK VINA RESULT:      -7.4      7.899     10.069
REMARK  Name = 
REMARK  8 active torsions:
REMARK  status: ('A' for Active; 'I' for Inactive)
REMARK    1  A    between atoms: C_1  and  C_2
REMARK    2  A    between atoms: C_6  and  N_7
REMARK    3  A    between atoms: C_8  and  C_10
REMARK    4  A    between atoms: C_10  and  C_11
REMARK    5  A    between atoms: C_13  and  C_14
REMARK    6  A    between atoms: C_20  and  C_21
REMARK    7  A    between atoms: C_20  and  C_22
REMARK    8  A    between atoms: C_22  and  C_24
REMARK                            x       y       z     vdW  Elec       q    Type
REMARK                         _______ _______ _______ _____ _____    ______ ____
ROOT
ATOM      1  C   UNL     1      -0.961  11.970  20.591  0.00  0.00    +0.000 C 
ATOM      2  C   UNL     1      -1.203  10.651  19.839  0.00  0.00    +0.000 C 
ATOM      3  C   UNL     1       0.244  11.074  20.221  0.00  0.00    +0.000 C 
ATOM      4  C   UNL     1       0.890  10.264  21.348  0.00  0.00    +0.000 C 
ENDROOT
BRANCH   2   5
ATOM      5  C   UNL     1      -2.045  10.796  18.555  0.00  0.00    +0.000 A 
ATOM      6  C   UNL     1      -3.245  11.515  18.464  0.00  0.00    +0.000 A 
ATOM      7  C   UNL     1      -4.047  11.472  17.309  0.00  0.00    +0.000 A 
ATOM      8  C   UNL     1      -3.671  10.698  16.216  0.00  0.00    +0.000 A 
ATOM      9  C   UNL     1      -2.425  10.091  16.219  0.00  0.00    +0.000 A 
ATOM     10  C   UNL     1      -1.604  10.193  17.351  0.00  0.00    +0.000 A 
ENDBRANCH   2   5
BRANCH   1  12
ATOM     11  N   UNL     1      -1.139  14.462  20.573  0.00  0.00    +0.000 N 
ATOM     12  C   UNL     1      -1.051  13.279  19.858  0.00  0.00    +0.000 C 
ATOM     13  O   UNL     1      -1.004  13.241  18.637  0.00  0.00    +0.000 OA
ATOM     14  H   UNL     1      -1.040  14.468  21.577  0.00  0.00    +0.000 HD
BRANCH  11  20
ATOM     15  C   UNL     1       0.889  17.776  17.545  0.00  0.00    +0.000 C 
ATOM     16  C   UNL     1      -0.250  17.355  18.425  0.00  0.00    +0.000 A 
ATOM     17  C   UNL     1      -1.382  18.166  18.569  0.00  0.00    +0.000 A 
ATOM     18  C   UNL     1      -2.426  17.767  19.388  0.00  0.00    +0.000 A 
ATOM     19  C   UNL     1      -2.336  16.561  20.068  0.00  0.00    +0.000 A 
ATOM     20  C   UNL     1      -1.223  15.720  19.927  0.00  0.00    +0.000 A 
ATOM     21  C   UNL     1      -0.171  16.135  19.115  0.00  0.00    +0.000 A 
ENDBRANCH  11  20
ENDBRANCH   1  12
BRANCH   1  22
ATOM     22  C   UNL     1      -1.502  11.978  21.932  0.00  0.00    +0.000 C 
ATOM     23  N   UNL     1      -1.941  12.036  22.995  0.00  0.00    +0.000 NA
ENDBRANCH   1  22
BRANCH   3  24
ATOM     24  C   UNL     1       1.242  11.446  19.105  0.00  0.00    +0.000 C 
ATOM     25  O   UNL     1       1.501  10.600  18.253  0.00  0.00    +0.000 OA
BRANCH  24  26
ATOM     26  C   UNL     1       2.106  12.695  19.150  0.00  0.00    +0.000 A 
ATOM     27  C   UNL     1       2.484  13.371  17.988  0.00  0.00    +0.000 A 
ATOM     28  C   UNL     1       3.052  14.650  18.056  0.00  0.00    +0.000 A 
ATOM     29  C   UNL     1       3.283  15.259  19.287  0.00  0.00    +0.000 A 
ATOM     30  C   UNL     1       3.013  14.556  20.459  0.00  0.00    +0.000 A 
ATOM     31  C   UNL     1       2.440  13.276  20.392  0.00  0.00    +0.000 A 
ENDBRANCH  24  26
ENDBRANCH   3  24
TORSDOF 6
ENDMDL
MODEL 9
REMARK VINA RESULT:      -7.3      7.844      9.970
REMARK  Name = 
REMARK  8 active torsions:
REMARK  status: ('A' for Active; 'I' for Inactive)
REMARK    1  A    between atoms: C_1  and  C_2
REMARK    2  A    between atoms: C_6  and  N_7
REMARK    3  A    between atoms: C_8  and  C_10
REMARK    4  A    between atoms: C_10  and  C_11
REMARK    5  A    between atoms: C_13  and  C_14
REMARK    6  A    between atoms: C_20  and  C_21
REMARK    7  A    between atoms: C_20  and  C_22
REMARK    8  A    between atoms: C_22  and  C_24
REMARK                            x       y       z     vdW  Elec       q    Type
REMARK                         _______ _______ _______ _____ _____    ______ ____
ROOT
ATOM      1  C   UNL     1      -1.007  11.772  20.641  0.00  0.00    +0.000 C 
ATOM      2  C   UNL     1      -1.184  10.460  19.859  0.00  0.00    +0.000 C 
ATOM      3  C   UNL     1       0.240  10.936  20.266  0.00  0.00    +0.000 C 
ATOM      4  C   UNL     1       0.909  10.130  21.381  0.00  0.00    +0.000 C 
ENDROOT
BRANCH   2   5
ATOM      5  C   UNL     1      -2.019  10.596  18.570  0.00  0.00    +0.000 A 
ATOM      6  C   UNL     1      -1.593  10.197  17.296  0.00  0.00    +0.000 A 
ATOM      7  C   UNL     1      -2.335  10.498  16.140  0.00  0.00    +0.000 A 
ATOM      8  C   UNL     1      -3.523  11.217  16.229  0.00  0.00    +0.000 A 
ATOM      9  C   UNL     1      -4.042  11.503  17.482  0.00  0.00    +0.000 A 
ATOM     10  C   UNL     1      -3.326  11.140  18.631  0.00  0.00    +0.000 A 
ENDBRANCH   2   5
BRANCH   1  12
ATOM     11  N   UNL     1      -1.105  14.268  20.665  0.00  0.00    +0.000 N 
ATOM     12  C   UNL     1      -1.146  13.091  19.935  0.00  0.00    +0.000 C 
ATOM     13  O   UNL     1      -1.254  13.065  18.718  0.00  0.00    +0.000 OA
ATOM     14  H   UNL     1      -0.881  14.259  21.649  0.00  0.00    +0.000 HD
BRANCH  11  20
ATOM     15  C   UNL     1       0.777  17.669  17.640  0.00  0.00    +0.000 C 
ATOM     16  C   UNL     1      -0.328  17.213  18.545  0.00  0.00    +0.000 A 
ATOM     17  C   UNL     1      -1.469  18.002  18.735  0.00  0.00    +0.000 A 
ATOM     18  C   UNL     1      -2.483  17.570  19.576  0.00  0.00    +0.000 A 
ATOM     19  C   UNL     1      -2.353  16.354  20.231  0.00  0.00    +0.000 A 
ATOM     20  C   UNL     1      -1.230  15.535  20.045  0.00  0.00    +0.000 A 
ATOM     21  C   UNL     1      -0.208  15.983  19.210  0.00  0.00    +0.000 A 
ENDBRANCH  11  20
ENDBRANCH   1  12
BRANCH   1  22
ATOM     22  C   UNL     1      -1.560  11.727  21.976  0.00  0.00    +0.000 C 
ATOM     23  N   UNL     1      -1.977  11.738  23.050  0.00  0.00    +0.000 NA
ENDBRANCH   1  22
BRANCH   3  24
ATOM     24  C   UNL     1       1.231  11.375  19.169  0.00  0.00    +0.000 C 
ATOM     25  O   UNL     1       1.616  10.531  18.364  0.00  0.00    +0.000 OA
BRANCH  24  26
ATOM     26  C   UNL     1       1.947  12.715  19.188  0.00  0.00    +0.000 A 
ATOM     27  C   UNL     1       2.433  13.273  20.371  0.00  0.00    +0.000 A 
ATOM     28  C   UNL     1       3.309  14.367  20.341  0.00  0.00    +0.000 A 
ATOM     29  C   UNL     1       3.686  14.940  19.130  0.00  0.00    +0.000 A 
ATOM     30  C   UNL     1       3.127  14.465  17.945  0.00  0.00    +0.000 A 
ATOM     31  C   UNL     1       2.251  13.368  17.974  0.00  0.00    +0.000 A 
ENDBRANCH  24  26
ENDBRANCH   3  24
TORSDOF 6
ENDMDL
