MODEL 1
REMARK VINA RESULT:      -6.9      0.000      0.000
REMARK  Name = 
REMARK  11 active torsions:
REMARK  status: ('A' for Active; 'I' for Inactive)
REMARK    1  A    between atoms: C_1  and  C_2
REMARK    2  A    between atoms: C_2  and  C_3
REMARK    3  A    between atoms: C_3  and  C_4
REMARK    4  A    between atoms: C_4  and  C_5
REMARK    5  A    between atoms: C_5  and  N_6
REMARK    6  A    between atoms: C_8  and  C_9
REMARK    7  A    between atoms: N_11  and  C_12
REMARK    8  A    between atoms: C_21  and  C_22
REMARK    9  A    between atoms: C_22  and  C_23
REMARK   10  A    between atoms: C_22  and  C_24
REMARK   11  A    between atoms: C_22  and  C_25
REMARK                            x       y       z     vdW  Elec       q    Type
REMARK                         _______ _______ _______ _____ _____    ______ ____
ROOT
ATOM      1  N   UNL     1       3.273   5.858  19.393  0.00  0.00    +0.000 N 
ATOM      2  C   UNL     1       2.373   6.817  19.906  0.00  0.00    +0.000 A 
ATOM      3  C   UNL     1       2.024   7.997  19.372  0.00  0.00    +0.000 A 
ATOM      4  C   UNL     1       2.698   8.340  18.118  0.00  0.00    +0.000 A 
ATOM      5  O   UNL     1       2.548   9.431  17.568  0.00  0.00    +0.000 OA
ATOM      6  C   UNL     1       3.559   7.302  17.497  0.00  0.00    +0.000 A 
ATOM      7  C   UNL     1       3.810   6.099  18.077  0.00  0.00    +0.000 A 
ENDROOT
BRANCH   3   8
ATOM      8  C   UNL     1       0.962   8.797  20.037  0.00  0.00    +0.000 C 
ATOM      9  O   UNL     1       0.438   8.384  21.069  0.00  0.00    +0.000 OA
ATOM     10  N   UNL     1       0.580   9.985  19.438  0.00  0.00    +0.000 N 
ATOM     11  H   UNL     1       0.952  10.204  18.512  0.00  0.00    +0.000 HD
BRANCH  10  12
ATOM     12  C   UNL     1      -0.572  10.721  19.963  0.00  0.00    +0.000 C 
ATOM     13  C   UNL     1      -0.225  11.706  21.094  0.00  0.00    +0.000 C 
ATOM     14  C   UNL     1      -0.001  13.161  20.691  0.00  0.00    +0.000 C 
ATOM     15  C   UNL     1      -1.005  13.653  19.658  0.00  0.00    +0.000 C 
ATOM     16  C   UNL     1      -0.978  12.743  18.440  0.00  0.00    +0.000 C 
ATOM     17  C   UNL     1      -1.402  11.330  18.823  0.00  0.00    +0.000 C 
ENDBRANCH  10  12
ENDBRANCH   3   8
BRANCH   7  18
ATOM     18  C   UNL     1       4.690   5.088  17.229  0.00  0.00    +0.000 C 
ATOM     19  C   UNL     1       5.077   5.763  15.898  0.00  0.00    +0.000 C 
ATOM     20  C   UNL     1       5.964   4.552  17.913  0.00  0.00    +0.000 C 
ATOM     21  C   UNL     1       3.928   3.770  16.842  0.00  0.00    +0.000 C 
ENDBRANCH   7  18
BRANCH   1  22
ATOM     22  C   UNL     1       3.405   4.635  20.231  0.00  0.00    +0.000 C 
BRANCH  22  23
ATOM     23  C   UNL     1       2.293   4.403  21.265  0.00  0.00    +0.000 C 
BRANCH  23  24
ATOM     24  C   UNL     1       1.375   3.180  21.078  0.00  0.00    +0.000 C 
BRANCH  24  26
ATOM     25  C   UNL     1       1.153   2.148  18.734  0.00  0.00    +0.000 C 
ATOM     26  C   UNL     1       0.706   3.243  19.692  0.00  0.00    +0.000 C 
ENDBRANCH  24  26
ENDBRANCH  23  24
ENDBRANCH  22  23
ENDBRANCH   1  22
TORSDOF 7
ENDMDL
MODEL 2
REMARK VINA RESULT:      -6.8      0.999      1.473
REMARK  Name = 
REMARK  11 active torsions:
REMARK  status: ('A' for Active; 'I' for Inactive)
REMARK    1  A    between atoms: C_1  and  C_2
REMARK    2  A    between atoms: C_2  and  C_3
REMARK    3  A    between atoms: C_3  and  C_4
REMARK    4  A    between atoms: C_4  and  C_5
REMARK    5  A    between atoms: C_5  and  N_6
REMARK    6  A    between atoms: C_8  and  C_9
REMARK    7  A    between atoms: N_11  and  C_12
REMARK    8  A    between atoms: C_21  and  C_22
REMARK    9  A    between atoms: C_22  and  C_23
REMARK   10  A    between atoms: C_22  and  C_24
REMARK   11  A    between atoms: C_22  and  C_25
REMARK                            x       y       z     vdW  Elec       q    Type
REMARK                         _______ _______ _______ _____ _____    ______ ____
ROOT
ATOM      1  N   UNL     1       4.073   5.426  18.938  0.00  0.00    +0.000 N 
ATOM      2  C   UNL     1       3.134   6.237  19.613  0.00  0.00    +0.000 A 
ATOM      3  C   UNL     1       2.575   7.383  19.194  0.00  0.00    +0.000 A 
ATOM      4  C   UNL     1       3.033   7.862  17.889  0.00  0.00    +0.000 A 
ATOM      5  O   UNL     1       2.678   8.946  17.425  0.00  0.00    +0.000 OA
ATOM      6  C   UNL     1       3.928   6.972  17.108  0.00  0.00    +0.000 A 
ATOM      7  C   UNL     1       4.401   5.789  17.583  0.00  0.00    +0.000 A 
ENDROOT
BRANCH   3   8
ATOM      8  C   UNL     1       1.516   8.009  20.029  0.00  0.00    +0.000 C 
ATOM      9  O   UNL     1       1.078   7.414  21.012  0.00  0.00    +0.000 OA
ATOM     10  N   UNL     1       1.039   9.249  19.643  0.00  0.00    +0.000 N 
ATOM     11  H   UNL     1       1.343   9.628  18.743  0.00  0.00    +0.000 HD
BRANCH  10  12
ATOM     12  C   UNL     1      -0.114   9.829  20.334  0.00  0.00    +0.000 C 
ATOM     13  C   UNL     1       0.258  10.809  21.461  0.00  0.00    +0.000 C 
ATOM     14  C   UNL     1       0.267  12.293  21.103  0.00  0.00    +0.000 C 
ATOM     15  C   UNL     1      -0.905  12.698  20.221  0.00  0.00    +0.000 C 
ATOM     16  C   UNL     1      -0.928  11.838  18.967  0.00  0.00    +0.000 C 
ATOM     17  C   UNL     1      -1.140  10.374  19.331  0.00  0.00    +0.000 C 
ENDBRANCH  10  12
ENDBRANCH   3   8
BRANCH   7  18
ATOM     18  C   UNL     1       5.283   4.937  16.577  0.00  0.00    +0.000 C 
ATOM     19  C   UNL     1       4.626   3.555  16.388  0.00  0.00    +0.000 C 
ATOM     20  C   UNL     1       5.541   5.567  15.193  0.00  0.00    +0.000 C 
ATOM     21  C   UNL     1       6.736   4.658  17.105  0.00  0.00    +0.000 C 
ENDBRANCH   7  18
BRANCH   1  22
ATOM     22  C   UNL     1       4.462   4.197  19.682  0.00  0.00    +0.000 C 
BRANCH  22  23
ATOM     23  C   UNL     1       3.385   3.109  19.798  0.00  0.00    +0.000 C 
BRANCH  23  24
ATOM     24  C   UNL     1       2.901   2.718  21.208  0.00  0.00    +0.000 C 
BRANCH  24  26
ATOM     25  C   UNL     1       0.755   3.560  20.069  0.00  0.00    +0.000 C 
ATOM     26  C   UNL     1       1.382   2.952  21.316  0.00  0.00    +0.000 C 
ENDBRANCH  24  26
ENDBRANCH  23  24
ENDBRANCH  22  23
ENDBRANCH   1  22
TORSDOF 7
ENDMDL
MODEL 3
REMARK VINA RESULT:      -6.8      1.017      1.133
REMARK  Name = 
REMARK  11 active torsions:
REMARK  status: ('A' for Active; 'I' for Inactive)
REMARK    1  A    between atoms: C_1  and  C_2
REMARK    2  A    between atoms: C_2  and  C_3
REMARK    3  A    between atoms: C_3  and  C_4
REMARK    4  A    between atoms: C_4  and  C_5
REMARK    5  A    between atoms: C_5  and  N_6
REMARK    6  A    between atoms: C_8  and  C_9
REMARK    7  A    between atoms: N_11  and  C_12
REMARK    8  A    between atoms: C_21  and  C_22
REMARK    9  A    between atoms: C_22  and  C_23
REMARK   10  A    between atoms: C_22  and  C_24
REMARK   11  A    between atoms: C_22  and  C_25
REMARK                            x       y       z     vdW  Elec       q    Type
REMARK                         _______ _______ _______ _____ _____    ______ ____
ROOT
ATOM      1  N   UNL     1       2.534   6.589  19.772  0.00  0.00    +0.000 N 
ATOM      2  C   UNL     1       1.682   7.662  20.114  0.00  0.00    +0.000 A 
ATOM      3  C   UNL     1       1.471   8.802  19.438  0.00  0.00    +0.000 A 
ATOM      4  C   UNL     1       2.259   8.958  18.214  0.00  0.00    +0.000 A 
ATOM      5  O   UNL     1       2.240   9.993  17.547  0.00  0.00    +0.000 OA
ATOM      6  C   UNL     1       3.073   7.798  17.771  0.00  0.00    +0.000 A 
ATOM      7  C   UNL     1       3.181   6.648  18.486  0.00  0.00    +0.000 A 
ENDROOT
BRANCH   3   8
ATOM      8  C   UNL     1       0.435   9.746  19.932  0.00  0.00    +0.000 C 
ATOM      9  O   UNL     1      -0.483   9.334  20.639  0.00  0.00    +0.000 OA
ATOM     10  N   UNL     1       0.533  11.071  19.547  0.00  0.00    +0.000 N 
ATOM     11  H   UNL     1       1.236  11.324  18.849  0.00  0.00    +0.000 HD
BRANCH  10  12
ATOM     12  C   UNL     1      -0.551  12.001  19.870  0.00  0.00    +0.000 C 
ATOM     13  C   UNL     1      -0.345  12.771  21.187  0.00  0.00    +0.000 C 
ATOM     14  C   UNL     1       0.264  14.167  21.077  0.00  0.00    +0.000 C 
ATOM     15  C   UNL     1      -0.297  14.969  19.911  0.00  0.00    +0.000 C 
ATOM     16  C   UNL     1      -0.113  14.193  18.616  0.00  0.00    +0.000 C 
ATOM     17  C   UNL     1      -0.895  12.886  18.664  0.00  0.00    +0.000 C 
ENDBRANCH  10  12
ENDBRANCH   3   8
BRANCH   7  18
ATOM     18  C   UNL     1       4.033   5.489  17.817  0.00  0.00    +0.000 C 
ATOM     19  C   UNL     1       4.768   6.060  16.588  0.00  0.00    +0.000 C 
ATOM     20  C   UNL     1       5.051   4.775  18.729  0.00  0.00    +0.000 C 
ATOM     21  C   UNL     1       3.156   4.299  17.283  0.00  0.00    +0.000 C 
ENDBRANCH   7  18
BRANCH   1  22
ATOM     22  C   UNL     1       2.502   5.455  20.736  0.00  0.00    +0.000 C 
BRANCH  22  23
ATOM     23  C   UNL     1       1.330   4.474  20.586  0.00  0.00    +0.000 C 
BRANCH  23  24
ATOM     24  C   UNL     1       1.520   3.036  21.104  0.00  0.00    +0.000 C 
BRANCH  24  26
ATOM     25  C   UNL     1       0.652   2.325  18.791  0.00  0.00    +0.000 C 
ATOM     26  C   UNL     1       1.650   2.070  19.911  0.00  0.00    +0.000 C 
ENDBRANCH  24  26
ENDBRANCH  23  24
ENDBRANCH  22  23
ENDBRANCH   1  22
TORSDOF 7
ENDMDL
MODEL 4
REMARK VINA RESULT:      -6.6      1.269      3.861
REMARK  Name = 
REMARK  11 active torsions:
REMARK  status: ('A' for Active; 'I' for Inactive)
REMARK    1  A    between atoms: C_1  and  C_2
REMARK    2  A    between atoms: C_2  and  C_3
REMARK    3  A    between atoms: C_3  and  C_4
REMARK    4  A    between atoms: C_4  and  C_5
REMARK    5  A    between atoms: C_5  and  N_6
REMARK    6  A    between atoms: C_8  and  C_9
REMARK    7  A    between atoms: N_11  and  C_12
REMARK    8  A    between atoms: C_21  and  C_22
REMARK    9  A    between atoms: C_22  and  C_23
REMARK   10  A    between atoms: C_22  and  C_24
REMARK   11  A    between atoms: C_22  and  C_25
REMARK                            x       y       z     vdW  Elec       q    Type
REMARK                         _______ _______ _______ _____ _____    ______ ____
ROOT
ATOM      1  N   UNL     1       2.817   4.990  18.386  0.00  0.00    +0.000 N 
ATOM      2  C   UNL     1       2.557   6.371  18.245  0.00  0.00    +0.000 A 
ATOM      3  C   UNL     1       1.994   7.205  19.133  0.00  0.00    +0.000 A 
ATOM      4  C   UNL     1       1.565   6.584  20.388  0.00  0.00    +0.000 A 
ATOM      5  O   UNL     1       0.948   7.208  21.252  0.00  0.00    +0.000 OA
ATOM      6  C   UNL     1       1.931   5.163  20.610  0.00  0.00    +0.000 A 
ATOM      7  C   UNL     1       2.563   4.403  19.677  0.00  0.00    +0.000 A 
ENDROOT
BRANCH   3   8
ATOM      8  C   UNL     1       1.925   8.654  18.810  0.00  0.00    +0.000 C 
ATOM      9  O   UNL     1       2.713   9.141  18.002  0.00  0.00    +0.000 OA
ATOM     10  N   UNL     1       0.974   9.416  19.466  0.00  0.00    +0.000 N 
ATOM     11  H   UNL     1       0.443   8.983  20.224  0.00  0.00    +0.000 HD
BRANCH  10  12
ATOM     12  C   UNL     1       0.976  10.871  19.305  0.00  0.00    +0.000 C 
ATOM     13  C   UNL     1      -0.224  11.417  18.510  0.00  0.00    +0.000 C 
ATOM     14  C   UNL     1      -1.412  11.923  19.325  0.00  0.00    +0.000 C 
ATOM     15  C   UNL     1      -0.995  12.728  20.547  0.00  0.00    +0.000 C 
ATOM     16  C   UNL     1      -0.056  11.902  21.413  0.00  0.00    +0.000 C 
ATOM     17  C   UNL     1       1.220  11.573  20.648  0.00  0.00    +0.000 C 
ENDBRANCH  10  12
ENDBRANCH   3   8
BRANCH   7  18
ATOM     18  C   UNL     1       2.942   2.928  20.121  0.00  0.00    +0.000 C 
ATOM     19  C   UNL     1       2.122   1.930  19.279  0.00  0.00    +0.000 C 
ATOM     20  C   UNL     1       4.435   2.552  20.039  0.00  0.00    +0.000 C 
ATOM     21  C   UNL     1       2.592   2.619  21.622  0.00  0.00    +0.000 C 
ENDBRANCH   7  18
BRANCH   1  22
ATOM     22  C   UNL     1       3.488   4.373  17.210  0.00  0.00    +0.000 C 
BRANCH  22  23
ATOM     23  C   UNL     1       4.797   5.036  16.755  0.00  0.00    +0.000 C 
BRANCH  23  24
ATOM     24  C   UNL     1       6.100   4.623  17.464  0.00  0.00    +0.000 C 
BRANCH  24  26
ATOM     25  C   UNL     1       7.778   5.901  18.935  0.00  0.00    +0.000 C 
ATOM     26  C   UNL     1       6.324   5.519  18.697  0.00  0.00    +0.000 C 
ENDBRANCH  24  26
ENDBRANCH  23  24
ENDBRANCH  22  23
ENDBRANCH   1  22
TORSDOF 7
ENDMDL
MODEL 5
REMARK VINA RESULT:      -6.6      1.327      3.969
REMARK  Name = 
REMARK  11 active torsions:
REMARK  status: ('A' for Active; 'I' for Inactive)
REMARK    1  A    between atoms: C_1  and  C_2
REMARK    2  A    between atoms: C_2  and  C_3
REMARK    3  A    between atoms: C_3  and  C_4
REMARK    4  A    between atoms: C_4  and  C_5
REMARK    5  A    between atoms: C_5  and  N_6
REMARK    6  A    between atoms: C_8  and  C_9
REMARK    7  A    between atoms: N_11  and  C_12
REMARK    8  A    between atoms: C_21  and  C_22
REMARK    9  A    between atoms: C_22  and  C_23
REMARK   10  A    between atoms: C_22  and  C_24
REMARK   11  A    between atoms: C_22  and  C_25
REMARK                            x       y       z     vdW  Elec       q    Type
REMARK                         _______ _______ _______ _____ _____    ______ ____
ROOT
ATOM      1  N   UNL     1       2.816   5.036  18.315  0.00  0.00    +0.000 N 
ATOM      2  C   UNL     1       2.544   6.416  18.185  0.00  0.00    +0.000 A 
ATOM      3  C   UNL     1       1.991   7.242  19.086  0.00  0.00    +0.000 A 
ATOM      4  C   UNL     1       1.586   6.612  20.345  0.00  0.00    +0.000 A 
ATOM      5  O   UNL     1       0.978   7.227  21.222  0.00  0.00    +0.000 OA
ATOM      6  C   UNL     1       1.964   5.192  20.554  0.00  0.00    +0.000 A 
ATOM      7  C   UNL     1       2.586   4.440  19.607  0.00  0.00    +0.000 A 
ENDROOT
BRANCH   3   8
ATOM      8  C   UNL     1       1.907   8.692  18.772  0.00  0.00    +0.000 C 
ATOM      9  O   UNL     1       2.649   9.179  17.921  0.00  0.00    +0.000 OA
ATOM     10  N   UNL     1       0.997   9.454  19.482  0.00  0.00    +0.000 N 
ATOM     11  H   UNL     1       0.509   9.021  20.269  0.00  0.00    +0.000 HD
BRANCH  10  12
ATOM     12  C   UNL     1       0.994  10.910  19.326  0.00  0.00    +0.000 C 
ATOM     13  C   UNL     1      -0.166  11.446  18.468  0.00  0.00    +0.000 C 
ATOM     14  C   UNL     1      -1.402  11.939  19.217  0.00  0.00    +0.000 C 
ATOM     15  C   UNL     1      -1.060  12.744  20.462  0.00  0.00    +0.000 C 
ATOM     16  C   UNL     1      -0.162  11.924  21.376  0.00  0.00    +0.000 C 
ATOM     17  C   UNL     1       1.158  11.610  20.682  0.00  0.00    +0.000 C 
ENDBRANCH  10  12
ENDBRANCH   3   8
BRANCH   7  18
ATOM     18  C   UNL     1       2.982   2.966  20.038  0.00  0.00    +0.000 C 
ATOM     19  C   UNL     1       2.172   1.967  19.188  0.00  0.00    +0.000 C 
ATOM     20  C   UNL     1       4.479   2.607  19.951  0.00  0.00    +0.000 C 
ATOM     21  C   UNL     1       2.637   2.640  21.536  0.00  0.00    +0.000 C 
ENDBRANCH   7  18
BRANCH   1  22
ATOM     22  C   UNL     1       3.472   4.429  17.125  0.00  0.00    +0.000 C 
BRANCH  22  23
ATOM     23  C   UNL     1       4.961   4.752  16.938  0.00  0.00    +0.000 C 
BRANCH  23  24
ATOM     24  C   UNL     1       5.366   5.627  15.736  0.00  0.00    +0.000 C 
BRANCH  24  26
ATOM     25  C   UNL     1       6.087   3.934  13.940  0.00  0.00    +0.000 C 
ATOM     26  C   UNL     1       6.528   4.958  14.977  0.00  0.00    +0.000 C 
ENDBRANCH  24  26
ENDBRANCH  23  24
ENDBRANCH  22  23
ENDBRANCH   1  22
TORSDOF 7
ENDMDL
MODEL 6
REMARK VINA RESULT:      -6.4      1.652      8.049
REMARK  Name = 
REMARK  11 active torsions:
REMARK  status: ('A' for Active; 'I' for Inactive)
REMARK    1  A    between atoms: C_1  and  C_2
REMARK    2  A    between atoms: C_2  and  C_3
REMARK    3  A    between atoms: C_3  and  C_4
REMARK    4  A    between atoms: C_4  and  C_5
REMARK    5  A    between atoms: C_5  and  N_6
REMARK    6  A    between atoms: C_8  and  C_9
REMARK    7  A    between atoms: N_11  and  C_12
REMARK    8  A    between atoms: C_21  and  C_22
REMARK    9  A    between atoms: C_22  and  C_23
REMARK   10  A    between atoms: C_22  and  C_24
REMARK   11  A    between atoms: C_22  and  C_25
REMARK                            x       y       z     vdW  Elec       q    Type
REMARK                         _______ _______ _______ _____ _____    ______ ____
ROOT
ATOM      1  N   UNL     1       0.296  11.582  19.838  0.00  0.00    +0.000 N 
ATOM      2  C   UNL     1       1.002  10.602  19.106  0.00  0.00    +0.000 A 
ATOM      3  C   UNL     1       1.350   9.365  19.496  0.00  0.00    +0.000 A 
ATOM      4  C   UNL     1       0.980   9.015  20.868  0.00  0.00    +0.000 A 
ATOM      5  O   UNL     1       1.320   7.953  21.390  0.00  0.00    +0.000 OA
ATOM      6  C   UNL     1       0.138   9.980  21.619  0.00  0.00    +0.000 A 
ATOM      7  C   UNL     1      -0.228  11.192  21.123  0.00  0.00    +0.000 A 
ENDROOT
BRANCH   3   8
ATOM      8  C   UNL     1       1.993   8.459  18.509  0.00  0.00    +0.000 C 
ATOM      9  O   UNL     1       2.059   8.788  17.326  0.00  0.00    +0.000 OA
ATOM     10  N   UNL     1       2.476   7.246  18.967  0.00  0.00    +0.000 N 
ATOM     11  H   UNL     1       2.268   6.972  19.930  0.00  0.00    +0.000 HD
BRANCH  10  12
ATOM     12  C   UNL     1       2.967   6.254  18.008  0.00  0.00    +0.000 C 
ATOM     13  C   UNL     1       4.462   5.922  18.158  0.00  0.00    +0.000 C 
ATOM     14  C   UNL     1       4.810   4.687  18.986  0.00  0.00    +0.000 C 
ATOM     15  C   UNL     1       3.885   3.510  18.714  0.00  0.00    +0.000 C 
ATOM     16  C   UNL     1       2.441   3.925  18.942  0.00  0.00    +0.000 C 
ATOM     17  C   UNL     1       2.045   5.027  17.966  0.00  0.00    +0.000 C 
ENDBRANCH  10  12
ENDBRANCH   3   8
BRANCH   7  18
ATOM     18  C   UNL     1      -1.193  12.056  22.037  0.00  0.00    +0.000 C 
ATOM     19  C   UNL     1      -1.594  11.217  23.268  0.00  0.00    +0.000 C 
ATOM     20  C   UNL     1      -0.649  13.419  22.511  0.00  0.00    +0.000 C 
ATOM     21  C   UNL     1      -2.538  12.451  21.326  0.00  0.00    +0.000 C 
ENDBRANCH   7  18
BRANCH   1  22
ATOM     22  C   UNL     1       0.048  12.842  19.087  0.00  0.00    +0.000 C 
BRANCH  22  23
ATOM     23  C   UNL     1      -0.923  12.740  17.900  0.00  0.00    +0.000 C 
BRANCH  23  24
ATOM     24  C   UNL     1      -2.094  11.745  18.008  0.00  0.00    +0.000 C 
BRANCH  24  26
ATOM     25  C   UNL     1      -3.013   9.752  16.668  0.00  0.00    +0.000 C 
ATOM     26  C   UNL     1      -2.386  11.138  16.622  0.00  0.00    +0.000 C 
ENDBRANCH  24  26
ENDBRANCH  23  24
ENDBRANCH  22  23
ENDBRANCH   1  22
TORSDOF 7
ENDMDL
MODEL 7
REMARK VINA RESULT:      -6.4      1.281      3.871
REMARK  Name = 
REMARK  11 active torsions:
REMARK  status: ('A' for Active; 'I' for Inactive)
REMARK    1  A    between atoms: C_1  and  C_2
REMARK    2  A    between atoms: C_2  and  C_3
REMARK    3  A    between atoms: C_3  and  C_4
REMARK    4  A    between atoms: C_4  and  C_5
REMARK    5  A    between atoms: C_5  and  N_6
REMARK    6  A    between atoms: C_8  and  C_9
REMARK    7  A    between atoms: N_11  and  C_12
REMARK    8  A    between atoms: C_21  and  C_22
REMARK    9  A    between atoms: C_22  and  C_23
REMARK   10  A    between atoms: C_22  and  C_24
REMARK   11  A    between atoms: C_22  and  C_25
REMARK                            x       y       z     vdW  Elec       q    Type
REMARK                         _______ _______ _______ _____ _____    ______ ____
ROOT
ATOM      1  N   UNL     1       2.978   5.151  18.235  0.00  0.00    +0.000 N 
ATOM      2  C   UNL     1       2.636   6.517  18.137  0.00  0.00    +0.000 A 
ATOM      3  C   UNL     1       2.044   7.293  19.058  0.00  0.00    +0.000 A 
ATOM      4  C   UNL     1       1.674   6.616  20.302  0.00  0.00    +0.000 A 
ATOM      5  O   UNL     1       1.039   7.178  21.194  0.00  0.00    +0.000 OA
ATOM      6  C   UNL     1       2.125   5.212  20.477  0.00  0.00    +0.000 A 
ATOM      7  C   UNL     1       2.782   4.515  19.513  0.00  0.00    +0.000 A 
ENDROOT
BRANCH   3   8
ATOM      8  C   UNL     1       1.885   8.744  18.776  0.00  0.00    +0.000 C 
ATOM      9  O   UNL     1       2.558   9.275  17.895  0.00  0.00    +0.000 OA
ATOM     10  N   UNL     1       0.989   9.457  19.552  0.00  0.00    +0.000 N 
ATOM     11  H   UNL     1       0.564   8.991  20.356  0.00  0.00    +0.000 HD
BRANCH  10  12
ATOM     12  C   UNL     1       0.920  10.914  19.424  0.00  0.00    +0.000 C 
ATOM     13  C   UNL     1      -0.268  11.415  18.584  0.00  0.00    +0.000 C 
ATOM     14  C   UNL     1      -1.519  11.837  19.351  0.00  0.00    +0.000 C 
ATOM     15  C   UNL     1      -1.204  12.633  20.610  0.00  0.00    +0.000 C 
ATOM     16  C   UNL     1      -0.265  11.836  21.501  0.00  0.00    +0.000 C 
ATOM     17  C   UNL     1       1.063  11.594  20.793  0.00  0.00    +0.000 C 
ENDBRANCH  10  12
ENDBRANCH   3   8
BRANCH   7  18
ATOM     18  C   UNL     1       3.253   3.053  19.910  0.00  0.00    +0.000 C 
ATOM     19  C   UNL     1       4.787   2.975  19.783  0.00  0.00    +0.000 C 
ATOM     20  C   UNL     1       2.835   2.556  21.309  0.00  0.00    +0.000 C 
ATOM     21  C   UNL     1       2.682   1.936  18.963  0.00  0.00    +0.000 C 
ENDBRANCH   7  18
BRANCH   1  22
ATOM     22  C   UNL     1       3.661   4.605  17.030  0.00  0.00    +0.000 C 
BRANCH  22  23
ATOM     23  C   UNL     1       5.011   5.243  16.673  0.00  0.00    +0.000 C 
BRANCH  23  24
ATOM     24  C   UNL     1       6.203   4.307  16.396  0.00  0.00    +0.000 C 
BRANCH  24  26
ATOM     25  C   UNL     1       7.357   6.053  17.890  0.00  0.00    +0.000 C 
ATOM     26  C   UNL     1       7.344   4.617  17.383  0.00  0.00    +0.000 C 
ENDBRANCH  24  26
ENDBRANCH  23  24
ENDBRANCH  22  23
ENDBRANCH   1  22
TORSDOF 7
ENDMDL
MODEL 8
REMARK VINA RESULT:      -6.4      1.751      8.053
REMARK  Name = 
REMARK  11 active torsions:
REMARK  status: ('A' for Active; 'I' for Inactive)
REMARK    1  A    between atoms: C_1  and  C_2
REMARK    2  A    between atoms: C_2  and  C_3
REMARK    3  A    between atoms: C_3  and  C_4
REMARK    4  A    between atoms: C_4  and  C_5
REMARK    5  A    between atoms: C_5  and  N_6
REMARK    6  A    between atoms: C_8  and  C_9
REMARK    7  A    between atoms: N_11  and  C_12
REMARK    8  A    between atoms: C_21  and  C_22
REMARK    9  A    between atoms: C_22  and  C_23
REMARK   10  A    between atoms: C_22  and  C_24
REMARK   11  A    between atoms: C_22  and  C_25
REMARK                            x       y       z     vdW  Elec       q    Type
REMARK                         _______ _______ _______ _____ _____    ______ ____
ROOT
ATOM      1  N   UNL     1      -0.066  11.445  19.617  0.00  0.00    +0.000 N 
ATOM      2  C   UNL     1       0.708  10.478  18.939  0.00  0.00    +0.000 A 
ATOM      3  C   UNL     1       1.291   9.378  19.442  0.00  0.00    +0.000 A 
ATOM      4  C   UNL     1       1.129   9.191  20.885  0.00  0.00    +0.000 A 
ATOM      5  O   UNL     1       1.690   8.281  21.497  0.00  0.00    +0.000 OA
ATOM      6  C   UNL     1       0.226  10.126  21.601  0.00  0.00    +0.000 A 
ATOM      7  C   UNL     1      -0.381  11.183  20.998  0.00  0.00    +0.000 A 
ENDROOT
BRANCH   3   8
ATOM      8  C   UNL     1       1.965   8.436  18.512  0.00  0.00    +0.000 C 
ATOM      9  O   UNL     1       2.123   8.745  17.332  0.00  0.00    +0.000 OA
ATOM     10  N   UNL     1       2.371   7.213  19.015  0.00  0.00    +0.000 N 
ATOM     11  H   UNL     1       2.089   6.960  19.965  0.00  0.00    +0.000 HD
BRANCH  10  12
ATOM     12  C   UNL     1       2.887   6.190  18.103  0.00  0.00    +0.000 C 
ATOM     13  C   UNL     1       4.340   5.769  18.391  0.00  0.00    +0.000 C 
ATOM     14  C   UNL     1       4.534   4.517  19.243  0.00  0.00    +0.000 C 
ATOM     15  C   UNL     1       3.569   3.397  18.883  0.00  0.00    +0.000 C 
ATOM     16  C   UNL     1       2.137   3.900  18.977  0.00  0.00    +0.000 C 
ATOM     17  C   UNL     1       1.901   5.021  17.972  0.00  0.00    +0.000 C 
ENDBRANCH  10  12
ENDBRANCH   3   8
BRANCH   7  18
ATOM     18  C   UNL     1      -1.372  12.026  21.904  0.00  0.00    +0.000 C 
ATOM     19  C   UNL     1      -0.670  13.333  22.324  0.00  0.00    +0.000 C 
ATOM     20  C   UNL     1      -2.743  12.365  21.286  0.00  0.00    +0.000 C 
ATOM     21  C   UNL     1      -1.768  11.299  23.240  0.00  0.00    +0.000 C 
ENDBRANCH   7  18
BRANCH   1  22
ATOM     22  C   UNL     1      -0.592  12.527  18.741  0.00  0.00    +0.000 C 
BRANCH  22  23
ATOM     23  C   UNL     1      -1.619  12.098  17.683  0.00  0.00    +0.000 C 
BRANCH  23  24
ATOM     24  C   UNL     1      -2.539  10.906  18.008  0.00  0.00    +0.000 C 
BRANCH  24  26
ATOM     25  C   UNL     1      -2.824  10.647  15.466  0.00  0.00    +0.000 C 
ATOM     26  C   UNL     1      -3.500  10.658  16.830  0.00  0.00    +0.000 C 
ENDBRANCH  24  26
ENDBRANCH  23  24
ENDBRANCH  22  23
ENDBRANCH   1  22
TORSDOF 7
ENDMDL
MODEL 9
REMARK VINA RESULT:      -6.4      1.250      3.875
REMARK  Name = 
REMARK  11 active torsions:
REMARK  status: ('A' for Active; 'I' for Inactive)
REMARK    1  A    between atoms: C_1  and  C_2
REMARK    2  A    between atoms: C_2  and  C_3
REMARK    3  A    between atoms: C_3  and  C_4
REMARK    4  A    between atoms: C_4  and  C_5
REMARK    5  A    between atoms: C_5  and  N_6
REMARK    6  A    between atoms: C_8  and  C_9
REMARK    7  A    between atoms: N_11  and  C_12
REMARK    8  A    between atoms: C_21  and  C_22
REMARK    9  A    between atoms: C_22  and  C_23
REMARK   10  A    between atoms: C_22  and  C_24
REMARK   11  A    between atoms: C_22  and  C_25
REMARK                            x       y       z     vdW  Elec       q    Type
REMARK                         _______ _______ _______ _____ _____    ______ ____
ROOT
ATOM      1  N   UNL     1       2.592   4.932  18.346  0.00  0.00    +0.000 N 
ATOM      2  C   UNL     1       2.363   6.318  18.205  0.00  0.00    +0.000 A 
ATOM      3  C   UNL     1       1.944   7.189  19.136  0.00  0.00    +0.000 A 
ATOM      4  C   UNL     1       1.655   6.609  20.449  0.00  0.00    +0.000 A 
ATOM      5  O   UNL     1       1.173   7.271  21.369  0.00  0.00    +0.000 OA
ATOM      6  C   UNL     1       1.998   5.180  20.658  0.00  0.00    +0.000 A 
ATOM      7  C   UNL     1       2.482   4.379  19.673  0.00  0.00    +0.000 A 
ENDROOT
BRANCH   3   8
ATOM      8  C   UNL     1       1.884   8.633  18.790  0.00  0.00    +0.000 C 
ATOM      9  O   UNL     1       2.640   9.091  17.935  0.00  0.00    +0.000 OA
ATOM     10  N   UNL     1       0.979   9.423  19.476  0.00  0.00    +0.000 N 
ATOM     11  H   UNL     1       0.478   9.014  20.268  0.00  0.00    +0.000 HD
BRANCH  10  12
ATOM     12  C   UNL     1       0.998  10.875  19.288  0.00  0.00    +0.000 C 
ATOM     13  C   UNL     1      -0.176  11.415  18.452  0.00  0.00    +0.000 C 
ATOM     14  C   UNL     1      -1.380  11.947  19.226  0.00  0.00    +0.000 C 
ATOM     15  C   UNL     1      -0.987  12.771  20.443  0.00  0.00    +0.000 C 
ATOM     16  C   UNL     1      -0.079  11.954  21.348  0.00  0.00    +0.000 C 
ATOM     17  C   UNL     1       1.214  11.601  20.623  0.00  0.00    +0.000 C 
ENDBRANCH  10  12
ENDBRANCH   3   8
BRANCH   7  18
ATOM     18  C   UNL     1       2.864   2.901  20.101  0.00  0.00    +0.000 C 
ATOM     19  C   UNL     1       2.444   2.686  21.569  0.00  0.00    +0.000 C 
ATOM     20  C   UNL     1       2.279   1.765  19.237  0.00  0.00    +0.000 C 
ATOM     21  C   UNL     1       4.408   2.614  20.046  0.00  0.00    +0.000 C 
ENDBRANCH   7  18
BRANCH   1  22
ATOM     22  C   UNL     1       3.089   4.267  17.110  0.00  0.00    +0.000 C 
BRANCH  22  23
ATOM     23  C   UNL     1       4.607   4.310  16.885  0.00  0.00    +0.000 C 
BRANCH  23  24
ATOM     24  C   UNL     1       5.210   5.586  16.265  0.00  0.00    +0.000 C 
BRANCH  24  26
ATOM     25  C   UNL     1       6.219   5.558  18.630  0.00  0.00    +0.000 C 
ATOM     26  C   UNL     1       6.088   6.302  17.309  0.00  0.00    +0.000 C 
ENDBRANCH  24  26
ENDBRANCH  23  24
ENDBRANCH  22  23
ENDBRANCH   1  22
TORSDOF 7
ENDMDL
