MODEL 1
REMARK VINA RESULT:      -8.1      0.000      0.000
REMARK  Name = 
REMARK  7 active torsions:
REMARK  status: ('A' for Active; 'I' for Inactive)
REMARK    1  A    between atoms: C_1  and  O_2
REMARK    2  A    between atoms: O_2  and  C_3
REMARK    3  A    between atoms: C_6  and  N_7
REMARK    4  A    between atoms: C_11  and  S_12
REMARK    5  A    between atoms: S_12  and  C_13
REMARK    6  A    between atoms: C_13  and  C_14
REMARK    7  A    between atoms: C_14  and  C_16
REMARK                            x       y       z     vdW  Elec       q    Type
REMARK                         _______ _______ _______ _____ _____    ______ ____
ROOT
ATOM      1  S   UNL     1       2.001   5.142  19.040  0.00  0.00    +0.000 S 
ENDROOT
BRANCH   1   6
ATOM      2  N   UNL     1       4.356   3.605  19.106  0.00  0.00    +0.000 N 
ATOM      3  N   UNL     1       4.817   2.558  19.851  0.00  0.00    +0.000 NA
ATOM      4  N   UNL     1       3.903   2.316  20.776  0.00  0.00    +0.000 NA
ATOM      5  N   UNL     1       2.846   3.168  20.657  0.00  0.00    +0.000 NA
ATOM      6  C   UNL     1       3.115   3.959  19.642  0.00  0.00    +0.000 A 
BRANCH   2  10
ATOM      7  C   UNL     1       6.786   4.887  15.849  0.00  0.00    +0.000 A 
ATOM      8  C   UNL     1       7.190   5.087  17.166  0.00  0.00    +0.000 A 
ATOM      9  C   UNL     1       6.378   4.678  18.231  0.00  0.00    +0.000 A 
ATOM     10  C   UNL     1       5.128   4.071  17.995  0.00  0.00    +0.000 A 
ATOM     11  C   UNL     1       4.706   3.946  16.669  0.00  0.00    +0.000 A 
ATOM     12  C   UNL     1       5.530   4.344  15.606  0.00  0.00    +0.000 A 
BRANCH   7  14
ATOM     13  C   UNL     1       7.307   4.901  13.554  0.00  0.00    +0.000 C 
ATOM     14  O   UNL     1       7.657   5.297  14.879  0.00  0.00    +0.000 OA
ENDBRANCH   7  14
ENDBRANCH   2  10
ENDBRANCH   1   6
BRANCH   1  15
ATOM     15  C   UNL     1       2.802   6.703  19.514  0.00  0.00    +0.000 C 
BRANCH  15  16
ATOM     16  C   UNL     1       2.018   7.930  19.075  0.00  0.00    +0.000 C 
ATOM     17  O   UNL     1       1.924   8.285  17.902  0.00  0.00    +0.000 OA
BRANCH  16  18
ATOM     18  C   UNL     1       1.317   8.735  20.125  0.00  0.00    +0.000 A 
ATOM     19  C   UNL     1       1.143   8.294  21.446  0.00  0.00    +0.000 A 
ATOM     20  C   UNL     1       0.528   9.129  22.390  0.00  0.00    +0.000 A 
ATOM     21  C   UNL     1       0.081  10.397  22.024  0.00  0.00    +0.000 A 
ATOM     22  C   UNL     1       0.198  10.805  20.700  0.00  0.00    +0.000 A 
ATOM     23  C   UNL     1       0.822   9.991  19.758  0.00  0.00    +0.000 A 
ATOM     24  O   UNL     1      -0.289  12.005  20.251  0.00  0.00    +0.000 OA
ATOM     25  C   UNL     1      -0.244  12.972  21.297  0.00  0.00    +0.000 C 
ATOM     26  C   UNL     1      -0.886  12.467  22.582  0.00  0.00    +0.000 C 
ATOM     27  O   UNL     1      -0.425  11.184  23.019  0.00  0.00    +0.000 OA
ENDBRANCH  16  18
ENDBRANCH  15  16
ENDBRANCH   1  15
TORSDOF 6
ENDMDL
MODEL 2
REMARK VINA RESULT:      -8.0      0.878      1.531
REMARK  Name = 
REMARK  7 active torsions:
REMARK  status: ('A' for Active; 'I' for Inactive)
REMARK    1  A    between atoms: C_1  and  O_2
REMARK    2  A    between atoms: O_2  and  C_3
REMARK    3  A    between atoms: C_6  and  N_7
REMARK    4  A    between atoms: C_11  and  S_12
REMARK    5  A    between atoms: S_12  and  C_13
REMARK    6  A    between atoms: C_13  and  C_14
REMARK    7  A    between atoms: C_14  and  C_16
REMARK                            x       y       z     vdW  Elec       q    Type
REMARK                         _______ _______ _______ _____ _____    ______ ____
ROOT
ATOM      1  S   UNL     1       2.043   5.321  18.665  0.00  0.00    +0.000 S 
ENDROOT
BRANCH   1   6
ATOM      2  N   UNL     1       4.379   3.765  18.852  0.00  0.00    +0.000 N 
ATOM      3  N   UNL     1       4.809   2.743  19.649  0.00  0.00    +0.000 NA
ATOM      4  N   UNL     1       3.868   2.546  20.558  0.00  0.00    +0.000 NA
ATOM      5  N   UNL     1       2.824   3.402  20.378  0.00  0.00    +0.000 NA
ATOM      6  C   UNL     1       3.129   4.151  19.341  0.00  0.00    +0.000 A 
BRANCH   2  10
ATOM      7  C   UNL     1       6.918   4.924  15.633  0.00  0.00    +0.000 A 
ATOM      8  C   UNL     1       7.163   5.363  16.931  0.00  0.00    +0.000 A 
ATOM      9  C   UNL     1       6.314   4.990  17.982  0.00  0.00    +0.000 A 
ATOM     10  C   UNL     1       5.185   4.180  17.746  0.00  0.00    +0.000 A 
ATOM     11  C   UNL     1       4.914   3.812  16.426  0.00  0.00    +0.000 A 
ATOM     12  C   UNL     1       5.776   4.174  15.380  0.00  0.00    +0.000 A 
BRANCH   7  14
ATOM     13  C   UNL     1       7.449   4.994  13.342  0.00  0.00    +0.000 C 
ATOM     14  O   UNL     1       7.816   5.319  14.681  0.00  0.00    +0.000 OA
ENDBRANCH   7  14
ENDBRANCH   2  10
ENDBRANCH   1   6
BRANCH   1  15
ATOM     15  C   UNL     1       2.753   6.889  19.249  0.00  0.00    +0.000 C 
BRANCH  15  16
ATOM     16  C   UNL     1       2.251   8.095  18.469  0.00  0.00    +0.000 C 
ATOM     17  O   UNL     1       2.541   8.304  17.294  0.00  0.00    +0.000 OA
BRANCH  16  18
ATOM     18  C   UNL     1       1.350   9.064  19.169  0.00  0.00    +0.000 A 
ATOM     19  C   UNL     1       0.531   9.981  18.492  0.00  0.00    +0.000 A 
ATOM     20  C   UNL     1      -0.332  10.819  19.215  0.00  0.00    +0.000 A 
ATOM     21  C   UNL     1      -0.377  10.752  20.606  0.00  0.00    +0.000 A 
ATOM     22  C   UNL     1       0.483   9.887  21.275  0.00  0.00    +0.000 A 
ATOM     23  C   UNL     1       1.331   9.039  20.568  0.00  0.00    +0.000 A 
ATOM     24  O   UNL     1       0.549   9.825  22.643  0.00  0.00    +0.000 OA
ATOM     25  C   UNL     1      -0.720  10.140  23.208  0.00  0.00    +0.000 C 
ATOM     26  C   UNL     1      -1.293  11.440  22.660  0.00  0.00    +0.000 C 
ATOM     27  O   UNL     1      -1.305  11.534  21.232  0.00  0.00    +0.000 OA
ENDBRANCH  16  18
ENDBRANCH  15  16
ENDBRANCH   1  15
TORSDOF 6
ENDMDL
MODEL 3
REMARK VINA RESULT:      -8.0      2.635      9.121
REMARK  Name = 
REMARK  7 active torsions:
REMARK  status: ('A' for Active; 'I' for Inactive)
REMARK    1  A    between atoms: C_1  and  O_2
REMARK    2  A    between atoms: O_2  and  C_3
REMARK    3  A    between atoms: C_6  and  N_7
REMARK    4  A    between atoms: C_11  and  S_12
REMARK    5  A    between atoms: S_12  and  C_13
REMARK    6  A    between atoms: C_13  and  C_14
REMARK    7  A    between atoms: C_14  and  C_16
REMARK                            x       y       z     vdW  Elec       q    Type
REMARK                         _______ _______ _______ _____ _____    ______ ____
ROOT
ATOM      1  S   UNL     1       2.292   6.074  20.249  0.00  0.00    +0.000 S 
ENDROOT
BRANCH   1   6
ATOM      2  N   UNL     1       1.643   8.671  19.385  0.00  0.00    +0.000 N 
ATOM      3  N   UNL     1       1.778   9.374  18.222  0.00  0.00    +0.000 NA
ATOM      4  N   UNL     1       2.435   8.595  17.378  0.00  0.00    +0.000 NA
ATOM      5  N   UNL     1       2.729   7.392  17.947  0.00  0.00    +0.000 NA
ATOM      6  C   UNL     1       2.251   7.431  19.172  0.00  0.00    +0.000 A 
BRANCH   2  10
ATOM      7  C   UNL     1      -0.581  10.482  22.535  0.00  0.00    +0.000 A 
ATOM      8  C   UNL     1       0.024  11.256  21.549  0.00  0.00    +0.000 A 
ATOM      9  C   UNL     1       0.767  10.654  20.526  0.00  0.00    +0.000 A 
ATOM     10  C   UNL     1       0.934   9.256  20.481  0.00  0.00    +0.000 A 
ATOM     11  C   UNL     1       0.383   8.502  21.520  0.00  0.00    +0.000 A 
ATOM     12  C   UNL     1      -0.373   9.108  22.533  0.00  0.00    +0.000 A 
BRANCH   7  14
ATOM     13  C   UNL     1      -2.299  12.037  22.950  0.00  0.00    +0.000 C 
ATOM     14  O   UNL     1      -1.306  11.158  23.476  0.00  0.00    +0.000 OA
ENDBRANCH   7  14
ENDBRANCH   2  10
ENDBRANCH   1   6
BRANCH   1  15
ATOM     15  C   UNL     1       1.997   4.678  19.124  0.00  0.00    +0.000 C 
BRANCH  15  16
ATOM     16  C   UNL     1       3.173   3.716  19.050  0.00  0.00    +0.000 C 
ATOM     17  O   UNL     1       3.201   2.641  19.644  0.00  0.00    +0.000 OA
BRANCH  16  18
ATOM     18  C   UNL     1       4.346   4.097  18.202  0.00  0.00    +0.000 A 
ATOM     19  C   UNL     1       5.590   4.473  18.731  0.00  0.00    +0.000 A 
ATOM     20  C   UNL     1       6.661   4.760  17.872  0.00  0.00    +0.000 A 
ATOM     21  C   UNL     1       6.498   4.679  16.491  0.00  0.00    +0.000 A 
ATOM     22  C   UNL     1       5.246   4.368  15.970  0.00  0.00    +0.000 A 
ATOM     23  C   UNL     1       4.180   4.065  16.813  0.00  0.00    +0.000 A 
ATOM     24  O   UNL     1       4.992   4.347  14.623  0.00  0.00    +0.000 OA
ATOM     25  C   UNL     1       6.168   3.976  13.910  0.00  0.00    +0.000 C 
ATOM     26  C   UNL     1       7.379   4.808  14.313  0.00  0.00    +0.000 C 
ATOM     27  O   UNL     1       7.609   4.884  15.725  0.00  0.00    +0.000 OA
ENDBRANCH  16  18
ENDBRANCH  15  16
ENDBRANCH   1  15
TORSDOF 6
ENDMDL
MODEL 4
REMARK VINA RESULT:      -7.9      1.580      2.434
REMARK  Name = 
REMARK  7 active torsions:
REMARK  status: ('A' for Active; 'I' for Inactive)
REMARK    1  A    between atoms: C_1  and  O_2
REMARK    2  A    between atoms: O_2  and  C_3
REMARK    3  A    between atoms: C_6  and  N_7
REMARK    4  A    between atoms: C_11  and  S_12
REMARK    5  A    between atoms: S_12  and  C_13
REMARK    6  A    between atoms: C_13  and  C_14
REMARK    7  A    between atoms: C_14  and  C_16
REMARK                            x       y       z     vdW  Elec       q    Type
REMARK                         _______ _______ _______ _____ _____    ______ ____
ROOT
ATOM      1  S   UNL     1       2.440   4.447  20.914  0.00  0.00    +0.000 S 
ENDROOT
BRANCH   1   6
ATOM      2  N   UNL     1       3.023   3.611  18.293  0.00  0.00    +0.000 N 
ATOM      3  N   UNL     1       2.409   2.824  17.361  0.00  0.00    +0.000 NA
ATOM      4  N   UNL     1       1.323   2.330  17.933  0.00  0.00    +0.000 NA
ATOM      5  N   UNL     1       1.196   2.777  19.214  0.00  0.00    +0.000 NA
ATOM      6  C   UNL     1       2.230   3.557  19.442  0.00  0.00    +0.000 A 
BRANCH   2  10
ATOM      7  C   UNL     1       6.488   5.845  17.222  0.00  0.00    +0.000 A 
ATOM      8  C   UNL     1       5.442   5.671  16.320  0.00  0.00    +0.000 A 
ATOM      9  C   UNL     1       4.314   4.921  16.674  0.00  0.00    +0.000 A 
ATOM     10  C   UNL     1       4.219   4.313  17.942  0.00  0.00    +0.000 A 
ATOM     11  C   UNL     1       5.310   4.436  18.805  0.00  0.00    +0.000 A 
ATOM     12  C   UNL     1       6.431   5.201  18.452  0.00  0.00    +0.000 A 
BRANCH   7  14
ATOM     13  C   UNL     1       7.801   7.763  17.595  0.00  0.00    +0.000 C 
ATOM     14  O   UNL     1       7.535   6.613  16.794  0.00  0.00    +0.000 OA
ENDBRANCH   7  14
ENDBRANCH   2  10
ENDBRANCH   1   6
BRANCH   1  15
ATOM     15  C   UNL     1       1.306   5.849  20.683  0.00  0.00    +0.000 C 
BRANCH  15  16
ATOM     16  C   UNL     1       1.980   7.061  20.057  0.00  0.00    +0.000 C 
ATOM     17  O   UNL     1       2.993   6.985  19.365  0.00  0.00    +0.000 OA
BRANCH  16  18
ATOM     18  C   UNL     1       1.368   8.408  20.286  0.00  0.00    +0.000 A 
ATOM     19  C   UNL     1       1.173   9.350  19.265  0.00  0.00    +0.000 A 
ATOM     20  C   UNL     1       0.539  10.569  19.545  0.00  0.00    +0.000 A 
ATOM     21  C   UNL     1       0.104  10.856  20.838  0.00  0.00    +0.000 A 
ATOM     22  C   UNL     1       0.357   9.947  21.859  0.00  0.00    +0.000 A 
ATOM     23  C   UNL     1       0.970   8.726  21.589  0.00  0.00    +0.000 A 
ATOM     24  O   UNL     1       0.029  10.196  23.167  0.00  0.00    +0.000 OA
ATOM     25  C   UNL     1      -1.124  11.030  23.231  0.00  0.00    +0.000 C 
ATOM     26  C   UNL     1      -0.988  12.275  22.363  0.00  0.00    +0.000 C 
ATOM     27  O   UNL     1      -0.584  12.022  21.013  0.00  0.00    +0.000 OA
ENDBRANCH  16  18
ENDBRANCH  15  16
ENDBRANCH   1  15
TORSDOF 6
ENDMDL
MODEL 5
REMARK VINA RESULT:      -7.8      1.484      1.728
REMARK  Name = 
REMARK  7 active torsions:
REMARK  status: ('A' for Active; 'I' for Inactive)
REMARK    1  A    between atoms: C_1  and  O_2
REMARK    2  A    between atoms: O_2  and  C_3
REMARK    3  A    between atoms: C_6  and  N_7
REMARK    4  A    between atoms: C_11  and  S_12
REMARK    5  A    between atoms: S_12  and  C_13
REMARK    6  A    between atoms: C_13  and  C_14
REMARK    7  A    between atoms: C_14  and  C_16
REMARK                            x       y       z     vdW  Elec       q    Type
REMARK                         _______ _______ _______ _____ _____    ______ ____
ROOT
ATOM      1  S   UNL     1       1.879   4.925  19.126  0.00  0.00    +0.000 S 
ENDROOT
BRANCH   1   6
ATOM      2  N   UNL     1       4.532   3.998  19.253  0.00  0.00    +0.000 N 
ATOM      3  N   UNL     1       5.143   2.838  19.634  0.00  0.00    +0.000 NA
ATOM      4  N   UNL     1       4.194   2.042  20.098  0.00  0.00    +0.000 NA
ATOM      5  N   UNL     1       2.971   2.639  20.024  0.00  0.00    +0.000 NA
ATOM      6  C   UNL     1       3.169   3.833  19.512  0.00  0.00    +0.000 A 
BRANCH   2  10
ATOM      7  C   UNL     1       6.989   7.003  17.496  0.00  0.00    +0.000 A 
ATOM      8  C   UNL     1       7.397   6.324  18.641  0.00  0.00    +0.000 A 
ATOM      9  C   UNL     1       6.576   5.349  19.222  0.00  0.00    +0.000 A 
ATOM     10  C   UNL     1       5.314   5.046  18.672  0.00  0.00    +0.000 A 
ATOM     11  C   UNL     1       4.891   5.790  17.568  0.00  0.00    +0.000 A 
ATOM     12  C   UNL     1       5.723   6.754  16.981  0.00  0.00    +0.000 A 
BRANCH   7  14
ATOM     13  C   UNL     1       8.260   8.942  17.901  0.00  0.00    +0.000 C 
ATOM     14  O   UNL     1       7.869   7.918  16.989  0.00  0.00    +0.000 OA
ENDBRANCH   7  14
ENDBRANCH   2  10
ENDBRANCH   1   6
BRANCH   1  15
ATOM     15  C   UNL     1       2.053   6.199  20.411  0.00  0.00    +0.000 C 
BRANCH  15  16
ATOM     16  C   UNL     1       1.896   7.612  19.870  0.00  0.00    +0.000 C 
ATOM     17  O   UNL     1       2.321   7.964  18.773  0.00  0.00    +0.000 OA
BRANCH  16  18
ATOM     18  C   UNL     1       1.176   8.616  20.716  0.00  0.00    +0.000 A 
ATOM     19  C   UNL     1       0.836   8.391  22.058  0.00  0.00    +0.000 A 
ATOM     20  C   UNL     1       0.214   9.403  22.805  0.00  0.00    +0.000 A 
ATOM     21  C   UNL     1      -0.075  10.634  22.219  0.00  0.00    +0.000 A 
ATOM     22  C   UNL     1       0.206  10.830  20.871  0.00  0.00    +0.000 A 
ATOM     23  C   UNL     1       0.838   9.839  20.125  0.00  0.00    +0.000 A 
ATOM     24  O   UNL     1      -0.122  11.985  20.209  0.00  0.00    +0.000 OA
ATOM     25  C   UNL     1      -0.087  13.089  21.108  0.00  0.00    +0.000 C 
ATOM     26  C   UNL     1      -0.894  12.834  22.375  0.00  0.00    +0.000 C 
ATOM     27  O   UNL     1      -0.598  11.597  23.033  0.00  0.00    +0.000 OA
ENDBRANCH  16  18
ENDBRANCH  15  16
ENDBRANCH   1  15
TORSDOF 6
ENDMDL
MODEL 6
REMARK VINA RESULT:      -7.7      2.686      4.318
REMARK  Name = 
REMARK  7 active torsions:
REMARK  status: ('A' for Active; 'I' for Inactive)
REMARK    1  A    between atoms: C_1  and  O_2
REMARK    2  A    between atoms: O_2  and  C_3
REMARK    3  A    between atoms: C_6  and  N_7
REMARK    4  A    between atoms: C_11  and  S_12
REMARK    5  A    between atoms: S_12  and  C_13
REMARK    6  A    between atoms: C_13  and  C_14
REMARK    7  A    between atoms: C_14  and  C_16
REMARK                            x       y       z     vdW  Elec       q    Type
REMARK                         _______ _______ _______ _____ _____    ______ ____
ROOT
ATOM      1  S   UNL     1       4.547   7.211  17.306  0.00  0.00    +0.000 S 
ENDROOT
BRANCH   1   6
ATOM      2  N   UNL     1       4.718   4.523  16.497  0.00  0.00    +0.000 N 
ATOM      3  N   UNL     1       5.398   3.836  15.532  0.00  0.00    +0.000 NA
ATOM      4  N   UNL     1       6.058   4.733  14.818  0.00  0.00    +0.000 NA
ATOM      5  N   UNL     1       5.841   5.993  15.289  0.00  0.00    +0.000 NA
ATOM      6  C   UNL     1       5.023   5.874  16.312  0.00  0.00    +0.000 A 
BRANCH   2  10
ATOM      7  C   UNL     1       2.407   2.508  19.455  0.00  0.00    +0.000 A 
ATOM      8  C   UNL     1       3.742   2.829  19.685  0.00  0.00    +0.000 A 
ATOM      9  C   UNL     1       4.499   3.477  18.701  0.00  0.00    +0.000 A 
ATOM     10  C   UNL     1       3.934   3.802  17.452  0.00  0.00    +0.000 A 
ATOM     11  C   UNL     1       2.616   3.406  17.212  0.00  0.00    +0.000 A 
ATOM     12  C   UNL     1       1.857   2.772  18.206  0.00  0.00    +0.000 A 
BRANCH   7  14
ATOM     13  C   UNL     1       1.815   2.587  21.731  0.00  0.00    +0.000 C 
ATOM     14  O   UNL     1       1.744   1.900  20.484  0.00  0.00    +0.000 OA
ENDBRANCH   7  14
ENDBRANCH   2  10
ENDBRANCH   1   6
BRANCH   1  15
ATOM     15  C   UNL     1       2.803   6.833  17.653  0.00  0.00    +0.000 C 
BRANCH  15  16
ATOM     16  C   UNL     1       2.454   6.945  19.129  0.00  0.00    +0.000 C 
ATOM     17  O   UNL     1       2.721   6.072  19.952  0.00  0.00    +0.000 OA
BRANCH  16  18
ATOM     18  C   UNL     1       1.762   8.186  19.601  0.00  0.00    +0.000 A 
ATOM     19  C   UNL     1       1.408   9.243  18.747  0.00  0.00    +0.000 A 
ATOM     20  C   UNL     1       0.709  10.349  19.251  0.00  0.00    +0.000 A 
ATOM     21  C   UNL     1       0.364  10.410  20.601  0.00  0.00    +0.000 A 
ATOM     22  C   UNL     1       0.773   9.391  21.454  0.00  0.00    +0.000 A 
ATOM     23  C   UNL     1       1.453   8.280  20.962  0.00  0.00    +0.000 A 
ATOM     24  O   UNL     1       0.539   9.422  22.805  0.00  0.00    +0.000 OA
ATOM     25  C   UNL     1      -0.665  10.134  23.076  0.00  0.00    +0.000 C 
ATOM     26  C   UNL     1      -0.700  11.496  22.395  0.00  0.00    +0.000 C 
ATOM     27  O   UNL     1      -0.394  11.474  20.996  0.00  0.00    +0.000 OA
ENDBRANCH  16  18
ENDBRANCH  15  16
ENDBRANCH   1  15
TORSDOF 6
ENDMDL
MODEL 7
REMARK VINA RESULT:      -7.7      3.924      5.437
REMARK  Name = 
REMARK  7 active torsions:
REMARK  status: ('A' for Active; 'I' for Inactive)
REMARK    1  A    between atoms: C_1  and  O_2
REMARK    2  A    between atoms: O_2  and  C_3
REMARK    3  A    between atoms: C_6  and  N_7
REMARK    4  A    between atoms: C_11  and  S_12
REMARK    5  A    between atoms: S_12  and  C_13
REMARK    6  A    between atoms: C_13  and  C_14
REMARK    7  A    between atoms: C_14  and  C_16
REMARK                            x       y       z     vdW  Elec       q    Type
REMARK                         _______ _______ _______ _____ _____    ______ ____
ROOT
ATOM      1  S   UNL     1       6.296   7.694  17.333  0.00  0.00    +0.000 S 
ENDROOT
BRANCH   1   6
ATOM      2  N   UNL     1       7.317   5.098  16.974  0.00  0.00    +0.000 N 
ATOM      3  N   UNL     1       8.038   4.220  17.732  0.00  0.00    +0.000 NA
ATOM      4  N   UNL     1       8.336   4.845  18.859  0.00  0.00    +0.000 NA
ATOM      5  N   UNL     1       7.824   6.107  18.873  0.00  0.00    +0.000 NA
ATOM      6  C   UNL     1       7.202   6.270  17.725  0.00  0.00    +0.000 A 
BRANCH   2  10
ATOM      7  C   UNL     1       5.995   3.786  13.142  0.00  0.00    +0.000 A 
ATOM      8  C   UNL     1       7.076   4.654  13.268  0.00  0.00    +0.000 A 
ATOM      9  C   UNL     1       7.494   5.094  14.530  0.00  0.00    +0.000 A 
ATOM     10  C   UNL     1       6.821   4.683  15.699  0.00  0.00    +0.000 A 
ATOM     11  C   UNL     1       5.693   3.872  15.547  0.00  0.00    +0.000 A 
ATOM     12  C   UNL     1       5.288   3.422  14.282  0.00  0.00    +0.000 A 
BRANCH   7  14
ATOM     13  C   UNL     1       5.951   2.024  11.583  0.00  0.00    +0.000 C 
ATOM     14  O   UNL     1       5.678   3.394  11.872  0.00  0.00    +0.000 OA
ENDBRANCH   7  14
ENDBRANCH   2  10
ENDBRANCH   1   6
BRANCH   1  15
ATOM     15  C   UNL     1       4.736   7.000  16.709  0.00  0.00    +0.000 C 
BRANCH  15  16
ATOM     16  C   UNL     1       3.525   7.443  17.515  0.00  0.00    +0.000 C 
ATOM     17  O   UNL     1       2.960   8.521  17.345  0.00  0.00    +0.000 OA
BRANCH  16  18
ATOM     18  C   UNL     1       2.991   6.512  18.558  0.00  0.00    +0.000 A 
ATOM     19  C   UNL     1       2.324   6.949  19.713  0.00  0.00    +0.000 A 
ATOM     20  C   UNL     1       1.798   6.014  20.617  0.00  0.00    +0.000 A 
ATOM     21  C   UNL     1       1.939   4.647  20.380  0.00  0.00    +0.000 A 
ATOM     22  C   UNL     1       2.656   4.220  19.267  0.00  0.00    +0.000 A 
ATOM     23  C   UNL     1       3.168   5.139  18.354  0.00  0.00    +0.000 A 
ATOM     24  O   UNL     1       2.902   2.896  19.012  0.00  0.00    +0.000 OA
ATOM     25  C   UNL     1       1.839   2.095  19.521  0.00  0.00    +0.000 C 
ATOM     26  C   UNL     1       1.518   2.411  20.976  0.00  0.00    +0.000 C 
ATOM     27  O   UNL     1       1.324   3.802  21.257  0.00  0.00    +0.000 OA
ENDBRANCH  16  18
ENDBRANCH  15  16
ENDBRANCH   1  15
TORSDOF 6
ENDMDL
MODEL 8
REMARK VINA RESULT:      -7.7      2.479      8.090
REMARK  Name = 
REMARK  7 active torsions:
REMARK  status: ('A' for Active; 'I' for Inactive)
REMARK    1  A    between atoms: C_1  and  O_2
REMARK    2  A    between atoms: O_2  and  C_3
REMARK    3  A    between atoms: C_6  and  N_7
REMARK    4  A    between atoms: C_11  and  S_12
REMARK    5  A    between atoms: S_12  and  C_13
REMARK    6  A    between atoms: C_13  and  C_14
REMARK    7  A    between atoms: C_14  and  C_16
REMARK                            x       y       z     vdW  Elec       q    Type
REMARK                         _______ _______ _______ _____ _____    ______ ____
ROOT
ATOM      1  S   UNL     1       2.211   2.905  17.812  0.00  0.00    +0.000 S 
ENDROOT
BRANCH   1   6
ATOM      2  N   UNL     1       1.996   4.495  20.122  0.00  0.00    +0.000 N 
ATOM      3  N   UNL     1       1.913   4.259  21.464  0.00  0.00    +0.000 NA
ATOM      4  N   UNL     1       1.866   2.946  21.619  0.00  0.00    +0.000 NA
ATOM      5  N   UNL     1       1.926   2.307  20.417  0.00  0.00    +0.000 NA
ATOM      6  C   UNL     1       2.003   3.245  19.499  0.00  0.00    +0.000 A 
BRANCH   2  10
ATOM      7  C   UNL     1       2.182   8.466  18.590  0.00  0.00    +0.000 A 
ATOM      8  C   UNL     1       2.554   7.378  17.806  0.00  0.00    +0.000 A 
ATOM      9  C   UNL     1       2.506   6.077  18.322  0.00  0.00    +0.000 A 
ATOM     10  C   UNL     1       2.097   5.841  19.650  0.00  0.00    +0.000 A 
ATOM     11  C   UNL     1       1.799   6.951  20.445  0.00  0.00    +0.000 A 
ATOM     12  C   UNL     1       1.834   8.250  19.918  0.00  0.00    +0.000 A 
BRANCH   7  14
ATOM     13  C   UNL     1       1.292  10.642  18.477  0.00  0.00    +0.000 C 
ATOM     14  O   UNL     1       2.239   9.693  17.991  0.00  0.00    +0.000 OA
ENDBRANCH   7  14
ENDBRANCH   2  10
ENDBRANCH   1   6
BRANCH   1  15
ATOM     15  C   UNL     1       3.913   2.271  17.751  0.00  0.00    +0.000 C 
BRANCH  15  16
ATOM     16  C   UNL     1       4.952   3.327  18.095  0.00  0.00    +0.000 C 
ATOM     17  O   UNL     1       5.223   3.655  19.248  0.00  0.00    +0.000 OA
BRANCH  16  18
ATOM     18  C   UNL     1       5.686   3.989  16.971  0.00  0.00    +0.000 A 
ATOM     19  C   UNL     1       6.680   4.960  17.166  0.00  0.00    +0.000 A 
ATOM     20  C   UNL     1       7.367   5.494  16.065  0.00  0.00    +0.000 A 
ATOM     21  C   UNL     1       7.065   5.069  14.772  0.00  0.00    +0.000 A 
ATOM     22  C   UNL     1       6.035   4.154  14.580  0.00  0.00    +0.000 A 
ATOM     23  C   UNL     1       5.358   3.605  15.666  0.00  0.00    +0.000 A 
ATOM     24  O   UNL     1       5.631   3.750  13.334  0.00  0.00    +0.000 OA
ATOM     25  C   UNL     1       6.731   3.779  12.430  0.00  0.00    +0.000 C 
ATOM     26  C   UNL     1       7.469   5.112  12.456  0.00  0.00    +0.000 C 
ATOM     27  O   UNL     1       7.837   5.567  13.763  0.00  0.00    +0.000 OA
ENDBRANCH  16  18
ENDBRANCH  15  16
ENDBRANCH   1  15
TORSDOF 6
ENDMDL
MODEL 9
REMARK VINA RESULT:      -7.6      1.091      1.947
REMARK  Name = 
REMARK  7 active torsions:
REMARK  status: ('A' for Active; 'I' for Inactive)
REMARK    1  A    between atoms: C_1  and  O_2
REMARK    2  A    between atoms: O_2  and  C_3
REMARK    3  A    between atoms: C_6  and  N_7
REMARK    4  A    between atoms: C_11  and  S_12
REMARK    5  A    between atoms: S_12  and  C_13
REMARK    6  A    between atoms: C_13  and  C_14
REMARK    7  A    between atoms: C_14  and  C_16
REMARK                            x       y       z     vdW  Elec       q    Type
REMARK                         _______ _______ _______ _____ _____    ______ ____
ROOT
ATOM      1  S   UNL     1       1.484   5.403  19.698  0.00  0.00    +0.000 S 
ENDROOT
BRANCH   1   6
ATOM      2  N   UNL     1       3.585   3.558  20.001  0.00  0.00    +0.000 N 
ATOM      3  N   UNL     1       3.852   2.514  20.840  0.00  0.00    +0.000 NA
ATOM      4  N   UNL     1       2.869   2.473  21.724  0.00  0.00    +0.000 NA
ATOM      5  N   UNL     1       1.954   3.454  21.488  0.00  0.00    +0.000 NA
ATOM      6  C   UNL     1       2.384   4.122  20.440  0.00  0.00    +0.000 A 
BRANCH   2  10
ATOM      7  C   UNL     1       6.088   4.448  16.671  0.00  0.00    +0.000 A 
ATOM      8  C   UNL     1       4.907   3.730  16.507  0.00  0.00    +0.000 A 
ATOM      9  C   UNL     1       4.098   3.427  17.609  0.00  0.00    +0.000 A 
ATOM     10  C   UNL     1       4.468   3.826  18.909  0.00  0.00    +0.000 A 
ATOM     11  C   UNL     1       5.693   4.480  19.063  0.00  0.00    +0.000 A 
ATOM     12  C   UNL     1       6.492   4.795  17.955  0.00  0.00    +0.000 A 
BRANCH   7  14
ATOM     13  C   UNL     1       6.224   4.199  14.335  0.00  0.00    +0.000 C 
ATOM     14  O   UNL     1       6.797   4.716  15.534  0.00  0.00    +0.000 OA
ENDBRANCH   7  14
ENDBRANCH   2  10
ENDBRANCH   1   6
BRANCH   1  15
ATOM     15  C   UNL     1       2.692   6.762  19.677  0.00  0.00    +0.000 C 
BRANCH  15  16
ATOM     16  C   UNL     1       2.269   7.918  18.782  0.00  0.00    +0.000 C 
ATOM     17  O   UNL     1       2.630   8.031  17.614  0.00  0.00    +0.000 OA
BRANCH  16  18
ATOM     18  C   UNL     1       1.358   8.959  19.355  0.00  0.00    +0.000 A 
ATOM     19  C   UNL     1       0.603   9.840  18.567  0.00  0.00    +0.000 A 
ATOM     20  C   UNL     1      -0.274  10.751  19.175  0.00  0.00    +0.000 A 
ATOM     21  C   UNL     1      -0.398  10.791  20.563  0.00  0.00    +0.000 A 
ATOM     22  C   UNL     1       0.400   9.959  21.342  0.00  0.00    +0.000 A 
ATOM     23  C   UNL     1       1.261   9.040  20.749  0.00  0.00    +0.000 A 
ATOM     24  O   UNL     1       0.389   9.999  22.712  0.00  0.00    +0.000 OA
ATOM     25  C   UNL     1      -0.900  10.386  23.179  0.00  0.00    +0.000 C 
ATOM     26  C   UNL     1      -1.406  11.655  22.504  0.00  0.00    +0.000 C 
ATOM     27  O   UNL     1      -1.336  11.640  21.074  0.00  0.00    +0.000 OA
ENDBRANCH  16  18
ENDBRANCH  15  16
ENDBRANCH   1  15
TORSDOF 6
ENDMDL
