MODEL 1
REMARK VINA RESULT:      -6.5      0.000      0.000
REMARK  Name = 
REMARK  8 active torsions:
REMARK  status: ('A' for Active; 'I' for Inactive)
REMARK    1  A    between atoms: C_2  and  C_3
REMARK    2  A    between atoms: C_3  and  C_4
REMARK    3  A    between atoms: C_6  and  C_7
REMARK    4  A    between atoms: C_10  and  O_11
REMARK    5  A    between atoms: O_11  and  C_12
REMARK    6  A    between atoms: C_13  and  O_14
REMARK    7  A    between atoms: O_14  and  C_15
REMARK    8  A    between atoms: C_15  and  C_16
REMARK                            x       y       z     vdW  Elec       q    Type
REMARK                         _______ _______ _______ _____ _____    ______ ____
ROOT
ATOM      1  C   UNL     1       4.538   5.913  17.413  0.00  0.00    +0.000 A 
ATOM      2  C   UNL     1       5.520   6.858  17.789  0.00  0.00    +0.000 A 
ATOM      3  C   UNL     1       6.825   6.746  17.323  0.00  0.00    +0.000 A 
ATOM      4  C   UNL     1       7.171   5.712  16.460  0.00  0.00    +0.000 A 
ATOM      5  C   UNL     1       6.211   4.781  16.038  0.00  0.00    +0.000 A 
ATOM      6  C   UNL     1       4.885   4.849  16.538  0.00  0.00    +0.000 A 
ENDROOT
BRANCH   3   7
ATOM      7  C   UNL     1       7.850   7.723  17.741  0.00  0.00    +0.000 C 
ATOM      8  O   UNL     1       7.672   8.931  17.652  0.00  0.00    +0.000 OA
ENDBRANCH   3   7
BRANCH   5   9
ATOM      9  O   UNL     1       6.561   3.771  15.175  0.00  0.00    +0.000 OA
ATOM     10  C   UNL     1       6.284   3.954  13.789  0.00  0.00    +0.000 C 
ENDBRANCH   5   9
BRANCH   1  11
ATOM     11  C   UNL     1       3.144   6.110  17.974  0.00  0.00    +0.000 C 
BRANCH  11  13
ATOM     12  C   UNL     1       2.011   6.210  20.232  0.00  0.00    +0.000 C 
ATOM     13  C   UNL     1       3.108   6.040  19.479  0.00  0.00    +0.000 C 
ENDBRANCH  11  13
ENDBRANCH   1  11
BRANCH   6  14
ATOM     14  O   UNL     1       3.856   3.965  16.246  0.00  0.00    +0.000 OA
BRANCH  14  15
ATOM     15  C   UNL     1       3.941   2.668  16.847  0.00  0.00    +0.000 C 
BRANCH  15  16
ATOM     16  C   UNL     1       3.278   2.536  18.206  0.00  0.00    +0.000 A 
ATOM     17  C   UNL     1       4.001   2.495  19.404  0.00  0.00    +0.000 A 
ATOM     18  C   UNL     1       3.330   2.499  20.634  0.00  0.00    +0.000 A 
ATOM     19  C   UNL     1       1.935   2.557  20.672  0.00  0.00    +0.000 A 
ATOM     20 CL   UNL     1       1.117   2.582  22.186  0.00  0.00    +0.000 Cl
ATOM     21  C   UNL     1       1.204   2.611  19.494  0.00  0.00    +0.000 A 
ATOM     22  C   UNL     1       1.871   2.608  18.270  0.00  0.00    +0.000 A 
ENDBRANCH  15  16
ENDBRANCH  14  15
ENDBRANCH   6  14
TORSDOF 7
ENDMDL
MODEL 2
REMARK VINA RESULT:      -6.1      2.612      5.051
REMARK  Name = 
REMARK  8 active torsions:
REMARK  status: ('A' for Active; 'I' for Inactive)
REMARK    1  A    between atoms: C_2  and  C_3
REMARK    2  A    between atoms: C_3  and  C_4
REMARK    3  A    between atoms: C_6  and  C_7
REMARK    4  A    between atoms: C_10  and  O_11
REMARK    5  A    between atoms: O_11  and  C_12
REMARK    6  A    between atoms: C_13  and  O_14
REMARK    7  A    between atoms: O_14  and  C_15
REMARK    8  A    between atoms: C_15  and  C_16
REMARK                            x       y       z     vdW  Elec       q    Type
REMARK                         _______ _______ _______ _____ _____    ______ ____
ROOT
ATOM      1  C   UNL     1       6.453   5.800  17.445  0.00  0.00    +0.000 A 
ATOM      2  C   UNL     1       6.897   5.568  16.123  0.00  0.00    +0.000 A 
ATOM      3  C   UNL     1       6.202   4.703  15.286  0.00  0.00    +0.000 A 
ATOM      4  C   UNL     1       5.047   4.074  15.736  0.00  0.00    +0.000 A 
ATOM      5  C   UNL     1       4.559   4.313  17.030  0.00  0.00    +0.000 A 
ATOM      6  C   UNL     1       5.278   5.155  17.916  0.00  0.00    +0.000 A 
ENDROOT
BRANCH   3   7
ATOM      7  C   UNL     1       6.687   4.446  13.914  0.00  0.00    +0.000 C 
ATOM      8  O   UNL     1       6.358   3.449  13.284  0.00  0.00    +0.000 OA
ENDBRANCH   3   7
BRANCH   5   9
ATOM      9  O   UNL     1       3.410   3.695  17.459  0.00  0.00    +0.000 OA
ATOM     10  C   UNL     1       3.493   2.322  17.833  0.00  0.00    +0.000 C 
ENDBRANCH   5   9
BRANCH   1  11
ATOM     11  C   UNL     1       7.275   6.754  18.289  0.00  0.00    +0.000 C 
BRANCH  11  13
ATOM     12  C   UNL     1       8.253   9.078  18.094  0.00  0.00    +0.000 C 
ATOM     13  C   UNL     1       7.641   8.015  17.549  0.00  0.00    +0.000 C 
ENDBRANCH  11  13
ENDBRANCH   1  11
BRANCH   6  14
ATOM     14  O   UNL     1       4.939   5.434  19.233  0.00  0.00    +0.000 OA
BRANCH  14  15
ATOM     15  C   UNL     1       3.538   5.501  19.528  0.00  0.00    +0.000 C 
BRANCH  15  16
ATOM     16  C   UNL     1       2.882   6.844  19.264  0.00  0.00    +0.000 A 
ATOM     17  C   UNL     1       2.916   7.475  18.015  0.00  0.00    +0.000 A 
ATOM     18  C   UNL     1       2.186   8.651  17.798  0.00  0.00    +0.000 A 
ATOM     19  C   UNL     1       1.410   9.194  18.824  0.00  0.00    +0.000 A 
ATOM     20 CL   UNL     1       0.500  10.629  18.546  0.00  0.00    +0.000 Cl
ATOM     21  C   UNL     1       1.355   8.574  20.065  0.00  0.00    +0.000 A 
ATOM     22  C   UNL     1       2.080   7.403  20.280  0.00  0.00    +0.000 A 
ENDBRANCH  15  16
ENDBRANCH  14  15
ENDBRANCH   6  14
TORSDOF 7
ENDMDL
MODEL 3
REMARK VINA RESULT:      -5.8      2.741      5.185
REMARK  Name = 
REMARK  8 active torsions:
REMARK  status: ('A' for Active; 'I' for Inactive)
REMARK    1  A    between atoms: C_2  and  C_3
REMARK    2  A    between atoms: C_3  and  C_4
REMARK    3  A    between atoms: C_6  and  C_7
REMARK    4  A    between atoms: C_10  and  O_11
REMARK    5  A    between atoms: O_11  and  C_12
REMARK    6  A    between atoms: C_13  and  O_14
REMARK    7  A    between atoms: O_14  and  C_15
REMARK    8  A    between atoms: C_15  and  C_16
REMARK                            x       y       z     vdW  Elec       q    Type
REMARK                         _______ _______ _______ _____ _____    ______ ____
ROOT
ATOM      1  C   UNL     1       5.703   6.073  16.961  0.00  0.00    +0.000 A 
ATOM      2  C   UNL     1       6.154   5.553  15.726  0.00  0.00    +0.000 A 
ATOM      3  C   UNL     1       5.690   4.328  15.262  0.00  0.00    +0.000 A 
ATOM      4  C   UNL     1       4.756   3.610  16.001  0.00  0.00    +0.000 A 
ATOM      5  C   UNL     1       4.261   4.117  17.212  0.00  0.00    +0.000 A 
ATOM      6  C   UNL     1       4.755   5.343  17.727  0.00  0.00    +0.000 A 
ENDROOT
BRANCH   3   7
ATOM      7  C   UNL     1       6.185   3.781  13.983  0.00  0.00    +0.000 C 
ATOM      8  O   UNL     1       6.866   4.445  13.211  0.00  0.00    +0.000 OA
ENDBRANCH   3   7
BRANCH   5   9
ATOM      9  O   UNL     1       3.329   3.405  17.928  0.00  0.00    +0.000 OA
ATOM     10  C   UNL     1       3.521   1.998  18.054  0.00  0.00    +0.000 C 
ENDBRANCH   5   9
BRANCH   1  11
ATOM     11  C   UNL     1       6.267   7.413  17.391  0.00  0.00    +0.000 C 
BRANCH  11  13
ATOM     12  C   UNL     1       8.081   6.454  18.870  0.00  0.00    +0.000 C 
ATOM     13  C   UNL     1       7.676   7.307  17.916  0.00  0.00    +0.000 C 
ENDBRANCH  11  13
ENDBRANCH   1  11
BRANCH   6  14
ATOM     14  O   UNL     1       4.392   5.928  18.931  0.00  0.00    +0.000 OA
BRANCH  14  15
ATOM     15  C   UNL     1       2.998   5.900  19.258  0.00  0.00    +0.000 C 
BRANCH  15  16
ATOM     16  C   UNL     1       2.284   7.237  19.180  0.00  0.00    +0.000 A 
ATOM     17  C   UNL     1       1.697   7.852  20.292  0.00  0.00    +0.000 A 
ATOM     18  C   UNL     1       1.163   9.143  20.185  0.00  0.00    +0.000 A 
ATOM     19  C   UNL     1       1.224   9.829  18.970  0.00  0.00    +0.000 A 
ATOM     20 CL   UNL     1       0.584  11.422  18.849  0.00  0.00    +0.000 Cl
ATOM     21  C   UNL     1       1.814   9.238  17.860  0.00  0.00    +0.000 A 
ATOM     22  C   UNL     1       2.347   7.955  17.967  0.00  0.00    +0.000 A 
ENDBRANCH  15  16
ENDBRANCH  14  15
ENDBRANCH   6  14
TORSDOF 7
ENDMDL
MODEL 4
REMARK VINA RESULT:      -5.8      2.610      4.941
REMARK  Name = 
REMARK  8 active torsions:
REMARK  status: ('A' for Active; 'I' for Inactive)
REMARK    1  A    between atoms: C_2  and  C_3
REMARK    2  A    between atoms: C_3  and  C_4
REMARK    3  A    between atoms: C_6  and  C_7
REMARK    4  A    between atoms: C_10  and  O_11
REMARK    5  A    between atoms: O_11  and  C_12
REMARK    6  A    between atoms: C_13  and  O_14
REMARK    7  A    between atoms: O_14  and  C_15
REMARK    8  A    between atoms: C_15  and  C_16
REMARK                            x       y       z     vdW  Elec       q    Type
REMARK                         _______ _______ _______ _____ _____    ______ ____
ROOT
ATOM      1  C   UNL     1       4.736   3.985  17.543  0.00  0.00    +0.000 A 
ATOM      2  C   UNL     1       5.113   3.524  16.261  0.00  0.00    +0.000 A 
ATOM      3  C   UNL     1       5.780   4.362  15.376  0.00  0.00    +0.000 A 
ATOM      4  C   UNL     1       6.106   5.660  15.755  0.00  0.00    +0.000 A 
ATOM      5  C   UNL     1       5.779   6.135  17.034  0.00  0.00    +0.000 A 
ATOM      6  C   UNL     1       5.057   5.312  17.936  0.00  0.00    +0.000 A 
ENDROOT
BRANCH   3   7
ATOM      7  C   UNL     1       6.148   3.881  14.029  0.00  0.00    +0.000 C 
ATOM      8  O   UNL     1       5.331   3.808  13.119  0.00  0.00    +0.000 OA
ENDBRANCH   3   7
BRANCH   5   9
ATOM      9  O   UNL     1       6.116   7.415  17.402  0.00  0.00    +0.000 OA
ATOM     10  C   UNL     1       7.501   7.723  17.547  0.00  0.00    +0.000 C 
ENDBRANCH   5   9
BRANCH   1  11
ATOM     11  C   UNL     1       4.007   3.004  18.440  0.00  0.00    +0.000 C 
BRANCH  11  13
ATOM     12  C   UNL     1       1.551   2.403  18.379  0.00  0.00    +0.000 C 
ATOM     13  C   UNL     1       2.761   2.449  17.799  0.00  0.00    +0.000 C 
ENDBRANCH  11  13
ENDBRANCH   1  11
BRANCH   6  14
ATOM     14  O   UNL     1       4.627   5.673  19.205  0.00  0.00    +0.000 OA
BRANCH  14  15
ATOM     15  C   UNL     1       3.216   5.601  19.443  0.00  0.00    +0.000 C 
BRANCH  15  16
ATOM     16  C   UNL     1       2.463   6.910  19.290  0.00  0.00    +0.000 A 
ATOM     17  C   UNL     1       1.855   7.568  20.366  0.00  0.00    +0.000 A 
ATOM     18  C   UNL     1       1.282   8.834  20.186  0.00  0.00    +0.000 A 
ATOM     19  C   UNL     1       1.325   9.452  18.935  0.00  0.00    +0.000 A 
ATOM     20 CL   UNL     1       0.637  11.016  18.725  0.00  0.00    +0.000 Cl
ATOM     21  C   UNL     1       1.934   8.818  17.860  0.00  0.00    +0.000 A 
ATOM     22  C   UNL     1       2.506   7.559  18.039  0.00  0.00    +0.000 A 
ENDBRANCH  15  16
ENDBRANCH  14  15
ENDBRANCH   6  14
TORSDOF 7
ENDMDL
MODEL 5
REMARK VINA RESULT:      -5.8      2.654      4.890
REMARK  Name = 
REMARK  8 active torsions:
REMARK  status: ('A' for Active; 'I' for Inactive)
REMARK    1  A    between atoms: C_2  and  C_3
REMARK    2  A    between atoms: C_3  and  C_4
REMARK    3  A    between atoms: C_6  and  C_7
REMARK    4  A    between atoms: C_10  and  O_11
REMARK    5  A    between atoms: O_11  and  C_12
REMARK    6  A    between atoms: C_13  and  O_14
REMARK    7  A    between atoms: O_14  and  C_15
REMARK    8  A    between atoms: C_15  and  C_16
REMARK                            x       y       z     vdW  Elec       q    Type
REMARK                         _______ _______ _______ _____ _____    ______ ____
ROOT
ATOM      1  C   UNL     1       6.403   5.655  17.550  0.00  0.00    +0.000 A 
ATOM      2  C   UNL     1       6.822   5.475  16.212  0.00  0.00    +0.000 A 
ATOM      3  C   UNL     1       6.231   4.505  15.411  0.00  0.00    +0.000 A 
ATOM      4  C   UNL     1       5.202   3.716  15.914  0.00  0.00    +0.000 A 
ATOM      5  C   UNL     1       4.738   3.897  17.226  0.00  0.00    +0.000 A 
ATOM      6  C   UNL     1       5.358   4.849  18.075  0.00  0.00    +0.000 A 
ENDROOT
BRANCH   3   7
ATOM      7  C   UNL     1       6.692   4.305  14.022  0.00  0.00    +0.000 C 
ATOM      8  O   UNL     1       6.022   3.701  13.195  0.00  0.00    +0.000 OA
ENDBRANCH   3   7
BRANCH   5   9
ATOM      9  O   UNL     1       3.713   3.120  17.708  0.00  0.00    +0.000 OA
ATOM     10  C   UNL     1       2.409   3.331  17.171  0.00  0.00    +0.000 C 
ENDBRANCH   5   9
BRANCH   1  11
ATOM     11  C   UNL     1       7.107   6.732  18.352  0.00  0.00    +0.000 C 
BRANCH  11  13
ATOM     12  C   UNL     1       8.054   9.023  17.853  0.00  0.00    +0.000 C 
ATOM     13  C   UNL     1       7.768   7.767  17.478  0.00  0.00    +0.000 C 
ENDBRANCH  11  13
ENDBRANCH   1  11
BRANCH   6  14
ATOM     14  O   UNL     1       5.035   5.091  19.403  0.00  0.00    +0.000 OA
BRANCH  14  15
ATOM     15  C   UNL     1       3.640   5.073  19.732  0.00  0.00    +0.000 C 
BRANCH  15  16
ATOM     16  C   UNL     1       2.883   6.352  19.427  0.00  0.00    +0.000 A 
ATOM     17  C   UNL     1       2.095   7.013  20.376  0.00  0.00    +0.000 A 
ATOM     18  C   UNL     1       1.521   8.256  20.075  0.00  0.00    +0.000 A 
ATOM     19  C   UNL     1       1.743   8.848  18.830  0.00  0.00    +0.000 A 
ATOM     20 CL   UNL     1       1.053  10.383  18.473  0.00  0.00    +0.000 Cl
ATOM     21  C   UNL     1       2.533   8.211  17.882  0.00  0.00    +0.000 A 
ATOM     22  C   UNL     1       3.105   6.976  18.182  0.00  0.00    +0.000 A 
ENDBRANCH  15  16
ENDBRANCH  14  15
ENDBRANCH   6  14
TORSDOF 7
ENDMDL
MODEL 6
REMARK VINA RESULT:      -5.7      1.517      1.608
REMARK  Name = 
REMARK  8 active torsions:
REMARK  status: ('A' for Active; 'I' for Inactive)
REMARK    1  A    between atoms: C_2  and  C_3
REMARK    2  A    between atoms: C_3  and  C_4
REMARK    3  A    between atoms: C_6  and  C_7
REMARK    4  A    between atoms: C_10  and  O_11
REMARK    5  A    between atoms: O_11  and  C_12
REMARK    6  A    between atoms: C_13  and  O_14
REMARK    7  A    between atoms: O_14  and  C_15
REMARK    8  A    between atoms: C_15  and  C_16
REMARK                            x       y       z     vdW  Elec       q    Type
REMARK                         _______ _______ _______ _____ _____    ______ ____
ROOT
ATOM      1  C   UNL     1       4.613   5.684  18.079  0.00  0.00    +0.000 A 
ATOM      2  C   UNL     1       5.762   6.040  18.821  0.00  0.00    +0.000 A 
ATOM      3  C   UNL     1       7.002   5.495  18.509  0.00  0.00    +0.000 A 
ATOM      4  C   UNL     1       7.128   4.610  17.445  0.00  0.00    +0.000 A 
ATOM      5  C   UNL     1       6.013   4.266  16.665  0.00  0.00    +0.000 A 
ATOM      6  C   UNL     1       4.730   4.774  16.995  0.00  0.00    +0.000 A 
ENDROOT
BRANCH   3   7
ATOM      7  C   UNL     1       8.193   5.853  19.306  0.00  0.00    +0.000 C 
ATOM      8  O   UNL     1       8.593   5.153  20.228  0.00  0.00    +0.000 OA
ENDBRANCH   3   7
BRANCH   5   9
ATOM      9  O   UNL     1       6.151   3.399  15.609  0.00  0.00    +0.000 OA
ATOM     10  C   UNL     1       6.253   3.956  14.300  0.00  0.00    +0.000 C 
ENDBRANCH   5   9
BRANCH   1  11
ATOM     11  C   UNL     1       3.302   6.323  18.493  0.00  0.00    +0.000 C 
BRANCH  11  13
ATOM     12  C   UNL     1       1.963   8.401  17.959  0.00  0.00    +0.000 C 
ATOM     13  C   UNL     1       3.078   7.663  17.840  0.00  0.00    +0.000 C 
ENDBRANCH  11  13
ENDBRANCH   1  11
BRANCH   6  14
ATOM     14  O   UNL     1       3.542   4.475  16.343  0.00  0.00    +0.000 OA
BRANCH  14  15
ATOM     15  C   UNL     1       3.004   3.166  16.569  0.00  0.00    +0.000 C 
BRANCH  15  16
ATOM     16  C   UNL     1       2.575   2.876  17.995  0.00  0.00    +0.000 A 
ATOM     17  C   UNL     1       3.459   2.412  18.976  0.00  0.00    +0.000 A 
ATOM     18  C   UNL     1       3.033   2.282  20.305  0.00  0.00    +0.000 A 
ATOM     19  C   UNL     1       1.727   2.626  20.660  0.00  0.00    +0.000 A 
ATOM     20 CL   UNL     1       1.216   2.483  22.298  0.00  0.00    +0.000 Cl
ATOM     21  C   UNL     1       0.842   3.100  19.702  0.00  0.00    +0.000 A 
ATOM     22  C   UNL     1       1.265   3.231  18.380  0.00  0.00    +0.000 A 
ENDBRANCH  15  16
ENDBRANCH  14  15
ENDBRANCH   6  14
TORSDOF 7
ENDMDL
MODEL 7
REMARK VINA RESULT:      -5.7      2.586      4.947
REMARK  Name = 
REMARK  8 active torsions:
REMARK  status: ('A' for Active; 'I' for Inactive)
REMARK    1  A    between atoms: C_2  and  C_3
REMARK    2  A    between atoms: C_3  and  C_4
REMARK    3  A    between atoms: C_6  and  C_7
REMARK    4  A    between atoms: C_10  and  O_11
REMARK    5  A    between atoms: O_11  and  C_12
REMARK    6  A    between atoms: C_13  and  O_14
REMARK    7  A    between atoms: O_14  and  C_15
REMARK    8  A    between atoms: C_15  and  C_16
REMARK                            x       y       z     vdW  Elec       q    Type
REMARK                         _______ _______ _______ _____ _____    ______ ____
ROOT
ATOM      1  C   UNL     1       4.557   4.009  17.407  0.00  0.00    +0.000 A 
ATOM      2  C   UNL     1       4.761   3.588  16.073  0.00  0.00    +0.000 A 
ATOM      3  C   UNL     1       5.357   4.437  15.147  0.00  0.00    +0.000 A 
ATOM      4  C   UNL     1       5.780   5.704  15.533  0.00  0.00    +0.000 A 
ATOM      5  C   UNL     1       5.626   6.137  16.858  0.00  0.00    +0.000 A 
ATOM      6  C   UNL     1       4.978   5.306  17.808  0.00  0.00    +0.000 A 
ENDROOT
BRANCH   3   7
ATOM      7  C   UNL     1       5.544   3.998  13.749  0.00  0.00    +0.000 C 
ATOM      8  O   UNL     1       6.630   3.623  13.325  0.00  0.00    +0.000 OA
ENDBRANCH   3   7
BRANCH   5   9
ATOM      9  O   UNL     1       6.058   7.387  17.231  0.00  0.00    +0.000 OA
ATOM     10  C   UNL     1       7.420   7.528  17.627  0.00  0.00    +0.000 C 
ENDBRANCH   5   9
BRANCH   1  11
ATOM     11  C   UNL     1       3.895   3.021  18.346  0.00  0.00    +0.000 C 
BRANCH  11  13
ATOM     12  C   UNL     1       1.377   2.792  18.353  0.00  0.00    +0.000 C 
ATOM     13  C   UNL     1       2.577   2.514  17.820  0.00  0.00    +0.000 C 
ENDBRANCH  11  13
ENDBRANCH   1  11
BRANCH   6  14
ATOM     14  O   UNL     1       4.715   5.630  19.131  0.00  0.00    +0.000 OA
BRANCH  14  15
ATOM     15  C   UNL     1       3.334   5.699  19.507  0.00  0.00    +0.000 C 
BRANCH  15  16
ATOM     16  C   UNL     1       2.668   7.046  19.294  0.00  0.00    +0.000 A 
ATOM     17  C   UNL     1       2.654   7.700  18.056  0.00  0.00    +0.000 A 
ATOM     18  C   UNL     1       1.917   8.880  17.890  0.00  0.00    +0.000 A 
ATOM     19  C   UNL     1       1.183   9.404  18.956  0.00  0.00    +0.000 A 
ATOM     20 CL   UNL     1       0.263  10.844  18.741  0.00  0.00    +0.000 Cl
ATOM     21  C   UNL     1       1.176   8.761  20.187  0.00  0.00    +0.000 A 
ATOM     22  C   UNL     1       1.908   7.586  20.351  0.00  0.00    +0.000 A 
ENDBRANCH  15  16
ENDBRANCH  14  15
ENDBRANCH   6  14
TORSDOF 7
ENDMDL
MODEL 8
REMARK VINA RESULT:      -5.7      2.720      5.150
REMARK  Name = 
REMARK  8 active torsions:
REMARK  status: ('A' for Active; 'I' for Inactive)
REMARK    1  A    between atoms: C_2  and  C_3
REMARK    2  A    between atoms: C_3  and  C_4
REMARK    3  A    between atoms: C_6  and  C_7
REMARK    4  A    between atoms: C_10  and  O_11
REMARK    5  A    between atoms: O_11  and  C_12
REMARK    6  A    between atoms: C_13  and  O_14
REMARK    7  A    between atoms: O_14  and  C_15
REMARK    8  A    between atoms: C_15  and  C_16
REMARK                            x       y       z     vdW  Elec       q    Type
REMARK                         _______ _______ _______ _____ _____    ______ ____
ROOT
ATOM      1  C   UNL     1       3.667   4.806  17.170  0.00  0.00    +0.000 A 
ATOM      2  C   UNL     1       4.309   4.027  16.180  0.00  0.00    +0.000 A 
ATOM      3  C   UNL     1       5.515   4.440  15.627  0.00  0.00    +0.000 A 
ATOM      4  C   UNL     1       6.114   5.617  16.060  0.00  0.00    +0.000 A 
ATOM      5  C   UNL     1       5.522   6.393  17.068  0.00  0.00    +0.000 A 
ATOM      6  C   UNL     1       4.268   6.014  17.614  0.00  0.00    +0.000 A 
ENDROOT
BRANCH   3   7
ATOM      7  C   UNL     1       6.166   3.633  14.575  0.00  0.00    +0.000 C 
ATOM      8  O   UNL     1       6.449   4.100  13.479  0.00  0.00    +0.000 OA
ENDBRANCH   3   7
BRANCH   5   9
ATOM      9  O   UNL     1       6.129   7.548  17.497  0.00  0.00    +0.000 OA
ATOM     10  C   UNL     1       7.553   7.565  17.565  0.00  0.00    +0.000 C 
ENDBRANCH   5   9
BRANCH   1  11
ATOM     11  C   UNL     1       2.352   4.281  17.713  0.00  0.00    +0.000 C 
BRANCH  11  13
ATOM     12  C   UNL     1       1.484   2.169  18.798  0.00  0.00    +0.000 C 
ATOM     13  C   UNL     1       2.427   2.828  18.107  0.00  0.00    +0.000 C 
ENDBRANCH  11  13
ENDBRANCH   1  11
BRANCH   6  14
ATOM     14  O   UNL     1       3.550   6.714  18.572  0.00  0.00    +0.000 OA
BRANCH  14  15
ATOM     15  C   UNL     1       2.645   7.713  18.086  0.00  0.00    +0.000 C 
BRANCH  15  16
ATOM     16  C   UNL     1       1.873   8.467  19.153  0.00  0.00    +0.000 A 
ATOM     17  C   UNL     1       1.144   9.631  18.885  0.00  0.00    +0.000 A 
ATOM     18  C   UNL     1       0.350  10.213  19.882  0.00  0.00    +0.000 A 
ATOM     19  C   UNL     1       0.272   9.627  21.147  0.00  0.00    +0.000 A 
ATOM     20 CL   UNL     1      -0.720  10.334  22.363  0.00  0.00    +0.000 Cl
ATOM     21  C   UNL     1       0.980   8.465  21.426  0.00  0.00    +0.000 A 
ATOM     22  C   UNL     1       1.768   7.886  20.433  0.00  0.00    +0.000 A 
ENDBRANCH  15  16
ENDBRANCH  14  15
ENDBRANCH   6  14
TORSDOF 7
ENDMDL
MODEL 9
REMARK VINA RESULT:      -5.7      4.324      6.907
REMARK  Name = 
REMARK  8 active torsions:
REMARK  status: ('A' for Active; 'I' for Inactive)
REMARK    1  A    between atoms: C_2  and  C_3
REMARK    2  A    between atoms: C_3  and  C_4
REMARK    3  A    between atoms: C_6  and  C_7
REMARK    4  A    between atoms: C_10  and  O_11
REMARK    5  A    between atoms: O_11  and  C_12
REMARK    6  A    between atoms: C_13  and  O_14
REMARK    7  A    between atoms: O_14  and  C_15
REMARK    8  A    between atoms: C_15  and  C_16
REMARK                            x       y       z     vdW  Elec       q    Type
REMARK                         _______ _______ _______ _____ _____    ______ ____
ROOT
ATOM      1  C   UNL     1       1.933   6.849  20.330  0.00  0.00    +0.000 A 
ATOM      2  C   UNL     1       1.706   5.548  20.833  0.00  0.00    +0.000 A 
ATOM      3  C   UNL     1       2.044   4.429  20.080  0.00  0.00    +0.000 A 
ATOM      4  C   UNL     1       2.632   4.582  18.829  0.00  0.00    +0.000 A 
ATOM      5  C   UNL     1       2.905   5.859  18.318  0.00  0.00    +0.000 A 
ATOM      6  C   UNL     1       2.526   7.015  19.049  0.00  0.00    +0.000 A 
ENDROOT
BRANCH   3   7
ATOM      7  C   UNL     1       1.780   3.073  20.603  0.00  0.00    +0.000 C 
ATOM      8  O   UNL     1       1.029   2.876  21.550  0.00  0.00    +0.000 OA
ENDBRANCH   3   7
BRANCH   5   9
ATOM      9  O   UNL     1       3.497   5.998  17.086  0.00  0.00    +0.000 OA
ATOM     10  C   UNL     1       4.921   6.043  17.035  0.00  0.00    +0.000 C 
ENDBRANCH   5   9
BRANCH   1  11
ATOM     11  C   UNL     1       1.529   8.010  21.217  0.00  0.00    +0.000 C 
BRANCH  11  13
ATOM     12  C   UNL     1      -0.592   9.056  22.112  0.00  0.00    +0.000 C 
ATOM     13  C   UNL     1       0.035   8.124  21.377  0.00  0.00    +0.000 C 
ENDBRANCH  11  13
ENDBRANCH   1  11
BRANCH   6  14
ATOM     14  O   UNL     1       2.688   8.330  18.639  0.00  0.00    +0.000 OA
BRANCH  14  15
ATOM     15  C   UNL     1       1.763   8.809  17.656  0.00  0.00    +0.000 C 
BRANCH  15  16
ATOM     16  C   UNL     1       0.747   9.820  18.156  0.00  0.00    +0.000 A 
ATOM     17  C   UNL     1      -0.628   9.695  17.926  0.00  0.00    +0.000 A 
ATOM     18  C   UNL     1      -1.527  10.591  18.518  0.00  0.00    +0.000 A 
ATOM     19  C   UNL     1      -1.057  11.607  19.353  0.00  0.00    +0.000 A 
ATOM     20 CL   UNL     1      -2.168  12.693  20.094  0.00  0.00    +0.000 Cl
ATOM     21  C   UNL     1       0.302  11.738  19.602  0.00  0.00    +0.000 A 
ATOM     22  C   UNL     1       1.197  10.845  19.014  0.00  0.00    +0.000 A 
ENDBRANCH  15  16
ENDBRANCH  14  15
ENDBRANCH   6  14
TORSDOF 7
ENDMDL
