MODEL 1
REMARK VINA RESULT:      -8.2      0.000      0.000
REMARK  Name = 
REMARK  7 active torsions:
REMARK  status: ('A' for Active; 'I' for Inactive)
REMARK    1  A    between atoms: C_1  and  C_2
REMARK    2  A    between atoms: C_11  and  C_13
REMARK    3  A    between atoms: C_13  and  N_14
REMARK    4  A    between atoms: N_17  and  C_18
REMARK    5  A    between atoms: C_18  and  C_19
REMARK    6  A    between atoms: C_23  and  O_24
REMARK    7  A    between atoms: O_24  and  C_25
REMARK                            x       y       z     vdW  Elec       q    Type
REMARK                         _______ _______ _______ _____ _____    ______ ____
ROOT
ATOM      1  N   UNL     1       0.467   8.541  20.316  0.00  0.00    +0.000 NA
ATOM      2  C   UNL     1      -0.282   8.632  21.585  0.00  0.00    +0.000 C 
ATOM      3  C   UNL     1       0.168   9.748  22.549  0.00  0.00    +0.000 C 
ATOM      4  N   UNL     1       0.218  11.091  21.925  0.00  0.00    +0.000 NA
ATOM      5  C   UNL     1       1.083  10.991  20.726  0.00  0.00    +0.000 C 
ATOM      6  C   UNL     1       0.631   9.895  19.725  0.00  0.00    +0.000 C 
ENDROOT
BRANCH   1   7
ATOM      7  C   UNL     1       1.810   7.922  20.408  0.00  0.00    +0.000 C 
BRANCH   7  18
ATOM      8  C   UNL     1       4.739   6.128  17.456  0.00  0.00    +0.000 C 
ATOM      9  C   UNL     1       3.266   5.721  17.573  0.00  0.00    +0.000 C 
ATOM     10  C   UNL     1       3.120   4.194  17.474  0.00  0.00    +0.000 C 
ATOM     11  C   UNL     1       2.526   3.847  18.801  0.00  0.00    +0.000 A 
ATOM     12  C   UNL     1       2.251   2.560  19.254  0.00  0.00    +0.000 A 
ATOM     13  C   UNL     1       1.650   2.404  20.499  0.00  0.00    +0.000 A 
ATOM     14  C   UNL     1       1.312   3.527  21.253  0.00  0.00    +0.000 A 
ATOM     15  C   UNL     1       1.576   4.818  20.775  0.00  0.00    +0.000 A 
ATOM     16  C   UNL     1       2.216   4.983  19.552  0.00  0.00    +0.000 A 
ATOM     17  N   UNL     1       2.639   6.139  18.851  0.00  0.00    +0.000 N 
ATOM     18  C   UNL     1       2.492   7.499  19.111  0.00  0.00    +0.000 C 
ATOM     19  O   UNL     1       2.850   8.324  18.263  0.00  0.00    +0.000 OA
ENDBRANCH   7  18
ENDBRANCH   1   7
BRANCH   4  20
ATOM     20  C   UNL     1      -1.118  11.580  21.523  0.00  0.00    +0.000 C 
BRANCH  20  21
ATOM     21  C   UNL     1      -1.827  12.414  22.562  0.00  0.00    +0.000 A 
ATOM     22  C   UNL     1      -1.228  13.579  23.064  0.00  0.00    +0.000 A 
ATOM     23  C   UNL     1      -1.849  14.308  24.074  0.00  0.00    +0.000 A 
ATOM     24  C   UNL     1      -3.087  13.892  24.562  0.00  0.00    +0.000 A 
ATOM     25  C   UNL     1      -3.725  12.771  24.024  0.00  0.00    +0.000 A 
ATOM     26  C   UNL     1      -3.076  12.009  23.057  0.00  0.00    +0.000 A 
BRANCH  25  27
ATOM     27  O   UNL     1      -4.937  12.482  24.569  0.00  0.00    +0.000 OA
BRANCH  27  28
ATOM     28  C   UNL     1      -6.112  12.853  23.862  0.00  0.00    +0.000 C 
ATOM     29  F   UNL     1      -5.994  12.828  22.519  0.00  0.00    +0.000 F 
ATOM     30  F   UNL     1      -7.126  12.036  24.225  0.00  0.00    +0.000 F 
ATOM     31  F   UNL     1      -6.444  14.114  24.222  0.00  0.00    +0.000 F 
ENDBRANCH  27  28
ENDBRANCH  25  27
ENDBRANCH  20  21
ENDBRANCH   4  20
TORSDOF 6
ENDMDL
MODEL 2
REMARK VINA RESULT:      -8.0      0.820      1.349
REMARK  Name = 
REMARK  7 active torsions:
REMARK  status: ('A' for Active; 'I' for Inactive)
REMARK    1  A    between atoms: C_1  and  C_2
REMARK    2  A    between atoms: C_11  and  C_13
REMARK    3  A    between atoms: C_13  and  N_14
REMARK    4  A    between atoms: N_17  and  C_18
REMARK    5  A    between atoms: C_18  and  C_19
REMARK    6  A    between atoms: C_23  and  O_24
REMARK    7  A    between atoms: O_24  and  C_25
REMARK                            x       y       z     vdW  Elec       q    Type
REMARK                         _______ _______ _______ _____ _____    ______ ____
ROOT
ATOM      1  N   UNL     1       1.661   9.251  20.695  0.00  0.00    +0.000 NA
ATOM      2  C   UNL     1       0.886  10.295  19.996  0.00  0.00    +0.000 C 
ATOM      3  C   UNL     1      -0.625  10.323  20.302  0.00  0.00    +0.000 C 
ATOM      4  N   UNL     1      -0.941  10.379  21.748  0.00  0.00    +0.000 NA
ATOM      5  C   UNL     1      -0.250   9.240  22.397  0.00  0.00    +0.000 C 
ATOM      6  C   UNL     1       1.278   9.208  22.130  0.00  0.00    +0.000 C 
ENDROOT
BRANCH   1   7
ATOM      7  C   UNL     1       1.525   7.880  20.149  0.00  0.00    +0.000 C 
BRANCH   7  18
ATOM      8  C   UNL     1       4.919   6.264  17.623  0.00  0.00    +0.000 C 
ATOM      9  C   UNL     1       3.472   5.763  17.556  0.00  0.00    +0.000 C 
ATOM     10  C   UNL     1       3.438   4.229  17.461  0.00  0.00    +0.000 C 
ATOM     11  C   UNL     1       2.702   3.852  18.705  0.00  0.00    +0.000 A 
ATOM     12  C   UNL     1       2.453   2.552  19.138  0.00  0.00    +0.000 A 
ATOM     13  C   UNL     1       1.708   2.364  20.297  0.00  0.00    +0.000 A 
ATOM     14  C   UNL     1       1.205   3.467  20.986  0.00  0.00    +0.000 A 
ATOM     15  C   UNL     1       1.445   4.770  20.527  0.00  0.00    +0.000 A 
ATOM     16  C   UNL     1       2.225   4.969  19.394  0.00  0.00    +0.000 A 
ATOM     17  N   UNL     1       2.660   6.147  18.737  0.00  0.00    +0.000 N 
ATOM     18  C   UNL     1       2.395   7.495  18.957  0.00  0.00    +0.000 C 
ATOM     19  O   UNL     1       2.805   8.337  18.150  0.00  0.00    +0.000 OA
ENDBRANCH   7  18
ENDBRANCH   1   7
BRANCH   4  20
ATOM     20  C   UNL     1      -0.497  11.640  22.378  0.00  0.00    +0.000 C 
BRANCH  20  21
ATOM     21  C   UNL     1      -1.614  12.558  22.815  0.00  0.00    +0.000 A 
ATOM     22  C   UNL     1      -1.321  13.784  23.432  0.00  0.00    +0.000 A 
ATOM     23  C   UNL     1      -2.350  14.597  23.898  0.00  0.00    +0.000 A 
ATOM     24  C   UNL     1      -3.675  14.202  23.721  0.00  0.00    +0.000 A 
ATOM     25  C   UNL     1      -3.980  13.015  23.049  0.00  0.00    +0.000 A 
ATOM     26  C   UNL     1      -2.951  12.175  22.635  0.00  0.00    +0.000 A 
BRANCH  25  27
ATOM     27  O   UNL     1      -5.309  12.752  22.921  0.00  0.00    +0.000 OA
BRANCH  27  28
ATOM     28  C   UNL     1      -6.090  12.576  24.095  0.00  0.00    +0.000 C 
ATOM     29  F   UNL     1      -5.415  12.076  25.151  0.00  0.00    +0.000 F 
ATOM     30  F   UNL     1      -6.635  13.760  24.449  0.00  0.00    +0.000 F 
ATOM     31  F   UNL     1      -7.098  11.721  23.810  0.00  0.00    +0.000 F 
ENDBRANCH  27  28
ENDBRANCH  25  27
ENDBRANCH  20  21
ENDBRANCH   4  20
TORSDOF 6
ENDMDL
MODEL 3
REMARK VINA RESULT:      -7.9      6.708     11.307
REMARK  Name = 
REMARK  7 active torsions:
REMARK  status: ('A' for Active; 'I' for Inactive)
REMARK    1  A    between atoms: C_1  and  C_2
REMARK    2  A    between atoms: C_11  and  C_13
REMARK    3  A    between atoms: C_13  and  N_14
REMARK    4  A    between atoms: N_17  and  C_18
REMARK    5  A    between atoms: C_18  and  C_19
REMARK    6  A    between atoms: C_23  and  O_24
REMARK    7  A    between atoms: O_24  and  C_25
REMARK                            x       y       z     vdW  Elec       q    Type
REMARK                         _______ _______ _______ _____ _____    ______ ____
ROOT
ATOM      1  N   UNL     1       2.456   6.780  18.248  0.00  0.00    +0.000 NA
ATOM      2  C   UNL     1       3.780   6.816  17.597  0.00  0.00    +0.000 C 
ATOM      3  C   UNL     1       4.977   6.445  18.495  0.00  0.00    +0.000 C 
ATOM      4  N   UNL     1       4.821   5.146  19.192  0.00  0.00    +0.000 NA
ATOM      5  C   UNL     1       3.542   5.195  19.938  0.00  0.00    +0.000 C 
ATOM      6  C   UNL     1       2.317   5.536  19.049  0.00  0.00    +0.000 C 
ENDROOT
BRANCH   1   7
ATOM      7  C   UNL     1       2.147   7.926  19.135  0.00  0.00    +0.000 C 
BRANCH   7  18
ATOM      8  C   UNL     1      -1.106  10.737  17.711  0.00  0.00    +0.000 C 
ATOM      9  C   UNL     1      -0.066  11.084  18.782  0.00  0.00    +0.000 C 
ATOM     10  C   UNL     1      -0.727  11.837  19.948  0.00  0.00    +0.000 C 
ATOM     11  C   UNL     1      -0.479  10.917  21.099  0.00  0.00    +0.000 A 
ATOM     12  C   UNL     1      -0.937  11.104  22.400  0.00  0.00    +0.000 A 
ATOM     13  C   UNL     1      -0.579  10.178  23.375  0.00  0.00    +0.000 A 
ATOM     14  C   UNL     1       0.245   9.104  23.043  0.00  0.00    +0.000 A 
ATOM     15  C   UNL     1       0.717   8.940  21.733  0.00  0.00    +0.000 A 
ATOM     16  C   UNL     1       0.329   9.835  20.743  0.00  0.00    +0.000 A 
ATOM     17  N   UNL     1       0.609   9.894  19.355  0.00  0.00    +0.000 N 
ATOM     18  C   UNL     1       1.423   9.124  18.530  0.00  0.00    +0.000 C 
ATOM     19  O   UNL     1       1.596   9.465  17.354  0.00  0.00    +0.000 OA
ENDBRANCH   7  18
ENDBRANCH   1   7
BRANCH   4  20
ATOM     20  C   UNL     1       4.796   4.001  18.257  0.00  0.00    +0.000 C 
BRANCH  20  21
ATOM     21  C   UNL     1       5.554   4.217  16.969  0.00  0.00    +0.000 A 
ATOM     22  C   UNL     1       6.916   4.553  16.998  0.00  0.00    +0.000 A 
ATOM     23  C   UNL     1       7.597   4.823  15.815  0.00  0.00    +0.000 A 
ATOM     24  C   UNL     1       6.926   4.725  14.597  0.00  0.00    +0.000 A 
ATOM     25  C   UNL     1       5.588   4.327  14.550  0.00  0.00    +0.000 A 
ATOM     26  C   UNL     1       4.892   4.115  15.737  0.00  0.00    +0.000 A 
BRANCH  25  27
ATOM     27  O   UNL     1       5.053   4.248  13.301  0.00  0.00    +0.000 OA
BRANCH  27  28
ATOM     28  C   UNL     1       5.693   3.429  12.333  0.00  0.00    +0.000 C 
ATOM     29  F   UNL     1       6.679   4.038  11.642  0.00  0.00    +0.000 F 
ATOM     30  F   UNL     1       6.200   2.334  12.941  0.00  0.00    +0.000 F 
ATOM     31  F   UNL     1       4.762   3.018  11.442  0.00  0.00    +0.000 F 
ENDBRANCH  27  28
ENDBRANCH  25  27
ENDBRANCH  20  21
ENDBRANCH   4  20
TORSDOF 6
ENDMDL
MODEL 4
REMARK VINA RESULT:      -7.9      0.941      1.501
REMARK  Name = 
REMARK  7 active torsions:
REMARK  status: ('A' for Active; 'I' for Inactive)
REMARK    1  A    between atoms: C_1  and  C_2
REMARK    2  A    between atoms: C_11  and  C_13
REMARK    3  A    between atoms: C_13  and  N_14
REMARK    4  A    between atoms: N_17  and  C_18
REMARK    5  A    between atoms: C_18  and  C_19
REMARK    6  A    between atoms: C_23  and  O_24
REMARK    7  A    between atoms: O_24  and  C_25
REMARK                            x       y       z     vdW  Elec       q    Type
REMARK                         _______ _______ _______ _____ _____    ______ ____
ROOT
ATOM      1  N   UNL     1       1.692   9.282  20.537  0.00  0.00    +0.000 NA
ATOM      2  C   UNL     1       0.909  10.325  19.847  0.00  0.00    +0.000 C 
ATOM      3  C   UNL     1      -0.598  10.354  20.172  0.00  0.00    +0.000 C 
ATOM      4  N   UNL     1      -0.895  10.412  21.622  0.00  0.00    +0.000 NA
ATOM      5  C   UNL     1      -0.197   9.274  22.263  0.00  0.00    +0.000 C 
ATOM      6  C   UNL     1       1.328   9.242  21.978  0.00  0.00    +0.000 C 
ENDROOT
BRANCH   1   7
ATOM      7  C   UNL     1       1.549   7.910  19.996  0.00  0.00    +0.000 C 
BRANCH   7  18
ATOM      8  C   UNL     1       5.054   6.219  17.679  0.00  0.00    +0.000 C 
ATOM      9  C   UNL     1       3.610   5.717  17.558  0.00  0.00    +0.000 C 
ATOM     10  C   UNL     1       3.577   4.182  17.506  0.00  0.00    +0.000 C 
ATOM     11  C   UNL     1       2.783   3.841  18.725  0.00  0.00    +0.000 A 
ATOM     12  C   UNL     1       2.511   2.554  19.182  0.00  0.00    +0.000 A 
ATOM     13  C   UNL     1       1.712   2.400  20.309  0.00  0.00    +0.000 A 
ATOM     14  C   UNL     1       1.180   3.523  20.942  0.00  0.00    +0.000 A 
ATOM     15  C   UNL     1       1.445   4.812  20.458  0.00  0.00    +0.000 A 
ATOM     16  C   UNL     1       2.277   4.978  19.358  0.00  0.00    +0.000 A 
ATOM     17  N   UNL     1       2.745   6.136  18.688  0.00  0.00    +0.000 N 
ATOM     18  C   UNL     1       2.473   7.490  18.857  0.00  0.00    +0.000 C 
ATOM     19  O   UNL     1       2.922   8.308  18.047  0.00  0.00    +0.000 OA
ENDBRANCH   7  18
ENDBRANCH   1   7
BRANCH   4  20
ATOM     20  C   UNL     1      -0.443  11.675  22.243  0.00  0.00    +0.000 C 
BRANCH  20  21
ATOM     21  C   UNL     1      -1.544  12.515  22.846  0.00  0.00    +0.000 A 
ATOM     22  C   UNL     1      -1.234  13.694  23.540  0.00  0.00    +0.000 A 
ATOM     23  C   UNL     1      -2.241  14.430  24.157  0.00  0.00    +0.000 A 
ATOM     24  C   UNL     1      -3.565  14.007  24.054  0.00  0.00    +0.000 A 
ATOM     25  C   UNL     1      -3.894  12.870  23.310  0.00  0.00    +0.000 A 
ATOM     26  C   UNL     1      -2.880  12.102  22.744  0.00  0.00    +0.000 A 
BRANCH  25  27
ATOM     27  O   UNL     1      -5.221  12.574  23.267  0.00  0.00    +0.000 OA
BRANCH  27  28
ATOM     28  C   UNL     1      -5.965  12.930  22.110  0.00  0.00    +0.000 C 
ATOM     29  F   UNL     1      -7.248  13.271  22.348  0.00  0.00    +0.000 F 
ATOM     30  F   UNL     1      -5.351  13.957  21.484  0.00  0.00    +0.000 F 
ATOM     31  F   UNL     1      -5.972  11.872  21.267  0.00  0.00    +0.000 F 
ENDBRANCH  27  28
ENDBRANCH  25  27
ENDBRANCH  20  21
ENDBRANCH   4  20
TORSDOF 6
ENDMDL
MODEL 5
REMARK VINA RESULT:      -7.8      0.864      1.258
REMARK  Name = 
REMARK  7 active torsions:
REMARK  status: ('A' for Active; 'I' for Inactive)
REMARK    1  A    between atoms: C_1  and  C_2
REMARK    2  A    between atoms: C_11  and  C_13
REMARK    3  A    between atoms: C_13  and  N_14
REMARK    4  A    between atoms: N_17  and  C_18
REMARK    5  A    between atoms: C_18  and  C_19
REMARK    6  A    between atoms: C_23  and  O_24
REMARK    7  A    between atoms: O_24  and  C_25
REMARK                            x       y       z     vdW  Elec       q    Type
REMARK                         _______ _______ _______ _____ _____    ______ ____
ROOT
ATOM      1  N   UNL     1       1.717   8.914  19.971  0.00  0.00    +0.000 NA
ATOM      2  C   UNL     1       1.083  10.200  19.619  0.00  0.00    +0.000 C 
ATOM      3  C   UNL     1      -0.428  10.302  19.909  0.00  0.00    +0.000 C 
ATOM      4  N   UNL     1      -0.794   9.953  21.301  0.00  0.00    +0.000 NA
ATOM      5  C   UNL     1      -0.252   8.602  21.576  0.00  0.00    +0.000 C 
ATOM      6  C   UNL     1       1.275   8.483  21.323  0.00  0.00    +0.000 C 
ENDROOT
BRANCH   1   7
ATOM      7  C   UNL     1       1.460   7.796  19.033  0.00  0.00    +0.000 C 
BRANCH   7  18
ATOM      8  C   UNL     1       5.481   6.028  17.929  0.00  0.00    +0.000 C 
ATOM      9  C   UNL     1       4.131   5.373  17.620  0.00  0.00    +0.000 C 
ATOM     10  C   UNL     1       4.190   3.862  17.898  0.00  0.00    +0.000 C 
ATOM     11  C   UNL     1       3.160   3.697  18.967  0.00  0.00    +0.000 A 
ATOM     12  C   UNL     1       2.859   2.508  19.626  0.00  0.00    +0.000 A 
ATOM     13  C   UNL     1       1.835   2.505  20.566  0.00  0.00    +0.000 A 
ATOM     14  C   UNL     1       1.115   3.675  20.813  0.00  0.00    +0.000 A 
ATOM     15  C   UNL     1       1.415   4.860  20.126  0.00  0.00    +0.000 A 
ATOM     16  C   UNL     1       2.466   4.882  19.217  0.00  0.00    +0.000 A 
ATOM     17  N   UNL     1       3.012   5.922  18.424  0.00  0.00    +0.000 N 
ATOM     18  C   UNL     1       2.638   7.249  18.233  0.00  0.00    +0.000 C 
ATOM     19  O   UNL     1       3.216   7.928  17.377  0.00  0.00    +0.000 OA
ENDBRANCH   7  18
ENDBRANCH   1   7
BRANCH   4  20
ATOM     20  C   UNL     1      -0.246  10.908  22.288  0.00  0.00    +0.000 C 
BRANCH  20  21
ATOM     21  C   UNL     1      -1.226  11.951  22.772  0.00  0.00    +0.000 A 
ATOM     22  C   UNL     1      -0.926  13.316  22.646  0.00  0.00    +0.000 A 
ATOM     23  C   UNL     1      -1.795  14.275  23.156  0.00  0.00    +0.000 A 
ATOM     24  C   UNL     1      -2.983  13.873  23.766  0.00  0.00    +0.000 A 
ATOM     25  C   UNL     1      -3.324  12.520  23.839  0.00  0.00    +0.000 A 
ATOM     26  C   UNL     1      -2.427  11.559  23.382  0.00  0.00    +0.000 A 
BRANCH  25  27
ATOM     27  O   UNL     1      -4.517  12.259  24.438  0.00  0.00    +0.000 OA
BRANCH  27  28
ATOM     28  C   UNL     1      -5.713  12.669  23.789  0.00  0.00    +0.000 C 
ATOM     29  F   UNL     1      -5.663  12.640  22.442  0.00  0.00    +0.000 F 
ATOM     30  F   UNL     1      -6.735  11.888  24.203  0.00  0.00    +0.000 F 
ATOM     31  F   UNL     1      -5.984  13.941  24.162  0.00  0.00    +0.000 F 
ENDBRANCH  27  28
ENDBRANCH  25  27
ENDBRANCH  20  21
ENDBRANCH   4  20
TORSDOF 6
ENDMDL
MODEL 6
REMARK VINA RESULT:      -7.7      2.242      2.906
REMARK  Name = 
REMARK  7 active torsions:
REMARK  status: ('A' for Active; 'I' for Inactive)
REMARK    1  A    between atoms: C_1  and  C_2
REMARK    2  A    between atoms: C_11  and  C_13
REMARK    3  A    between atoms: C_13  and  N_14
REMARK    4  A    between atoms: N_17  and  C_18
REMARK    5  A    between atoms: C_18  and  C_19
REMARK    6  A    between atoms: C_23  and  O_24
REMARK    7  A    between atoms: O_24  and  C_25
REMARK                            x       y       z     vdW  Elec       q    Type
REMARK                         _______ _______ _______ _____ _____    ______ ____
ROOT
ATOM      1  N   UNL     1       1.664   9.284  20.723  0.00  0.00    +0.000 NA
ATOM      2  C   UNL     1       0.959  10.360  19.998  0.00  0.00    +0.000 C 
ATOM      3  C   UNL     1      -0.560  10.448  20.246  0.00  0.00    +0.000 C 
ATOM      4  N   UNL     1      -0.929  10.515  21.679  0.00  0.00    +0.000 NA
ATOM      5  C   UNL     1      -0.310   9.349  22.351  0.00  0.00    +0.000 C 
ATOM      6  C   UNL     1       1.225   9.256  22.143  0.00  0.00    +0.000 C 
ENDROOT
BRANCH   1   7
ATOM      7  C   UNL     1       1.494   7.921  20.169  0.00  0.00    +0.000 C 
BRANCH   7  18
ATOM      8  C   UNL     1       4.911   6.564  17.525  0.00  0.00    +0.000 C 
ATOM      9  C   UNL     1       3.568   5.836  17.649  0.00  0.00    +0.000 C 
ATOM     10  C   UNL     1       3.784   4.317  17.724  0.00  0.00    +0.000 C 
ATOM     11  C   UNL     1       3.217   3.983  19.065  0.00  0.00    +0.000 A 
ATOM     12  C   UNL     1       3.223   2.722  19.656  0.00  0.00    +0.000 A 
ATOM     13  C   UNL     1       2.608   2.562  20.894  0.00  0.00    +0.000 A 
ATOM     14  C   UNL     1       1.980   3.648  21.504  0.00  0.00    +0.000 A 
ATOM     15  C   UNL     1       1.964   4.906  20.886  0.00  0.00    +0.000 A 
ATOM     16  C   UNL     1       2.613   5.087  19.671  0.00  0.00    +0.000 A 
ATOM     17  N   UNL     1       2.794   6.229  18.852  0.00  0.00    +0.000 N 
ATOM     18  C   UNL     1       2.324   7.535  18.949  0.00  0.00    +0.000 C 
ATOM     19  O   UNL     1       2.526   8.326  18.021  0.00  0.00    +0.000 OA
ENDBRANCH   7  18
ENDBRANCH   1   7
BRANCH   4  20
ATOM     20  C   UNL     1      -0.459  11.757  22.328  0.00  0.00    +0.000 C 
BRANCH  20  21
ATOM     21  C   UNL     1      -1.529  12.539  23.051  0.00  0.00    +0.000 A 
ATOM     22  C   UNL     1      -2.767  11.944  23.338  0.00  0.00    +0.000 A 
ATOM     23  C   UNL     1      -3.779  12.687  23.940  0.00  0.00    +0.000 A 
ATOM     24  C   UNL     1      -3.545  14.017  24.285  0.00  0.00    +0.000 A 
ATOM     25  C   UNL     1      -2.296  14.601  24.064  0.00  0.00    +0.000 A 
ATOM     26  C   UNL     1      -1.304  13.877  23.409  0.00  0.00    +0.000 A 
BRANCH  25  27
ATOM     27  O   UNL     1      -2.187  15.897  24.465  0.00  0.00    +0.000 OA
BRANCH  27  28
ATOM     28  C   UNL     1      -1.417  16.194  25.622  0.00  0.00    +0.000 C 
ATOM     29  F   UNL     1      -0.096  16.342  25.398  0.00  0.00    +0.000 F 
ATOM     30  F   UNL     1      -1.891  17.323  26.193  0.00  0.00    +0.000 F 
ATOM     31  F   UNL     1      -1.572  15.182  26.506  0.00  0.00    +0.000 F 
ENDBRANCH  27  28
ENDBRANCH  25  27
ENDBRANCH  20  21
ENDBRANCH   4  20
TORSDOF 6
ENDMDL
MODEL 7
REMARK VINA RESULT:      -7.7      5.895     10.884
REMARK  Name = 
REMARK  7 active torsions:
REMARK  status: ('A' for Active; 'I' for Inactive)
REMARK    1  A    between atoms: C_1  and  C_2
REMARK    2  A    between atoms: C_11  and  C_13
REMARK    3  A    between atoms: C_13  and  N_14
REMARK    4  A    between atoms: N_17  and  C_18
REMARK    5  A    between atoms: C_18  and  C_19
REMARK    6  A    between atoms: C_23  and  O_24
REMARK    7  A    between atoms: O_24  and  C_25
REMARK                            x       y       z     vdW  Elec       q    Type
REMARK                         _______ _______ _______ _____ _____    ______ ____
ROOT
ATOM      1  N   UNL     1       2.122   7.504  20.291  0.00  0.00    +0.000 NA
ATOM      2  C   UNL     1       1.682   6.173  20.751  0.00  0.00    +0.000 C 
ATOM      3  C   UNL     1       1.390   5.145  19.640  0.00  0.00    +0.000 C 
ATOM      4  N   UNL     1       2.501   4.975  18.675  0.00  0.00    +0.000 NA
ATOM      5  C   UNL     1       2.829   6.316  18.138  0.00  0.00    +0.000 C 
ATOM      6  C   UNL     1       3.160   7.361  19.237  0.00  0.00    +0.000 C 
ENDROOT
BRANCH   1   7
ATOM      7  C   UNL     1       1.055   8.383  19.759  0.00  0.00    +0.000 C 
BRANCH   7  18
ATOM      8  C   UNL     1       0.262  12.590  21.238  0.00  0.00    +0.000 C 
ATOM      9  C   UNL     1      -0.828  11.552  20.948  0.00  0.00    +0.000 C 
ATOM     10  C   UNL     1      -2.011  12.205  20.216  0.00  0.00    +0.000 C 
ATOM     11  C   UNL     1      -2.031  11.461  18.921  0.00  0.00    +0.000 A 
ATOM     12  C   UNL     1      -2.889  11.713  17.854  0.00  0.00    +0.000 A 
ATOM     13  C   UNL     1      -2.817  10.897  16.730  0.00  0.00    +0.000 A 
ATOM     14  C   UNL     1      -1.915   9.833  16.701  0.00  0.00    +0.000 A 
ATOM     15  C   UNL     1      -1.072   9.578  17.792  0.00  0.00    +0.000 A 
ATOM     16  C   UNL     1      -1.106  10.415  18.901  0.00  0.00    +0.000 A 
ATOM     17  N   UNL     1      -0.359  10.426  20.104  0.00  0.00    +0.000 N 
ATOM     18  C   UNL     1       0.607   9.564  20.615  0.00  0.00    +0.000 C 
ATOM     19  O   UNL     1       1.024   9.729  21.767  0.00  0.00    +0.000 OA
ENDBRANCH   7  18
ENDBRANCH   1   7
BRANCH   4  20
ATOM     20  C   UNL     1       3.708   4.391  19.297  0.00  0.00    +0.000 C 
BRANCH  20  21
ATOM     21  C   UNL     1       4.951   4.443  18.441  0.00  0.00    +0.000 A 
ATOM     22  C   UNL     1       6.118   5.053  18.925  0.00  0.00    +0.000 A 
ATOM     23  C   UNL     1       7.240   5.165  18.111  0.00  0.00    +0.000 A 
ATOM     24  C   UNL     1       7.210   4.639  16.820  0.00  0.00    +0.000 A 
ATOM     25  C   UNL     1       6.077   3.971  16.350  0.00  0.00    +0.000 A 
ATOM     26  C   UNL     1       4.935   3.911  17.143  0.00  0.00    +0.000 A 
BRANCH  25  27
ATOM     27  O   UNL     1       6.180   3.483  15.084  0.00  0.00    +0.000 OA
BRANCH  27  28
ATOM     28  C   UNL     1       6.000   4.372  13.990  0.00  0.00    +0.000 C 
ATOM     29  F   UNL     1       7.141   4.883  13.485  0.00  0.00    +0.000 F 
ATOM     30  F   UNL     1       5.335   3.734  13.003  0.00  0.00    +0.000 F 
ATOM     31  F   UNL     1       5.235   5.408  14.406  0.00  0.00    +0.000 F 
ENDBRANCH  27  28
ENDBRANCH  25  27
ENDBRANCH  20  21
ENDBRANCH   4  20
TORSDOF 6
ENDMDL
MODEL 8
REMARK VINA RESULT:      -7.7      4.702      9.877
REMARK  Name = 
REMARK  7 active torsions:
REMARK  status: ('A' for Active; 'I' for Inactive)
REMARK    1  A    between atoms: C_1  and  C_2
REMARK    2  A    between atoms: C_11  and  C_13
REMARK    3  A    between atoms: C_13  and  N_14
REMARK    4  A    between atoms: N_17  and  C_18
REMARK    5  A    between atoms: C_18  and  C_19
REMARK    6  A    between atoms: C_23  and  O_24
REMARK    7  A    between atoms: O_24  and  C_25
REMARK                            x       y       z     vdW  Elec       q    Type
REMARK                         _______ _______ _______ _____ _____    ______ ____
ROOT
ATOM      1  N   UNL     1      -1.324  11.886  18.467  0.00  0.00    +0.000 NA
ATOM      2  C   UNL     1       0.036  12.266  18.896  0.00  0.00    +0.000 C 
ATOM      3  C   UNL     1       0.673  11.364  19.972  0.00  0.00    +0.000 C 
ATOM      4  N   UNL     1       0.664   9.924  19.627  0.00  0.00    +0.000 NA
ATOM      5  C   UNL     1      -0.738   9.549  19.327  0.00  0.00    +0.000 C 
ATOM      6  C   UNL     1      -1.391  10.422  18.223  0.00  0.00    +0.000 C 
ENDROOT
BRANCH   1   7
ATOM      7  C   UNL     1      -2.414  12.239  19.407  0.00  0.00    +0.000 C 
BRANCH   7  18
ATOM      8  C   UNL     1      -6.633  10.691  18.849  0.00  0.00    +0.000 C 
ATOM      9  C   UNL     1      -6.283  12.082  19.391  0.00  0.00    +0.000 C 
ATOM     10  C   UNL     1      -7.189  12.439  20.580  0.00  0.00    +0.000 C 
ATOM     11  C   UNL     1      -6.202  12.600  21.691  0.00  0.00    +0.000 A 
ATOM     12  C   UNL     1      -6.515  12.866  23.021  0.00  0.00    +0.000 A 
ATOM     13  C   UNL     1      -5.477  13.038  23.931  0.00  0.00    +0.000 A 
ATOM     14  C   UNL     1      -4.153  12.967  23.496  0.00  0.00    +0.000 A 
ATOM     15  C   UNL     1      -3.853  12.718  22.149  0.00  0.00    +0.000 A 
ATOM     16  C   UNL     1      -4.883  12.502  21.241  0.00  0.00    +0.000 A 
ATOM     17  N   UNL     1      -4.880  12.195  19.858  0.00  0.00    +0.000 N 
ATOM     18  C   UNL     1      -3.853  12.079  18.927  0.00  0.00    +0.000 C 
ATOM     19  O   UNL     1      -4.128  11.923  17.732  0.00  0.00    +0.000 OA
ENDBRANCH   7  18
ENDBRANCH   1   7
BRANCH   4  20
ATOM     20  C   UNL     1       1.512   9.616  18.456  0.00  0.00    +0.000 C 
BRANCH  20  21
ATOM     21  C   UNL     1       2.264   8.310  18.544  0.00  0.00    +0.000 A 
ATOM     22  C   UNL     1       3.229   7.983  17.579  0.00  0.00    +0.000 A 
ATOM     23  C   UNL     1       3.872   6.750  17.619  0.00  0.00    +0.000 A 
ATOM     24  C   UNL     1       3.575   5.851  18.643  0.00  0.00    +0.000 A 
ATOM     25  C   UNL     1       2.664   6.191  19.647  0.00  0.00    +0.000 A 
ATOM     26  C   UNL     1       1.979   7.401  19.573  0.00  0.00    +0.000 A 
BRANCH  25  27
ATOM     27  O   UNL     1       2.477   5.239  20.601  0.00  0.00    +0.000 OA
BRANCH  27  28
ATOM     28  C   UNL     1       1.791   4.045  20.252  0.00  0.00    +0.000 C 
ATOM     29  F   UNL     1       1.004   4.145  19.161  0.00  0.00    +0.000 F 
ATOM     30  F   UNL     1       2.692   3.058  20.049  0.00  0.00    +0.000 F 
ATOM     31  F   UNL     1       1.006   3.685  21.293  0.00  0.00    +0.000 F 
ENDBRANCH  27  28
ENDBRANCH  25  27
ENDBRANCH  20  21
ENDBRANCH   4  20
TORSDOF 6
ENDMDL
MODEL 9
REMARK VINA RESULT:      -7.7      4.902      9.615
REMARK  Name = 
REMARK  7 active torsions:
REMARK  status: ('A' for Active; 'I' for Inactive)
REMARK    1  A    between atoms: C_1  and  C_2
REMARK    2  A    between atoms: C_11  and  C_13
REMARK    3  A    between atoms: C_13  and  N_14
REMARK    4  A    between atoms: N_17  and  C_18
REMARK    5  A    between atoms: C_18  and  C_19
REMARK    6  A    between atoms: C_23  and  O_24
REMARK    7  A    between atoms: O_24  and  C_25
REMARK                            x       y       z     vdW  Elec       q    Type
REMARK                         _______ _______ _______ _____ _____    ______ ____
ROOT
ATOM      1  N   UNL     1       0.293  11.774  21.406  0.00  0.00    +0.000 NA
ATOM      2  C   UNL     1      -0.369  10.500  21.744  0.00  0.00    +0.000 C 
ATOM      3  C   UNL     1      -0.651   9.557  20.556  0.00  0.00    +0.000 C 
ATOM      4  N   UNL     1       0.541   9.272  19.724  0.00  0.00    +0.000 NA
ATOM      5  C   UNL     1       1.105  10.573  19.297  0.00  0.00    +0.000 C 
ATOM      6  C   UNL     1       1.428  11.528  20.478  0.00  0.00    +0.000 C 
ENDROOT
BRANCH   1   7
ATOM      7  C   UNL     1      -0.577  12.806  20.793  0.00  0.00    +0.000 C 
BRANCH   7  18
ATOM      8  C   UNL     1      -4.820  14.251  21.440  0.00  0.00    +0.000 C 
ATOM      9  C   UNL     1      -4.437  12.804  21.107  0.00  0.00    +0.000 C 
ATOM     10  C   UNL     1      -5.409  12.216  20.073  0.00  0.00    +0.000 C 
ATOM     11  C   UNL     1      -4.501  11.911  18.925  0.00  0.00    +0.000 A 
ATOM     12  C   UNL     1      -4.899  11.411  17.688  0.00  0.00    +0.000 A 
ATOM     13  C   UNL     1      -3.925  11.131  16.735  0.00  0.00    +0.000 A 
ATOM     14  C   UNL     1      -2.578  11.329  17.040  0.00  0.00    +0.000 A 
ATOM     15  C   UNL     1      -2.191  11.813  18.298  0.00  0.00    +0.000 A 
ATOM     16  C   UNL     1      -3.160  12.136  19.241  0.00  0.00    +0.000 A 
ATOM     17  N   UNL     1      -3.069  12.671  20.549  0.00  0.00    +0.000 N 
ATOM     18  C   UNL     1      -1.982  12.985  21.360  0.00  0.00    +0.000 C 
ATOM     19  O   UNL     1      -2.173  13.328  22.531  0.00  0.00    +0.000 OA
ENDBRANCH   7  18
ENDBRANCH   1   7
BRANCH   4  20
ATOM     20  C   UNL     1       1.575   8.510  20.457  0.00  0.00    +0.000 C 
BRANCH  20  21
ATOM     21  C   UNL     1       2.209   7.386  19.673  0.00  0.00    +0.000 A 
ATOM     22  C   UNL     1       2.817   7.642  18.435  0.00  0.00    +0.000 A 
ATOM     23  C   UNL     1       3.337   6.596  17.679  0.00  0.00    +0.000 A 
ATOM     24  C   UNL     1       3.281   5.295  18.174  0.00  0.00    +0.000 A 
ATOM     25  C   UNL     1       2.738   5.035  19.435  0.00  0.00    +0.000 A 
ATOM     26  C   UNL     1       2.164   6.073  20.164  0.00  0.00    +0.000 A 
BRANCH  25  27
ATOM     27  O   UNL     1       2.761   3.728  19.814  0.00  0.00    +0.000 OA
BRANCH  27  28
ATOM     28  C   UNL     1       1.852   2.822  19.205  0.00  0.00    +0.000 C 
ATOM     29  F   UNL     1       2.277   2.295  18.038  0.00  0.00    +0.000 F 
ATOM     30  F   UNL     1       1.585   1.814  20.065  0.00  0.00    +0.000 F 
ATOM     31  F   UNL     1       0.695   3.479  18.961  0.00  0.00    +0.000 F 
ENDBRANCH  27  28
ENDBRANCH  25  27
ENDBRANCH  20  21
ENDBRANCH   4  20
TORSDOF 6
ENDMDL
