MODEL 1
REMARK VINA RESULT:      -7.5      0.000      0.000
REMARK  Name = 
REMARK  8 active torsions:
REMARK  status: ('A' for Active; 'I' for Inactive)
REMARK    1  A    between atoms: C_1  and  O_2
REMARK    2  A    between atoms: O_2  and  C_3
REMARK    3  A    between atoms: C_6  and  C_7
REMARK    4  A    between atoms: C_14  and  C_15
REMARK    5  A    between atoms: C_15  and  N_16
REMARK    6  A    between atoms: N_16  and  C_17
REMARK    7  A    between atoms: C_17  and  C_18
REMARK    8  A    between atoms: N_22  and  C_23
REMARK                            x       y       z     vdW  Elec       q    Type
REMARK                         _______ _______ _______ _____ _____    ______ ____
ROOT
ATOM      1  C   UNL     1       8.242   8.764  18.310  0.00  0.00    +0.000 A 
ATOM      2  C   UNL     1       7.261   8.521  17.371  0.00  0.00    +0.000 A 
ATOM      3  N   UNL     1       7.036   7.177  17.459  0.00  0.00    +0.000 N 
ATOM      4  C   UNL     1       7.845   6.657  18.420  0.00  0.00    +0.000 A 
ATOM      5  N   UNL     1       8.584   7.603  18.961  0.00  0.00    +0.000 NA
ATOM      6  C   UNL     1       7.861   5.213  18.728  0.00  0.00    +0.000 C 
ATOM      7  O   UNL     1       6.645   4.576  18.353  0.00  0.00    +0.000 OA
ATOM      8  C   UNL     1       5.977   4.946  17.140  0.00  0.00    +0.000 C 
ATOM      9  C   UNL     1       6.096   6.414  16.694  0.00  0.00    +0.000 C 
ENDROOT
BRANCH   1  13
ATOM     10  C   UNL     1       9.940  12.579  19.152  0.00  0.00    +0.000 A 
ATOM     11  C   UNL     1       9.238  12.354  17.964  0.00  0.00    +0.000 A 
ATOM     12  C   UNL     1       8.679  11.105  17.698  0.00  0.00    +0.000 A 
ATOM     13  C   UNL     1       8.841  10.049  18.608  0.00  0.00    +0.000 A 
ATOM     14  C   UNL     1       9.560  10.276  19.782  0.00  0.00    +0.000 A 
ATOM     15  C   UNL     1      10.110  11.534  20.058  0.00  0.00    +0.000 A 
BRANCH  10  17
ATOM     16  C   UNL     1       9.623  14.889  18.789  0.00  0.00    +0.000 C 
ATOM     17  O   UNL     1      10.443  13.842  19.297  0.00  0.00    +0.000 OA
ENDBRANCH  10  17
ENDBRANCH   1  13
BRANCH   8  18
ATOM     18  C   UNL     1       4.504   4.594  17.448  0.00  0.00    +0.000 C 
BRANCH  18  19
ATOM     19  N   UNL     1       3.817   5.551  18.310  0.00  0.00    +0.000 NA
ATOM     20  H   UNL     1       4.145   6.501  18.122  0.00  0.00    +0.000 HD
BRANCH  19  21
ATOM     21  C   UNL     1       2.377   5.535  18.027  0.00  0.00    +0.000 C 
BRANCH  21  22
ATOM     22  C   UNL     1       1.776   4.281  18.570  0.00  0.00    +0.000 A 
ATOM     23  N   UNL     1       1.287   3.289  17.847  0.00  0.00    +0.000 NA
ATOM     24  C   UNL     1       0.842   2.358  18.745  0.00  0.00    +0.000 A 
ATOM     25  C   UNL     1       1.045   2.786  20.035  0.00  0.00    +0.000 A 
ATOM     26  N   UNL     1       1.630   4.017  19.912  0.00  0.00    +0.000 N 
ATOM     27  C   UNL     1       2.012   4.878  21.004  0.00  0.00    +0.000 C 
ENDBRANCH  21  22
ENDBRANCH  19  21
ENDBRANCH  18  19
ENDBRANCH   8  18
TORSDOF 6
ENDMDL
MODEL 2
REMARK VINA RESULT:      -7.5      0.467      1.047
REMARK  Name = 
REMARK  8 active torsions:
REMARK  status: ('A' for Active; 'I' for Inactive)
REMARK    1  A    between atoms: C_1  and  O_2
REMARK    2  A    between atoms: O_2  and  C_3
REMARK    3  A    between atoms: C_6  and  C_7
REMARK    4  A    between atoms: C_14  and  C_15
REMARK    5  A    between atoms: C_15  and  N_16
REMARK    6  A    between atoms: N_16  and  C_17
REMARK    7  A    between atoms: C_17  and  C_18
REMARK    8  A    between atoms: N_22  and  C_23
REMARK                            x       y       z     vdW  Elec       q    Type
REMARK                         _______ _______ _______ _____ _____    ______ ____
ROOT
ATOM      1  C   UNL     1       8.191   8.711  18.254  0.00  0.00    +0.000 A 
ATOM      2  C   UNL     1       7.260   8.293  17.327  0.00  0.00    +0.000 A 
ATOM      3  N   UNL     1       7.138   6.952  17.552  0.00  0.00    +0.000 N 
ATOM      4  C   UNL     1       7.956   6.601  18.579  0.00  0.00    +0.000 A 
ATOM      5  N   UNL     1       8.603   7.655  19.033  0.00  0.00    +0.000 NA
ATOM      6  C   UNL     1       8.075   5.203  19.039  0.00  0.00    +0.000 C 
ATOM      7  O   UNL     1       6.924   4.435  18.707  0.00  0.00    +0.000 OA
ATOM      8  C   UNL     1       6.266   4.622  17.448  0.00  0.00    +0.000 C 
ATOM      9  C   UNL     1       6.283   6.040  16.852  0.00  0.00    +0.000 C 
ENDROOT
BRANCH   1  13
ATOM     10  C   UNL     1       9.696  12.660  18.787  0.00  0.00    +0.000 A 
ATOM     11  C   UNL     1      10.068  11.628  19.655  0.00  0.00    +0.000 A 
ATOM     12  C   UNL     1       9.577  10.338  19.470  0.00  0.00    +0.000 A 
ATOM     13  C   UNL     1       8.678  10.063  18.427  0.00  0.00    +0.000 A 
ATOM     14  C   UNL     1       8.297  11.102  17.578  0.00  0.00    +0.000 A 
ATOM     15  C   UNL     1       8.800  12.397  17.753  0.00  0.00    +0.000 A 
BRANCH  10  17
ATOM     16  C   UNL     1      10.282  14.801  17.988  0.00  0.00    +0.000 C 
ATOM     17  O   UNL     1      10.240  13.881  19.073  0.00  0.00    +0.000 OA
ENDBRANCH  10  17
ENDBRANCH   1  13
BRANCH   8  18
ATOM     18  C   UNL     1       4.816   4.186  17.760  0.00  0.00    +0.000 C 
BRANCH  18  19
ATOM     19  N   UNL     1       3.785   4.982  17.101  0.00  0.00    +0.000 NA
ATOM     20  H   UNL     1       3.273   4.413  16.423  0.00  0.00    +0.000 HD
BRANCH  19  21
ATOM     21  C   UNL     1       2.806   5.451  18.088  0.00  0.00    +0.000 C 
BRANCH  21  22
ATOM     22  C   UNL     1       2.001   4.294  18.579  0.00  0.00    +0.000 A 
ATOM     23  N   UNL     1       1.401   3.397  17.816  0.00  0.00    +0.000 NA
ATOM     24  C   UNL     1       0.782   2.531  18.676  0.00  0.00    +0.000 A 
ATOM     25  C   UNL     1       0.990   2.906  19.981  0.00  0.00    +0.000 A 
ATOM     26  N   UNL     1       1.757   4.036  19.909  0.00  0.00    +0.000 N 
ATOM     27  C   UNL     1       2.216   4.814  21.032  0.00  0.00    +0.000 C 
ENDBRANCH  21  22
ENDBRANCH  19  21
ENDBRANCH  18  19
ENDBRANCH   8  18
TORSDOF 6
ENDMDL
MODEL 3
REMARK VINA RESULT:      -7.4      1.084      1.759
REMARK  Name = 
REMARK  8 active torsions:
REMARK  status: ('A' for Active; 'I' for Inactive)
REMARK    1  A    between atoms: C_1  and  O_2
REMARK    2  A    between atoms: O_2  and  C_3
REMARK    3  A    between atoms: C_6  and  C_7
REMARK    4  A    between atoms: C_14  and  C_15
REMARK    5  A    between atoms: C_15  and  N_16
REMARK    6  A    between atoms: N_16  and  C_17
REMARK    7  A    between atoms: C_17  and  C_18
REMARK    8  A    between atoms: N_22  and  C_23
REMARK                            x       y       z     vdW  Elec       q    Type
REMARK                         _______ _______ _______ _____ _____    ______ ____
ROOT
ATOM      1  C   UNL     1       8.246   8.731  18.223  0.00  0.00    +0.000 A 
ATOM      2  C   UNL     1       7.347   8.275  17.281  0.00  0.00    +0.000 A 
ATOM      3  N   UNL     1       7.241   6.937  17.537  0.00  0.00    +0.000 N 
ATOM      4  C   UNL     1       8.037   6.626  18.594  0.00  0.00    +0.000 A 
ATOM      5  N   UNL     1       8.654   7.701  19.038  0.00  0.00    +0.000 NA
ATOM      6  C   UNL     1       8.167   5.242  19.091  0.00  0.00    +0.000 C 
ATOM      7  O   UNL     1       7.038   4.447  18.749  0.00  0.00    +0.000 OA
ATOM      8  C   UNL     1       6.411   4.591  17.468  0.00  0.00    +0.000 C 
ATOM      9  C   UNL     1       6.420   5.995  16.837  0.00  0.00    +0.000 C 
ENDROOT
BRANCH   1  13
ATOM     10  C   UNL     1       9.672  12.717  18.690  0.00  0.00    +0.000 A 
ATOM     11  C   UNL     1      10.115  11.694  19.535  0.00  0.00    +0.000 A 
ATOM     12  C   UNL     1       9.649  10.391  19.371  0.00  0.00    +0.000 A 
ATOM     13  C   UNL     1       8.706  10.096  18.375  0.00  0.00    +0.000 A 
ATOM     14  C   UNL     1       8.254  11.126  17.549  0.00  0.00    +0.000 A 
ATOM     15  C   UNL     1       8.732  12.433  17.702  0.00  0.00    +0.000 A 
BRANCH  10  17
ATOM     16  C   UNL     1       9.572  15.039  18.280  0.00  0.00    +0.000 C 
ATOM     17  O   UNL     1      10.199  13.952  18.951  0.00  0.00    +0.000 OA
ENDBRANCH  10  17
ENDBRANCH   1  13
BRANCH   8  18
ATOM     18  C   UNL     1       4.961   4.138  17.753  0.00  0.00    +0.000 C 
BRANCH  18  19
ATOM     19  N   UNL     1       4.848   2.898  18.514  0.00  0.00    +0.000 NA
ATOM     20  H   UNL     1       4.954   3.082  19.515  0.00  0.00    +0.000 HD
BRANCH  19  21
ATOM     21  C   UNL     1       3.515   2.315  18.328  0.00  0.00    +0.000 C 
BRANCH  21  22
ATOM     22  C   UNL     1       2.576   2.884  19.340  0.00  0.00    +0.000 A 
ATOM     23  N   UNL     1       2.535   2.554  20.619  0.00  0.00    +0.000 NA
ATOM     24  C   UNL     1       1.532   3.309  21.165  0.00  0.00    +0.000 A 
ATOM     25  C   UNL     1       0.941   4.101  20.211  0.00  0.00    +0.000 A 
ATOM     26  N   UNL     1       1.605   3.814  19.050  0.00  0.00    +0.000 N 
ATOM     27  C   UNL     1       1.322   4.386  17.757  0.00  0.00    +0.000 C 
ENDBRANCH  21  22
ENDBRANCH  19  21
ENDBRANCH  18  19
ENDBRANCH   8  18
TORSDOF 6
ENDMDL
MODEL 4
REMARK VINA RESULT:      -7.3      1.022      1.107
REMARK  Name = 
REMARK  8 active torsions:
REMARK  status: ('A' for Active; 'I' for Inactive)
REMARK    1  A    between atoms: C_1  and  O_2
REMARK    2  A    between atoms: O_2  and  C_3
REMARK    3  A    between atoms: C_6  and  C_7
REMARK    4  A    between atoms: C_14  and  C_15
REMARK    5  A    between atoms: C_15  and  N_16
REMARK    6  A    between atoms: N_16  and  C_17
REMARK    7  A    between atoms: C_17  and  C_18
REMARK    8  A    between atoms: N_22  and  C_23
REMARK                            x       y       z     vdW  Elec       q    Type
REMARK                         _______ _______ _______ _____ _____    ______ ____
ROOT
ATOM      1  C   UNL     1       8.227   8.662  18.266  0.00  0.00    +0.000 A 
ATOM      2  C   UNL     1       7.320   8.291  17.295  0.00  0.00    +0.000 A 
ATOM      3  N   UNL     1       7.172   6.945  17.469  0.00  0.00    +0.000 N 
ATOM      4  C   UNL     1       7.950   6.547  18.510  0.00  0.00    +0.000 A 
ATOM      5  N   UNL     1       8.598   7.574  19.020  0.00  0.00    +0.000 NA
ATOM      6  C   UNL     1       8.034   5.132  18.924  0.00  0.00    +0.000 C 
ATOM      7  O   UNL     1       6.884   4.394  18.530  0.00  0.00    +0.000 OA
ATOM      8  C   UNL     1       6.269   4.634  17.258  0.00  0.00    +0.000 C 
ATOM      9  C   UNL     1       6.326   6.071  16.712  0.00  0.00    +0.000 C 
ENDROOT
BRANCH   1  13
ATOM     10  C   UNL     1       9.632  12.628  18.930  0.00  0.00    +0.000 A 
ATOM     11  C   UNL     1       8.826  12.329  17.827  0.00  0.00    +0.000 A 
ATOM     12  C   UNL     1       8.365  11.031  17.620  0.00  0.00    +0.000 A 
ATOM     13  C   UNL     1       8.728  10.000  18.501  0.00  0.00    +0.000 A 
ATOM     14  C   UNL     1       9.549  10.303  19.588  0.00  0.00    +0.000 A 
ATOM     15  C   UNL     1      10.002  11.610  19.806  0.00  0.00    +0.000 A 
BRANCH  10  17
ATOM     16  C   UNL     1      10.489  14.522  17.814  0.00  0.00    +0.000 C 
ATOM     17  O   UNL     1      10.024  13.934  19.023  0.00  0.00    +0.000 OA
ENDBRANCH  10  17
ENDBRANCH   1  13
BRANCH   8  18
ATOM     18  C   UNL     1       4.804   4.211  17.508  0.00  0.00    +0.000 C 
BRANCH  18  19
ATOM     19  N   UNL     1       4.630   2.811  17.884  0.00  0.00    +0.000 NA
ATOM     20  H   UNL     1       5.525   2.318  17.849  0.00  0.00    +0.000 HD
BRANCH  19  21
ATOM     21  C   UNL     1       4.150   2.720  19.268  0.00  0.00    +0.000 C 
BRANCH  21  22
ATOM     22  C   UNL     1       2.658   2.753  19.281  0.00  0.00    +0.000 A 
ATOM     23  N   UNL     1       1.867   2.016  18.520  0.00  0.00    +0.000 NA
ATOM     24  C   UNL     1       0.590   2.371  18.857  0.00  0.00    +0.000 A 
ATOM     25  C   UNL     1       0.592   3.346  19.824  0.00  0.00    +0.000 A 
ATOM     26  N   UNL     1       1.914   3.590  20.079  0.00  0.00    +0.000 N 
ATOM     27  C   UNL     1       2.424   4.562  21.014  0.00  0.00    +0.000 C 
ENDBRANCH  21  22
ENDBRANCH  19  21
ENDBRANCH  18  19
ENDBRANCH   8  18
TORSDOF 6
ENDMDL
MODEL 5
REMARK VINA RESULT:      -7.3      0.791      1.632
REMARK  Name = 
REMARK  8 active torsions:
REMARK  status: ('A' for Active; 'I' for Inactive)
REMARK    1  A    between atoms: C_1  and  O_2
REMARK    2  A    between atoms: O_2  and  C_3
REMARK    3  A    between atoms: C_6  and  C_7
REMARK    4  A    between atoms: C_14  and  C_15
REMARK    5  A    between atoms: C_15  and  N_16
REMARK    6  A    between atoms: N_16  and  C_17
REMARK    7  A    between atoms: C_17  and  C_18
REMARK    8  A    between atoms: N_22  and  C_23
REMARK                            x       y       z     vdW  Elec       q    Type
REMARK                         _______ _______ _______ _____ _____    ______ ____
ROOT
ATOM      1  C   UNL     1       8.349   8.723  18.407  0.00  0.00    +0.000 A 
ATOM      2  C   UNL     1       7.370   8.545  17.451  0.00  0.00    +0.000 A 
ATOM      3  N   UNL     1       7.076   7.213  17.514  0.00  0.00    +0.000 N 
ATOM      4  C   UNL     1       7.843   6.638  18.477  0.00  0.00    +0.000 A 
ATOM      5  N   UNL     1       8.622   7.536  19.044  0.00  0.00    +0.000 NA
ATOM      6  C   UNL     1       7.781   5.189  18.762  0.00  0.00    +0.000 C 
ATOM      7  O   UNL     1       6.541   4.622  18.360  0.00  0.00    +0.000 OA
ATOM      8  C   UNL     1       5.910   5.044  17.144  0.00  0.00    +0.000 C 
ATOM      9  C   UNL     1       6.109   6.511  16.724  0.00  0.00    +0.000 C 
ENDROOT
BRANCH   1  13
ATOM     10  C   UNL     1      10.323  12.356  19.430  0.00  0.00    +0.000 A 
ATOM     11  C   UNL     1       9.904  11.464  20.423  0.00  0.00    +0.000 A 
ATOM     12  C   UNL     1       9.265  10.275  20.080  0.00  0.00    +0.000 A 
ATOM     13  C   UNL     1       9.007   9.971  18.734  0.00  0.00    +0.000 A 
ATOM     14  C   UNL     1       9.410  10.875  17.751  0.00  0.00    +0.000 A 
ATOM     15  C   UNL     1      10.066  12.065  18.092  0.00  0.00    +0.000 A 
BRANCH  10  17
ATOM     16  C   UNL     1      10.091  14.405  20.578  0.00  0.00    +0.000 C 
ATOM     17  O   UNL     1      10.935  13.488  19.891  0.00  0.00    +0.000 OA
ENDBRANCH  10  17
ENDBRANCH   1  13
BRANCH   8  18
ATOM     18  C   UNL     1       4.417   4.763  17.426  0.00  0.00    +0.000 C 
BRANCH  18  19
ATOM     19  N   UNL     1       3.769   5.733  18.305  0.00  0.00    +0.000 NA
ATOM     20  H   UNL     1       3.800   6.667  17.889  0.00  0.00    +0.000 HD
BRANCH  19  21
ATOM     21  C   UNL     1       2.353   5.389  18.473  0.00  0.00    +0.000 C 
BRANCH  21  22
ATOM     22  C   UNL     1       2.200   4.465  19.636  0.00  0.00    +0.000 A 
ATOM     23  N   UNL     1       2.380   4.791  20.904  0.00  0.00    +0.000 NA
ATOM     24  C   UNL     1       2.142   3.650  21.619  0.00  0.00    +0.000 A 
ATOM     25  C   UNL     1       1.824   2.606  20.783  0.00  0.00    +0.000 A 
ATOM     26  N   UNL     1       1.876   3.133  19.522  0.00  0.00    +0.000 N 
ATOM     27  C   UNL     1       1.639   2.409  18.298  0.00  0.00    +0.000 C 
ENDBRANCH  21  22
ENDBRANCH  19  21
ENDBRANCH  18  19
ENDBRANCH   8  18
TORSDOF 6
ENDMDL
MODEL 6
REMARK VINA RESULT:      -7.3      0.994      1.428
REMARK  Name = 
REMARK  8 active torsions:
REMARK  status: ('A' for Active; 'I' for Inactive)
REMARK    1  A    between atoms: C_1  and  O_2
REMARK    2  A    between atoms: O_2  and  C_3
REMARK    3  A    between atoms: C_6  and  C_7
REMARK    4  A    between atoms: C_14  and  C_15
REMARK    5  A    between atoms: C_15  and  N_16
REMARK    6  A    between atoms: N_16  and  C_17
REMARK    7  A    between atoms: C_17  and  C_18
REMARK    8  A    between atoms: N_22  and  C_23
REMARK                            x       y       z     vdW  Elec       q    Type
REMARK                         _______ _______ _______ _____ _____    ______ ____
ROOT
ATOM      1  C   UNL     1       8.155   8.722  18.196  0.00  0.00    +0.000 A 
ATOM      2  C   UNL     1       7.177   8.515  17.246  0.00  0.00    +0.000 A 
ATOM      3  N   UNL     1       6.953   7.168  17.281  0.00  0.00    +0.000 N 
ATOM      4  C   UNL     1       7.759   6.612  18.223  0.00  0.00    +0.000 A 
ATOM      5  N   UNL     1       8.496   7.536  18.803  0.00  0.00    +0.000 NA
ATOM      6  C   UNL     1       7.775   5.156  18.474  0.00  0.00    +0.000 C 
ATOM      7  O   UNL     1       6.561   4.534  18.071  0.00  0.00    +0.000 OA
ATOM      8  C   UNL     1       5.896   4.951  16.871  0.00  0.00    +0.000 C 
ATOM      9  C   UNL     1       6.015   6.436  16.484  0.00  0.00    +0.000 C 
ENDROOT
BRANCH   1  13
ATOM     10  C   UNL     1       9.969  12.425  19.264  0.00  0.00    +0.000 A 
ATOM     11  C   UNL     1       9.995  11.336  20.141  0.00  0.00    +0.000 A 
ATOM     12  C   UNL     1       9.405  10.125  19.782  0.00  0.00    +0.000 A 
ATOM     13  C   UNL     1       8.752   9.994  18.546  0.00  0.00    +0.000 A 
ATOM     14  C   UNL     1       8.714  11.091  17.685  0.00  0.00    +0.000 A 
ATOM     15  C   UNL     1       9.318  12.304  18.038  0.00  0.00    +0.000 A 
BRANCH  10  17
ATOM     16  C   UNL     1      11.983  13.627  19.516  0.00  0.00    +0.000 C 
ATOM     17  O   UNL     1      10.579  13.556  19.729  0.00  0.00    +0.000 OA
ENDBRANCH  10  17
ENDBRANCH   1  13
BRANCH   8  18
ATOM     18  C   UNL     1       4.422   4.587  17.161  0.00  0.00    +0.000 C 
BRANCH  18  19
ATOM     19  N   UNL     1       3.658   5.630  17.838  0.00  0.00    +0.000 NA
ATOM     20  H   UNL     1       2.777   5.803  17.348  0.00  0.00    +0.000 HD
BRANCH  19  21
ATOM     21  C   UNL     1       3.312   5.196  19.196  0.00  0.00    +0.000 C 
BRANCH  21  22
ATOM     22  C   UNL     1       2.467   3.967  19.126  0.00  0.00    +0.000 A 
ATOM     23  N   UNL     1       1.232   3.910  18.659  0.00  0.00    +0.000 NA
ATOM     24  C   UNL     1       0.845   2.604  18.788  0.00  0.00    +0.000 A 
ATOM     25  C   UNL     1       1.846   1.851  19.353  0.00  0.00    +0.000 A 
ATOM     26  N   UNL     1       2.870   2.730  19.575  0.00  0.00    +0.000 N 
ATOM     27  C   UNL     1       4.138   2.408  20.181  0.00  0.00    +0.000 C 
ENDBRANCH  21  22
ENDBRANCH  19  21
ENDBRANCH  18  19
ENDBRANCH   8  18
TORSDOF 6
ENDMDL
MODEL 7
REMARK VINA RESULT:      -7.1      0.960      1.458
REMARK  Name = 
REMARK  8 active torsions:
REMARK  status: ('A' for Active; 'I' for Inactive)
REMARK    1  A    between atoms: C_1  and  O_2
REMARK    2  A    between atoms: O_2  and  C_3
REMARK    3  A    between atoms: C_6  and  C_7
REMARK    4  A    between atoms: C_14  and  C_15
REMARK    5  A    between atoms: C_15  and  N_16
REMARK    6  A    between atoms: N_16  and  C_17
REMARK    7  A    between atoms: C_17  and  C_18
REMARK    8  A    between atoms: N_22  and  C_23
REMARK                            x       y       z     vdW  Elec       q    Type
REMARK                         _______ _______ _______ _____ _____    ______ ____
ROOT
ATOM      1  C   UNL     1       8.255   8.521  18.200  0.00  0.00    +0.000 A 
ATOM      2  C   UNL     1       7.559   8.137  17.074  0.00  0.00    +0.000 A 
ATOM      3  N   UNL     1       7.358   6.796  17.243  0.00  0.00    +0.000 N 
ATOM      4  C   UNL     1       7.905   6.415  18.427  0.00  0.00    +0.000 A 
ATOM      5  N   UNL     1       8.450   7.447  19.037  0.00  0.00    +0.000 NA
ATOM      6  C   UNL     1       7.882   5.009  18.880  0.00  0.00    +0.000 C 
ATOM      7  O   UNL     1       6.824   4.274  18.276  0.00  0.00    +0.000 OA
ATOM      8  C   UNL     1       6.483   4.490  16.901  0.00  0.00    +0.000 C 
ATOM      9  C   UNL     1       6.671   5.914  16.348  0.00  0.00    +0.000 C 
ENDROOT
BRANCH   1  13
ATOM     10  C   UNL     1       9.550  12.487  19.063  0.00  0.00    +0.000 A 
ATOM     11  C   UNL     1       8.820  12.208  17.903  0.00  0.00    +0.000 A 
ATOM     12  C   UNL     1       8.394  10.909  17.631  0.00  0.00    +0.000 A 
ATOM     13  C   UNL     1       8.718   9.859  18.504  0.00  0.00    +0.000 A 
ATOM     14  C   UNL     1       9.464  10.142  19.649  0.00  0.00    +0.000 A 
ATOM     15  C   UNL     1       9.880  11.449  19.932  0.00  0.00    +0.000 A 
BRANCH  10  17
ATOM     16  C   UNL     1       9.634  14.643  18.109  0.00  0.00    +0.000 C 
ATOM     17  O   UNL     1       9.912  13.795  19.218  0.00  0.00    +0.000 OA
ENDBRANCH  10  17
ENDBRANCH   1  13
BRANCH   8  18
ATOM     18  C   UNL     1       4.992   4.088  16.858  0.00  0.00    +0.000 C 
BRANCH  18  19
ATOM     19  N   UNL     1       4.563   3.223  17.953  0.00  0.00    +0.000 NA
ATOM     20  H   UNL     1       4.907   3.581  18.847  0.00  0.00    +0.000 HD
BRANCH  19  21
ATOM     21  C   UNL     1       3.098   3.208  18.036  0.00  0.00    +0.000 C 
BRANCH  21  22
ATOM     22  C   UNL     1       2.644   4.248  19.005  0.00  0.00    +0.000 A 
ATOM     23  N   UNL     1       2.712   5.554  18.817  0.00  0.00    +0.000 NA
ATOM     24  C   UNL     1       2.195   6.121  19.950  0.00  0.00    +0.000 A 
ATOM     25  C   UNL     1       1.817   5.155  20.851  0.00  0.00    +0.000 A 
ATOM     26  N   UNL     1       2.118   3.966  20.245  0.00  0.00    +0.000 N 
ATOM     27  C   UNL     1       1.922   2.657  20.817  0.00  0.00    +0.000 C 
ENDBRANCH  21  22
ENDBRANCH  19  21
ENDBRANCH  18  19
ENDBRANCH   8  18
TORSDOF 6
ENDMDL
MODEL 8
REMARK VINA RESULT:      -7.1      6.329      9.544
REMARK  Name = 
REMARK  8 active torsions:
REMARK  status: ('A' for Active; 'I' for Inactive)
REMARK    1  A    between atoms: C_1  and  O_2
REMARK    2  A    between atoms: O_2  and  C_3
REMARK    3  A    between atoms: C_6  and  C_7
REMARK    4  A    between atoms: C_14  and  C_15
REMARK    5  A    between atoms: C_15  and  N_16
REMARK    6  A    between atoms: N_16  and  C_17
REMARK    7  A    between atoms: C_17  and  C_18
REMARK    8  A    between atoms: N_22  and  C_23
REMARK                            x       y       z     vdW  Elec       q    Type
REMARK                         _______ _______ _______ _____ _____    ______ ____
ROOT
ATOM      1  C   UNL     1       1.796   7.749  19.972  0.00  0.00    +0.000 A 
ATOM      2  C   UNL     1       1.150   8.308  21.055  0.00  0.00    +0.000 A 
ATOM      3  N   UNL     1       0.872   9.585  20.658  0.00  0.00    +0.000 N 
ATOM      4  C   UNL     1       1.325   9.761  19.389  0.00  0.00    +0.000 A 
ATOM      5  N   UNL     1       1.885   8.656  18.942  0.00  0.00    +0.000 NA
ATOM      6  C   UNL     1       1.204  11.057  18.690  0.00  0.00    +0.000 C 
ATOM      7  O   UNL     1       0.149  11.849  19.221  0.00  0.00    +0.000 OA
ATOM      8  C   UNL     1      -0.097  11.879  20.633  0.00  0.00    +0.000 C 
ATOM      9  C   UNL     1       0.196  10.591  21.422  0.00  0.00    +0.000 C 
ENDROOT
BRANCH   1  13
ATOM     10  C   UNL     1       3.225   3.743  19.732  0.00  0.00    +0.000 A 
ATOM     11  C   UNL     1       2.195   4.085  20.614  0.00  0.00    +0.000 A 
ATOM     12  C   UNL     1       1.728   5.396  20.682  0.00  0.00    +0.000 A 
ATOM     13  C   UNL     1       2.307   6.397  19.887  0.00  0.00    +0.000 A 
ATOM     14  C   UNL     1       3.348   6.052  19.024  0.00  0.00    +0.000 A 
ATOM     15  C   UNL     1       3.809   4.732  18.943  0.00  0.00    +0.000 A 
BRANCH  10  17
ATOM     16  C   UNL     1       3.313   1.688  18.577  0.00  0.00    +0.000 C 
ATOM     17  O   UNL     1       3.597   2.428  19.759  0.00  0.00    +0.000 OA
ENDBRANCH  10  17
ENDBRANCH   1  13
BRANCH   8  18
ATOM     18  C   UNL     1      -1.602  12.224  20.704  0.00  0.00    +0.000 C 
BRANCH  18  19
ATOM     19  N   UNL     1      -2.180  12.690  19.447  0.00  0.00    +0.000 NA
ATOM     20  H   UNL     1      -1.532  12.524  18.673  0.00  0.00    +0.000 HD
BRANCH  19  21
ATOM     21  C   UNL     1      -3.402  11.937  19.148  0.00  0.00    +0.000 C 
BRANCH  21  22
ATOM     22  C   UNL     1      -3.328  11.398  17.758  0.00  0.00    +0.000 A 
ATOM     23  N   UNL     1      -2.302  10.744  17.242  0.00  0.00    +0.000 NA
ATOM     24  C   UNL     1      -2.660  10.446  15.955  0.00  0.00    +0.000 A 
ATOM     25  C   UNL     1      -3.913  10.932  15.671  0.00  0.00    +0.000 A 
ATOM     26  N   UNL     1      -4.325  11.547  16.821  0.00  0.00    +0.000 N 
ATOM     27  C   UNL     1      -5.580  12.234  17.004  0.00  0.00    +0.000 C 
ENDBRANCH  21  22
ENDBRANCH  19  21
ENDBRANCH  18  19
ENDBRANCH   8  18
TORSDOF 6
ENDMDL
MODEL 9
REMARK VINA RESULT:      -7.1      6.472      9.219
REMARK  Name = 
REMARK  8 active torsions:
REMARK  status: ('A' for Active; 'I' for Inactive)
REMARK    1  A    between atoms: C_1  and  O_2
REMARK    2  A    between atoms: O_2  and  C_3
REMARK    3  A    between atoms: C_6  and  C_7
REMARK    4  A    between atoms: C_14  and  C_15
REMARK    5  A    between atoms: C_15  and  N_16
REMARK    6  A    between atoms: N_16  and  C_17
REMARK    7  A    between atoms: C_17  and  C_18
REMARK    8  A    between atoms: N_22  and  C_23
REMARK                            x       y       z     vdW  Elec       q    Type
REMARK                         _______ _______ _______ _____ _____    ______ ____
ROOT
ATOM      1  C   UNL     1       2.868   7.097  18.239  0.00  0.00    +0.000 A 
ATOM      2  C   UNL     1       2.381   8.291  17.751  0.00  0.00    +0.000 A 
ATOM      3  N   UNL     1       1.702   8.835  18.804  0.00  0.00    +0.000 N 
ATOM      4  C   UNL     1       1.799   7.998  19.870  0.00  0.00    +0.000 A 
ATOM      5  N   UNL     1       2.511   6.935  19.558  0.00  0.00    +0.000 NA
ATOM      6  C   UNL     1       1.135   8.293  21.156  0.00  0.00    +0.000 C 
ATOM      7  O   UNL     1       0.893   9.684  21.321  0.00  0.00    +0.000 OA
ATOM      8  C   UNL     1       0.476  10.486  20.208  0.00  0.00    +0.000 C 
ATOM      9  C   UNL     1       1.010  10.089  18.820  0.00  0.00    +0.000 C 
ENDROOT
BRANCH   1  13
ATOM     10  C   UNL     1       5.261   4.308  16.086  0.00  0.00    +0.000 A 
ATOM     11  C   UNL     1       5.421   5.685  15.898  0.00  0.00    +0.000 A 
ATOM     12  C   UNL     1       4.639   6.591  16.611  0.00  0.00    +0.000 A 
ATOM     13  C   UNL     1       3.660   6.132  17.506  0.00  0.00    +0.000 A 
ATOM     14  C   UNL     1       3.493   4.757  17.673  0.00  0.00    +0.000 A 
ATOM     15  C   UNL     1       4.287   3.844  16.968  0.00  0.00    +0.000 A 
BRANCH  10  17
ATOM     16  C   UNL     1       6.445   4.056  14.061  0.00  0.00    +0.000 C 
ATOM     17  O   UNL     1       6.083   3.521  15.328  0.00  0.00    +0.000 OA
ENDBRANCH  10  17
ENDBRANCH   1  13
BRANCH   8  18
ATOM     18  C   UNL     1       0.983  11.892  20.599  0.00  0.00    +0.000 C 
BRANCH  18  19
ATOM     19  N   UNL     1       0.492  12.382  21.883  0.00  0.00    +0.000 NA
ATOM     20  H   UNL     1       1.012  13.214  22.171  0.00  0.00    +0.000 HD
BRANCH  19  21
ATOM     21  C   UNL     1      -0.915  12.782  21.762  0.00  0.00    +0.000 C 
BRANCH  21  22
ATOM     22  C   UNL     1      -1.283  13.666  22.906  0.00  0.00    +0.000 A 
ATOM     23  N   UNL     1      -0.545  14.655  23.379  0.00  0.00    +0.000 NA
ATOM     24  C   UNL     1      -1.257  15.186  24.420  0.00  0.00    +0.000 A 
ATOM     25  C   UNL     1      -2.439  14.509  24.599  0.00  0.00    +0.000 A 
ATOM     26  N   UNL     1      -2.440  13.536  23.638  0.00  0.00    +0.000 N 
ATOM     27  C   UNL     1      -3.473  12.549  23.442  0.00  0.00    +0.000 C 
ENDBRANCH  21  22
ENDBRANCH  19  21
ENDBRANCH  18  19
ENDBRANCH   8  18
TORSDOF 6
ENDMDL
