MODEL 1
REMARK VINA RESULT:      -8.1      0.000      0.000
REMARK  Name = 
REMARK  13 active torsions:
REMARK  status: ('A' for Active; 'I' for Inactive)
REMARK    1  A    between atoms: C_1  and  C_2
REMARK    2  A    between atoms: C_2  and  C_3
REMARK    3  A    between atoms: C_3  and  C_4
REMARK    4  A    between atoms: C_4  and  O_5
REMARK    5  A    between atoms: O_5  and  C_6
REMARK    6  A    between atoms: C_11  and  N_12
REMARK    7  A    between atoms: N_12  and  C_31
REMARK    8  A    between atoms: N_15  and  C_16
REMARK    9  A    between atoms: C_16  and  C_17
REMARK   10  A    between atoms: C_17  and  C_18
REMARK   11  A    between atoms: C_18  and  O_19
REMARK   12  A    between atoms: O_19  and  C_20
REMARK   13  A    between atoms: C_25  and  O_26
REMARK                            x       y       z     vdW  Elec       q    Type
REMARK                         _______ _______ _______ _____ _____    ______ ____
ROOT
ATOM      1  N   UNL     1       0.646   9.781  20.095  0.00  0.00    +0.000 N 
ATOM      2  C   UNL     1       1.556   9.206  19.173  0.00  0.00    +0.000 C 
ATOM      3  O   UNL     1       2.034   9.770  18.205  0.00  0.00    +0.000 OA
ATOM      4  N   UNL     1       1.892   7.901  19.512  0.00  0.00    +0.000 N 
ATOM      5  H   UNL     1       1.154   7.416  19.997  0.00  0.00    +0.000 HD
ENDROOT
BRANCH   1  11
ATOM      6  C   UNL     1      -0.527  11.503  18.465  0.00  0.00    +0.000 C 
ATOM      7  C   UNL     1      -0.786  13.015  18.263  0.00  0.00    +0.000 C 
ATOM      8  C   UNL     1       0.385  13.897  18.633  0.00  0.00    +0.000 C 
ATOM      9  C   UNL     1       0.747  13.673  20.084  0.00  0.00    +0.000 C 
ATOM     10  C   UNL     1       1.169  12.224  20.306  0.00  0.00    +0.000 C 
ATOM     11  C   UNL     1       0.107  11.183  19.882  0.00  0.00    +0.000 C 
BRANCH   6  12
ATOM     12  O   UNL     1      -1.792  10.805  18.315  0.00  0.00    +0.000 OA
BRANCH  12  13
ATOM     13  C   UNL     1      -2.898  11.687  18.071  0.00  0.00    +0.000 C 
BRANCH  13  14
ATOM     14  C   UNL     1      -3.666  11.284  16.816  0.00  0.00    +0.000 C 
BRANCH  14  16
ATOM     15  C   UNL     1      -3.567  10.120  14.580  0.00  0.00    +0.000 C 
ATOM     16  C   UNL     1      -2.832  10.403  15.882  0.00  0.00    +0.000 C 
ENDBRANCH  14  16
ENDBRANCH  13  14
ENDBRANCH  12  13
ENDBRANCH   6  12
ENDBRANCH   1  11
BRANCH   1  17
ATOM     17  C   UNL     1       0.761   9.333  21.487  0.00  0.00    +0.000 C 
ATOM     18  C   UNL     1       0.084   9.941  22.681  0.00  0.00    +0.000 C 
ATOM     19  C   UNL     1      -0.391   8.621  22.158  0.00  0.00    +0.000 C 
ENDBRANCH   1  17
BRANCH   4  20
ATOM     20  C   UNL     1       2.800   7.078  18.729  0.00  0.00    +0.000 C 
BRANCH  20  21
ATOM     21  C   UNL     1       2.481   5.583  18.791  0.00  0.00    +0.000 C 
BRANCH  21  22
ATOM     22  C   UNL     1       3.163   4.901  19.977  0.00  0.00    +0.000 C 
BRANCH  22  23
ATOM     23  O   UNL     1       4.100   3.921  19.511  0.00  0.00    +0.000 OA
BRANCH  23  24
ATOM     24  C   UNL     1       4.995   4.354  18.564  0.00  0.00    +0.000 A 
ATOM     25  C   UNL     1       6.097   5.170  18.808  0.00  0.00    +0.000 A 
ATOM     26  C   UNL     1       6.944   5.552  17.764  0.00  0.00    +0.000 A 
ATOM     27  C   UNL     1       6.729   5.141  16.461  0.00  0.00    +0.000 A 
ATOM     28  N   UNL     1       7.583   5.541  15.504  0.00  0.00    +0.000 NA
ATOM     29  C   UNL     1       7.333   5.124  14.258  0.00  0.00    +0.000 A 
ATOM     30  C   UNL     1       6.276   4.330  13.875  0.00  0.00    +0.000 A 
ATOM     31  C   UNL     1       5.398   3.916  14.871  0.00  0.00    +0.000 A 
ATOM     32  C   UNL     1       5.612   4.315  16.199  0.00  0.00    +0.000 A 
ATOM     33  C   UNL     1       4.757   3.925  17.255  0.00  0.00    +0.000 A 
BRANCH  29  34
ATOM     34  O   UNL     1       8.236   5.557  13.345  0.00  0.00    +0.000 OA
ATOM     35  H   UNL     1       7.882   5.125  12.548  0.00  0.00    +0.000 HD
ENDBRANCH  29  34
ENDBRANCH  23  24
ENDBRANCH  22  23
ENDBRANCH  21  22
ENDBRANCH  20  21
ENDBRANCH   4  20
TORSDOF 12
ENDMDL
MODEL 2
REMARK VINA RESULT:      -7.8      5.440      9.128
REMARK  Name = 
REMARK  13 active torsions:
REMARK  status: ('A' for Active; 'I' for Inactive)
REMARK    1  A    between atoms: C_1  and  C_2
REMARK    2  A    between atoms: C_2  and  C_3
REMARK    3  A    between atoms: C_3  and  C_4
REMARK    4  A    between atoms: C_4  and  O_5
REMARK    5  A    between atoms: O_5  and  C_6
REMARK    6  A    between atoms: C_11  and  N_12
REMARK    7  A    between atoms: N_12  and  C_31
REMARK    8  A    between atoms: N_15  and  C_16
REMARK    9  A    between atoms: C_16  and  C_17
REMARK   10  A    between atoms: C_17  and  C_18
REMARK   11  A    between atoms: C_18  and  O_19
REMARK   12  A    between atoms: O_19  and  C_20
REMARK   13  A    between atoms: C_25  and  O_26
REMARK                            x       y       z     vdW  Elec       q    Type
REMARK                         _______ _______ _______ _____ _____    ______ ____
ROOT
ATOM      1  N   UNL     1       4.266   5.356  19.142  0.00  0.00    +0.000 N 
ATOM      2  C   UNL     1       5.676   5.281  19.011  0.00  0.00    +0.000 C 
ATOM      3  O   UNL     1       6.350   4.282  19.189  0.00  0.00    +0.000 OA
ATOM      4  N   UNL     1       6.231   6.489  18.608  0.00  0.00    +0.000 N 
ATOM      5  H   UNL     1       5.707   7.290  18.925  0.00  0.00    +0.000 HD
ENDROOT
BRANCH   1  11
ATOM      6  C   UNL     1       2.622   3.375  18.538  0.00  0.00    +0.000 C 
ATOM      7  C   UNL     1       1.639   2.364  19.173  0.00  0.00    +0.000 C 
ATOM      8  C   UNL     1       0.814   2.933  20.306  0.00  0.00    +0.000 C 
ATOM      9  C   UNL     1       1.734   3.440  21.394  0.00  0.00    +0.000 C 
ATOM     10  C   UNL     1       2.621   4.559  20.858  0.00  0.00    +0.000 C 
ATOM     11  C   UNL     1       3.465   4.161  19.624  0.00  0.00    +0.000 C 
BRANCH   6  12
ATOM     12  O   UNL     1       3.510   2.643  17.650  0.00  0.00    +0.000 OA
BRANCH  12  13
ATOM     13  C   UNL     1       3.710   3.297  16.388  0.00  0.00    +0.000 C 
BRANCH  13  14
ATOM     14  C   UNL     1       5.193   3.430  16.057  0.00  0.00    +0.000 C 
BRANCH  14  16
ATOM     15  C   UNL     1       7.005   4.942  15.166  0.00  0.00    +0.000 C 
ATOM     16  C   UNL     1       5.506   4.725  15.301  0.00  0.00    +0.000 C 
ENDBRANCH  14  16
ENDBRANCH  13  14
ENDBRANCH  12  13
ENDBRANCH   6  12
ENDBRANCH   1  11
BRANCH   1  17
ATOM     17  C   UNL     1       3.577   6.277  18.229  0.00  0.00    +0.000 C 
ATOM     18  C   UNL     1       2.101   6.336  17.967  0.00  0.00    +0.000 C 
ATOM     19  C   UNL     1       2.748   7.416  18.776  0.00  0.00    +0.000 C 
ENDBRANCH   1  17
BRANCH   4  20
ATOM     20  C   UNL     1       7.658   6.688  18.408  0.00  0.00    +0.000 C 
BRANCH  20  21
ATOM     21  C   UNL     1       7.988   7.740  17.348  0.00  0.00    +0.000 C 
BRANCH  21  22
ATOM     22  C   UNL     1       7.927   9.159  17.910  0.00  0.00    +0.000 C 
BRANCH  22  23
ATOM     23  O   UNL     1       8.934   9.336  18.916  0.00  0.00    +0.000 OA
BRANCH  23  24
ATOM     24  C   UNL     1       9.492  10.589  18.987  0.00  0.00    +0.000 A 
ATOM     25  C   UNL     1      10.211  11.211  17.970  0.00  0.00    +0.000 A 
ATOM     26  C   UNL     1      10.738  12.493  18.153  0.00  0.00    +0.000 A 
ATOM     27  C   UNL     1      10.566  13.191  19.334  0.00  0.00    +0.000 A 
ATOM     28  N   UNL     1      11.094  14.422  19.444  0.00  0.00    +0.000 NA
ATOM     29  C   UNL     1      10.909  15.057  20.606  0.00  0.00    +0.000 A 
ATOM     30  C   UNL     1      10.232  14.557  21.695  0.00  0.00    +0.000 A 
ATOM     31  C   UNL     1       9.685  13.285  21.573  0.00  0.00    +0.000 A 
ATOM     32  C   UNL     1       9.840  12.570  20.376  0.00  0.00    +0.000 A 
ATOM     33  C   UNL     1       9.304  11.275  20.190  0.00  0.00    +0.000 A 
BRANCH  29  34
ATOM     34  O   UNL     1      11.460  16.295  20.646  0.00  0.00    +0.000 OA
ATOM     35  H   UNL     1      11.602  16.441  19.694  0.00  0.00    +0.000 HD
ENDBRANCH  29  34
ENDBRANCH  23  24
ENDBRANCH  22  23
ENDBRANCH  21  22
ENDBRANCH  20  21
ENDBRANCH   4  20
TORSDOF 12
ENDMDL
MODEL 3
REMARK VINA RESULT:      -7.8      0.835      1.146
REMARK  Name = 
REMARK  13 active torsions:
REMARK  status: ('A' for Active; 'I' for Inactive)
REMARK    1  A    between atoms: C_1  and  C_2
REMARK    2  A    between atoms: C_2  and  C_3
REMARK    3  A    between atoms: C_3  and  C_4
REMARK    4  A    between atoms: C_4  and  O_5
REMARK    5  A    between atoms: O_5  and  C_6
REMARK    6  A    between atoms: C_11  and  N_12
REMARK    7  A    between atoms: N_12  and  C_31
REMARK    8  A    between atoms: N_15  and  C_16
REMARK    9  A    between atoms: C_16  and  C_17
REMARK   10  A    between atoms: C_17  and  C_18
REMARK   11  A    between atoms: C_18  and  O_19
REMARK   12  A    between atoms: O_19  and  C_20
REMARK   13  A    between atoms: C_25  and  O_26
REMARK                            x       y       z     vdW  Elec       q    Type
REMARK                         _______ _______ _______ _____ _____    ______ ____
ROOT
ATOM      1  N   UNL     1       0.609   9.743  20.073  0.00  0.00    +0.000 N 
ATOM      2  C   UNL     1       1.500   9.164  19.135  0.00  0.00    +0.000 C 
ATOM      3  O   UNL     1       1.993   9.738  18.181  0.00  0.00    +0.000 OA
ATOM      4  N   UNL     1       1.798   7.842  19.441  0.00  0.00    +0.000 N 
ATOM      5  H   UNL     1       1.046   7.367  19.915  0.00  0.00    +0.000 HD
ENDROOT
BRANCH   1  11
ATOM      6  C   UNL     1      -0.634  11.504  18.540  0.00  0.00    +0.000 C 
ATOM      7  C   UNL     1      -0.847  13.024  18.348  0.00  0.00    +0.000 C 
ATOM      8  C   UNL     1       0.389  13.858  18.602  0.00  0.00    +0.000 C 
ATOM      9  C   UNL     1       0.871  13.627  20.017  0.00  0.00    +0.000 C 
ATOM     10  C   UNL     1       1.250  12.163  20.214  0.00  0.00    +0.000 C 
ATOM     11  C   UNL     1       0.111  11.166  19.897  0.00  0.00    +0.000 C 
BRANCH   6  12
ATOM     12  O   UNL     1      -1.935  10.859  18.511  0.00  0.00    +0.000 OA
BRANCH  12  13
ATOM     13  C   UNL     1      -3.021  11.770  18.735  0.00  0.00    +0.000 C 
BRANCH  13  14
ATOM     14  C   UNL     1      -4.261  11.366  17.943  0.00  0.00    +0.000 C 
BRANCH  14  16
ATOM     15  C   UNL     1      -6.710  11.965  17.852  0.00  0.00    +0.000 C 
ATOM     16  C   UNL     1      -5.551  11.554  18.747  0.00  0.00    +0.000 C 
ENDBRANCH  14  16
ENDBRANCH  13  14
ENDBRANCH  12  13
ENDBRANCH   6  12
ENDBRANCH   1  11
BRANCH   1  17
ATOM     17  C   UNL     1       0.712   9.256  21.454  0.00  0.00    +0.000 C 
ATOM     18  C   UNL     1       0.023   9.831  22.657  0.00  0.00    +0.000 C 
ATOM     19  C   UNL     1      -0.445   8.525  22.094  0.00  0.00    +0.000 C 
ENDBRANCH   1  17
BRANCH   4  20
ATOM     20  C   UNL     1       2.680   7.013  18.636  0.00  0.00    +0.000 C 
BRANCH  20  21
ATOM     21  C   UNL     1       2.411   5.514  18.777  0.00  0.00    +0.000 C 
BRANCH  21  22
ATOM     22  C   UNL     1       3.123   4.915  19.989  0.00  0.00    +0.000 C 
BRANCH  22  23
ATOM     23  O   UNL     1       4.108   3.963  19.564  0.00  0.00    +0.000 OA
BRANCH  23  24
ATOM     24  C   UNL     1       4.994   4.407  18.613  0.00  0.00    +0.000 A 
ATOM     25  C   UNL     1       6.057   5.277  18.845  0.00  0.00    +0.000 A 
ATOM     26  C   UNL     1       6.899   5.665  17.799  0.00  0.00    +0.000 A 
ATOM     27  C   UNL     1       6.718   5.205  16.507  0.00  0.00    +0.000 A 
ATOM     28  N   UNL     1       7.566   5.613  15.548  0.00  0.00    +0.000 NA
ATOM     29  C   UNL     1       7.350   5.148  14.313  0.00  0.00    +0.000 A 
ATOM     30  C   UNL     1       6.335   4.296  13.942  0.00  0.00    +0.000 A 
ATOM     31  C   UNL     1       5.463   3.875  14.941  0.00  0.00    +0.000 A 
ATOM     32  C   UNL     1       5.642   4.323  16.258  0.00  0.00    +0.000 A 
ATOM     33  C   UNL     1       4.793   3.927  17.316  0.00  0.00    +0.000 A 
BRANCH  29  34
ATOM     34  O   UNL     1       8.246   5.593  13.397  0.00  0.00    +0.000 OA
ATOM     35  H   UNL     1       7.979   5.051  12.633  0.00  0.00    +0.000 HD
ENDBRANCH  29  34
ENDBRANCH  23  24
ENDBRANCH  22  23
ENDBRANCH  21  22
ENDBRANCH  20  21
ENDBRANCH   4  20
TORSDOF 12
ENDMDL
MODEL 4
REMARK VINA RESULT:      -7.7      1.306      1.941
REMARK  Name = 
REMARK  13 active torsions:
REMARK  status: ('A' for Active; 'I' for Inactive)
REMARK    1  A    between atoms: C_1  and  C_2
REMARK    2  A    between atoms: C_2  and  C_3
REMARK    3  A    between atoms: C_3  and  C_4
REMARK    4  A    between atoms: C_4  and  O_5
REMARK    5  A    between atoms: O_5  and  C_6
REMARK    6  A    between atoms: C_11  and  N_12
REMARK    7  A    between atoms: N_12  and  C_31
REMARK    8  A    between atoms: N_15  and  C_16
REMARK    9  A    between atoms: C_16  and  C_17
REMARK   10  A    between atoms: C_17  and  C_18
REMARK   11  A    between atoms: C_18  and  O_19
REMARK   12  A    between atoms: O_19  and  C_20
REMARK   13  A    between atoms: C_25  and  O_26
REMARK                            x       y       z     vdW  Elec       q    Type
REMARK                         _______ _______ _______ _____ _____    ______ ____
ROOT
ATOM      1  N   UNL     1       1.111   9.196  19.804  0.00  0.00    +0.000 N 
ATOM      2  C   UNL     1       0.937   8.091  20.675  0.00  0.00    +0.000 C 
ATOM      3  O   UNL     1       0.162   8.044  21.613  0.00  0.00    +0.000 OA
ATOM      4  N   UNL     1       1.738   7.012  20.320  0.00  0.00    +0.000 N 
ATOM      5  H   UNL     1       2.601   7.289  19.879  0.00  0.00    +0.000 HD
ENDROOT
BRANCH   1  11
ATOM      6  C   UNL     1      -0.716  10.916  18.969  0.00  0.00    +0.000 C 
ATOM      7  C   UNL     1      -1.204  12.372  19.160  0.00  0.00    +0.000 C 
ATOM      8  C   UNL     1      -0.089  13.378  19.339  0.00  0.00    +0.000 C 
ATOM      9  C   UNL     1       0.742  13.000  20.545  0.00  0.00    +0.000 C 
ATOM     10  C   UNL     1       1.381  11.630  20.339  0.00  0.00    +0.000 C 
ATOM     11  C   UNL     1       0.370  10.498  20.044  0.00  0.00    +0.000 C 
BRANCH   6  12
ATOM     12  O   UNL     1      -1.871  10.039  19.059  0.00  0.00    +0.000 OA
BRANCH  12  13
ATOM     13  C   UNL     1      -2.835  10.267  18.021  0.00  0.00    +0.000 C 
BRANCH  13  14
ATOM     14  C   UNL     1      -2.277   9.899  16.650  0.00  0.00    +0.000 C 
BRANCH  14  16
ATOM     15  C   UNL     1      -3.418  10.139  14.413  0.00  0.00    +0.000 C 
ATOM     16  C   UNL     1      -2.733  10.871  15.557  0.00  0.00    +0.000 C 
ENDBRANCH  14  16
ENDBRANCH  13  14
ENDBRANCH  12  13
ENDBRANCH   6  12
ENDBRANCH   1  11
BRANCH   1  17
ATOM     17  C   UNL     1       1.435   8.879  18.408  0.00  0.00    +0.000 C 
ATOM     18  C   UNL     1       2.242   9.722  17.465  0.00  0.00    +0.000 C 
ATOM     19  C   UNL     1       2.838   8.468  18.024  0.00  0.00    +0.000 C 
ENDBRANCH   1  17
BRANCH   4  20
ATOM     20  C   UNL     1       1.762   5.756  21.053  0.00  0.00    +0.000 C 
BRANCH  20  21
ATOM     21  C   UNL     1       1.639   4.522  20.158  0.00  0.00    +0.000 C 
BRANCH  21  22
ATOM     22  C   UNL     1       3.003   3.916  19.828  0.00  0.00    +0.000 C 
BRANCH  22  23
ATOM     23  O   UNL     1       4.042   4.872  20.077  0.00  0.00    +0.000 OA
BRANCH  23  24
ATOM     24  C   UNL     1       4.942   5.053  19.055  0.00  0.00    +0.000 A 
ATOM     25  C   UNL     1       6.222   5.587  19.193  0.00  0.00    +0.000 A 
ATOM     26  C   UNL     1       7.056   5.728  18.081  0.00  0.00    +0.000 A 
ATOM     27  C   UNL     1       6.655   5.346  16.813  0.00  0.00    +0.000 A 
ATOM     28  N   UNL     1       7.507   5.504  15.787  0.00  0.00    +0.000 NA
ATOM     29  C   UNL     1       7.075   5.127  14.579  0.00  0.00    +0.000 A 
ATOM     30  C   UNL     1       5.835   4.600  14.299  0.00  0.00    +0.000 A 
ATOM     31  C   UNL     1       4.960   4.434  15.367  0.00  0.00    +0.000 A 
ATOM     32  C   UNL     1       5.358   4.805  16.660  0.00  0.00    +0.000 A 
ATOM     33  C   UNL     1       4.515   4.659  17.785  0.00  0.00    +0.000 A 
BRANCH  29  34
ATOM     34  O   UNL     1       7.986   5.307  13.591  0.00  0.00    +0.000 OA
ATOM     35  H   UNL     1       8.326   4.398  13.515  0.00  0.00    +0.000 HD
ENDBRANCH  29  34
ENDBRANCH  23  24
ENDBRANCH  22  23
ENDBRANCH  21  22
ENDBRANCH  20  21
ENDBRANCH   4  20
TORSDOF 12
ENDMDL
MODEL 5
REMARK VINA RESULT:      -7.5      1.452      2.265
REMARK  Name = 
REMARK  13 active torsions:
REMARK  status: ('A' for Active; 'I' for Inactive)
REMARK    1  A    between atoms: C_1  and  C_2
REMARK    2  A    between atoms: C_2  and  C_3
REMARK    3  A    between atoms: C_3  and  C_4
REMARK    4  A    between atoms: C_4  and  O_5
REMARK    5  A    between atoms: O_5  and  C_6
REMARK    6  A    between atoms: C_11  and  N_12
REMARK    7  A    between atoms: N_12  and  C_31
REMARK    8  A    between atoms: N_15  and  C_16
REMARK    9  A    between atoms: C_16  and  C_17
REMARK   10  A    between atoms: C_17  and  C_18
REMARK   11  A    between atoms: C_18  and  O_19
REMARK   12  A    between atoms: O_19  and  C_20
REMARK   13  A    between atoms: C_25  and  O_26
REMARK                            x       y       z     vdW  Elec       q    Type
REMARK                         _______ _______ _______ _____ _____    ______ ____
ROOT
ATOM      1  N   UNL     1       0.551   9.961  20.608  0.00  0.00    +0.000 N 
ATOM      2  C   UNL     1       1.388   9.136  19.815  0.00  0.00    +0.000 C 
ATOM      3  O   UNL     1       1.998   9.494  18.823  0.00  0.00    +0.000 OA
ATOM      4  N   UNL     1       1.480   7.844  20.317  0.00  0.00    +0.000 N 
ATOM      5  H   UNL     1       0.648   7.550  20.804  0.00  0.00    +0.000 HD
ENDROOT
BRANCH   1  11
ATOM      6  C   UNL     1      -0.669  11.625  18.954  0.00  0.00    +0.000 C 
ATOM      7  C   UNL     1      -0.662  13.094  18.470  0.00  0.00    +0.000 C 
ATOM      8  C   UNL     1       0.720  13.690  18.326  0.00  0.00    +0.000 C 
ATOM      9  C   UNL     1       1.437  13.630  19.656  0.00  0.00    +0.000 C 
ATOM     10  C   UNL     1       1.600  12.182  20.105  0.00  0.00    +0.000 C 
ATOM     11  C   UNL     1       0.271  11.397  20.208  0.00  0.00    +0.000 C 
BRANCH   6  12
ATOM     12  O   UNL     1      -2.038  11.265  19.284  0.00  0.00    +0.000 OA
BRANCH  12  13
ATOM     13  C   UNL     1      -2.850  12.397  19.631  0.00  0.00    +0.000 C 
BRANCH  13  14
ATOM     14  C   UNL     1      -3.152  12.431  21.126  0.00  0.00    +0.000 C 
BRANCH  14  16
ATOM     15  C   UNL     1      -2.502  13.364  23.377  0.00  0.00    +0.000 C 
ATOM     16  C   UNL     1      -2.245  13.409  21.879  0.00  0.00    +0.000 C 
ENDBRANCH  14  16
ENDBRANCH  13  14
ENDBRANCH  12  13
ENDBRANCH   6  12
ENDBRANCH   1  11
BRANCH   1  17
ATOM     17  C   UNL     1       0.526   9.669  22.047  0.00  0.00    +0.000 C 
ATOM     18  C   UNL     1      -0.347  10.324  23.076  0.00  0.00    +0.000 C 
ATOM     19  C   UNL     1      -0.636   8.917  22.653  0.00  0.00    +0.000 C 
ENDBRANCH   1  17
BRANCH   4  20
ATOM     20  C   UNL     1       2.265   6.794  19.688  0.00  0.00    +0.000 C 
BRANCH  20  21
ATOM     21  C   UNL     1       2.047   5.412  20.304  0.00  0.00    +0.000 C 
BRANCH  21  22
ATOM     22  C   UNL     1       2.597   4.295  19.417  0.00  0.00    +0.000 C 
BRANCH  22  23
ATOM     23  O   UNL     1       3.974   4.047  19.730  0.00  0.00    +0.000 OA
BRANCH  23  24
ATOM     24  C   UNL     1       4.883   4.458  18.786  0.00  0.00    +0.000 A 
ATOM     25  C   UNL     1       5.987   5.272  19.030  0.00  0.00    +0.000 A 
ATOM     26  C   UNL     1       6.849   5.631  17.990  0.00  0.00    +0.000 A 
ATOM     27  C   UNL     1       6.648   5.196  16.692  0.00  0.00    +0.000 A 
ATOM     28  N   UNL     1       7.517   5.574  15.739  0.00  0.00    +0.000 NA
ATOM     29  C   UNL     1       7.281   5.136  14.498  0.00  0.00    +0.000 A 
ATOM     30  C   UNL     1       6.224   4.341  14.115  0.00  0.00    +0.000 A 
ATOM     31  C   UNL     1       5.331   3.950  15.108  0.00  0.00    +0.000 A 
ATOM     32  C   UNL     1       5.530   4.372  16.431  0.00  0.00    +0.000 A 
ATOM     33  C   UNL     1       4.660   4.006  17.483  0.00  0.00    +0.000 A 
BRANCH  29  34
ATOM     34  O   UNL     1       8.198   5.547  13.589  0.00  0.00    +0.000 OA
ATOM     35  H   UNL     1       7.746   6.339  13.248  0.00  0.00    +0.000 HD
ENDBRANCH  29  34
ENDBRANCH  23  24
ENDBRANCH  22  23
ENDBRANCH  21  22
ENDBRANCH  20  21
ENDBRANCH   4  20
TORSDOF 12
ENDMDL
MODEL 6
REMARK VINA RESULT:      -7.5      2.325      9.909
REMARK  Name = 
REMARK  13 active torsions:
REMARK  status: ('A' for Active; 'I' for Inactive)
REMARK    1  A    between atoms: C_1  and  C_2
REMARK    2  A    between atoms: C_2  and  C_3
REMARK    3  A    between atoms: C_3  and  C_4
REMARK    4  A    between atoms: C_4  and  O_5
REMARK    5  A    between atoms: O_5  and  C_6
REMARK    6  A    between atoms: C_11  and  N_12
REMARK    7  A    between atoms: N_12  and  C_31
REMARK    8  A    between atoms: N_15  and  C_16
REMARK    9  A    between atoms: C_16  and  C_17
REMARK   10  A    between atoms: C_17  and  C_18
REMARK   11  A    between atoms: C_18  and  O_19
REMARK   12  A    between atoms: O_19  and  C_20
REMARK   13  A    between atoms: C_25  and  O_26
REMARK                            x       y       z     vdW  Elec       q    Type
REMARK                         _______ _______ _______ _____ _____    ______ ____
ROOT
ATOM      1  N   UNL     1       4.274   4.504  18.179  0.00  0.00    +0.000 N 
ATOM      2  C   UNL     1       3.922   5.859  18.405  0.00  0.00    +0.000 C 
ATOM      3  O   UNL     1       4.391   6.819  17.821  0.00  0.00    +0.000 OA
ATOM      4  N   UNL     1       2.926   5.988  19.366  0.00  0.00    +0.000 N 
ATOM      5  H   UNL     1       2.950   5.258  20.060  0.00  0.00    +0.000 HD
ENDROOT
BRANCH   1  11
ATOM      6  C   UNL     1       6.704   5.011  17.263  0.00  0.00    +0.000 C 
ATOM      7  C   UNL     1       7.639   4.742  16.061  0.00  0.00    +0.000 C 
ATOM      8  C   UNL     1       6.941   4.762  14.720  0.00  0.00    +0.000 C 
ATOM      9  C   UNL     1       5.847   3.718  14.705  0.00  0.00    +0.000 C 
ATOM     10  C   UNL     1       4.805   4.029  15.775  0.00  0.00    +0.000 C 
ATOM     11  C   UNL     1       5.381   4.141  17.206  0.00  0.00    +0.000 C 
BRANCH   6  12
ATOM     12  O   UNL     1       7.440   4.720  18.482  0.00  0.00    +0.000 OA
BRANCH  12  13
ATOM     13  C   UNL     1       7.900   5.899  19.158  0.00  0.00    +0.000 C 
BRANCH  13  14
ATOM     14  C   UNL     1       7.843   7.122  18.249  0.00  0.00    +0.000 C 
BRANCH  14  16
ATOM     15  C   UNL     1       8.371   9.581  18.053  0.00  0.00    +0.000 C 
ATOM     16  C   UNL     1       8.682   8.286  18.787  0.00  0.00    +0.000 C 
ENDBRANCH  14  16
ENDBRANCH  13  14
ENDBRANCH  12  13
ENDBRANCH   6  12
ENDBRANCH   1  11
BRANCH   1  17
ATOM     17  C   UNL     1       3.200   3.517  18.341  0.00  0.00    +0.000 C 
ATOM     18  C   UNL     1       3.335   2.026  18.243  0.00  0.00    +0.000 C 
ATOM     19  C   UNL     1       3.131   2.660  19.583  0.00  0.00    +0.000 C 
ENDBRANCH   1  17
BRANCH   4  20
ATOM     20  C   UNL     1       2.388   7.270  19.794  0.00  0.00    +0.000 C 
BRANCH  20  21
ATOM     21  C   UNL     1       1.315   7.828  18.858  0.00  0.00    +0.000 C 
BRANCH  21  22
ATOM     22  C   UNL     1       1.731   9.163  18.240  0.00  0.00    +0.000 C 
BRANCH  22  23
ATOM     23  O   UNL     1       1.284  10.249  19.062  0.00  0.00    +0.000 OA
BRANCH  23  24
ATOM     24  C   UNL     1      -0.020  10.639  18.876  0.00  0.00    +0.000 A 
ATOM     25  C   UNL     1      -0.771  11.396  19.772  0.00  0.00    +0.000 A 
ATOM     26  C   UNL     1      -2.095  11.737  19.480  0.00  0.00    +0.000 A 
ATOM     27  C   UNL     1      -2.707  11.345  18.303  0.00  0.00    +0.000 A 
ATOM     28  N   UNL     1      -3.981  11.709  18.082  0.00  0.00    +0.000 NA
ATOM     29  C   UNL     1      -4.534  11.304  16.934  0.00  0.00    +0.000 A 
ATOM     30  C   UNL     1      -3.914  10.544  15.968  0.00  0.00    +0.000 A 
ATOM     31  C   UNL     1      -2.594  10.174  16.203  0.00  0.00    +0.000 A 
ATOM     32  C   UNL     1      -1.957  10.575  17.386  0.00  0.00    +0.000 A 
ATOM     33  C   UNL     1      -0.616  10.233  17.679  0.00  0.00    +0.000 A 
BRANCH  29  34
ATOM     34  O   UNL     1      -5.817  11.712  16.771  0.00  0.00    +0.000 OA
ATOM     35  H   UNL     1      -6.278  10.980  17.218  0.00  0.00    +0.000 HD
ENDBRANCH  29  34
ENDBRANCH  23  24
ENDBRANCH  22  23
ENDBRANCH  21  22
ENDBRANCH  20  21
ENDBRANCH   4  20
TORSDOF 12
ENDMDL
MODEL 7
REMARK VINA RESULT:      -7.4      6.832      9.230
REMARK  Name = 
REMARK  13 active torsions:
REMARK  status: ('A' for Active; 'I' for Inactive)
REMARK    1  A    between atoms: C_1  and  C_2
REMARK    2  A    between atoms: C_2  and  C_3
REMARK    3  A    between atoms: C_3  and  C_4
REMARK    4  A    between atoms: C_4  and  O_5
REMARK    5  A    between atoms: O_5  and  C_6
REMARK    6  A    between atoms: C_11  and  N_12
REMARK    7  A    between atoms: N_12  and  C_31
REMARK    8  A    between atoms: N_15  and  C_16
REMARK    9  A    between atoms: C_16  and  C_17
REMARK   10  A    between atoms: C_17  and  C_18
REMARK   11  A    between atoms: C_18  and  O_19
REMARK   12  A    between atoms: O_19  and  C_20
REMARK   13  A    between atoms: C_25  and  O_26
REMARK                            x       y       z     vdW  Elec       q    Type
REMARK                         _______ _______ _______ _____ _____    ______ ____
ROOT
ATOM      1  N   UNL     1       9.674  12.881  18.390  0.00  0.00    +0.000 N 
ATOM      2  C   UNL     1       9.867  11.498  18.636  0.00  0.00    +0.000 C 
ATOM      3  O   UNL     1      10.890  10.992  19.062  0.00  0.00    +0.000 OA
ATOM      4  N   UNL     1       8.725  10.753  18.371  0.00  0.00    +0.000 N 
ATOM      5  H   UNL     1       8.154  11.151  17.642  0.00  0.00    +0.000 HD
ENDROOT
BRANCH   1  11
ATOM      6  C   UNL     1      10.649  14.963  19.698  0.00  0.00    +0.000 C 
ATOM      7  C   UNL     1      11.723  16.072  19.605  0.00  0.00    +0.000 C 
ATOM      8  C   UNL     1      11.905  16.640  18.215  0.00  0.00    +0.000 C 
ATOM      9  C   UNL     1      12.294  15.531  17.265  0.00  0.00    +0.000 C 
ATOM     10  C   UNL     1      11.190  14.482  17.196  0.00  0.00    +0.000 C 
ATOM     11  C   UNL     1      10.813  13.868  18.565  0.00  0.00    +0.000 C 
BRANCH   6  12
ATOM     12  O   UNL     1      10.752  14.344  21.008  0.00  0.00    +0.000 OA
BRANCH  12  13
ATOM     13  C   UNL     1       9.992  15.027  22.016  0.00  0.00    +0.000 C 
BRANCH  13  14
ATOM     14  C   UNL     1       9.042  14.076  22.739  0.00  0.00    +0.000 C 
BRANCH  14  16
ATOM     15  C   UNL     1       8.174  11.715  22.920  0.00  0.00    +0.000 C 
ATOM     16  C   UNL     1       9.038  12.676  22.118  0.00  0.00    +0.000 C 
ENDBRANCH  14  16
ENDBRANCH  13  14
ENDBRANCH  12  13
ENDBRANCH   6  12
ENDBRANCH   1  11
BRANCH   1  17
ATOM     17  C   UNL     1       8.321  13.400  18.624  0.00  0.00    +0.000 C 
ATOM     18  C   UNL     1       7.881  14.830  18.512  0.00  0.00    +0.000 C 
ATOM     19  C   UNL     1       7.463  13.847  17.464  0.00  0.00    +0.000 C 
ENDBRANCH   1  17
BRANCH   4  20
ATOM     20  C   UNL     1       8.655   9.309  18.531  0.00  0.00    +0.000 C 
BRANCH  20  21
ATOM     21  C   UNL     1       7.885   8.605  17.413  0.00  0.00    +0.000 C 
BRANCH  21  22
ATOM     22  C   UNL     1       7.493   7.179  17.798  0.00  0.00    +0.000 C 
BRANCH  22  23
ATOM     23  O   UNL     1       6.730   6.575  16.744  0.00  0.00    +0.000 OA
BRANCH  23  24
ATOM     24  C   UNL     1       5.486   6.113  17.098  0.00  0.00    +0.000 A 
ATOM     25  C   UNL     1       4.391   6.912  17.421  0.00  0.00    +0.000 A 
ATOM     26  C   UNL     1       3.167   6.333  17.769  0.00  0.00    +0.000 A 
ATOM     27  C   UNL     1       2.992   4.962  17.805  0.00  0.00    +0.000 A 
ATOM     28  N   UNL     1       1.789   4.470  18.144  0.00  0.00    +0.000 NA
ATOM     29  C   UNL     1       1.666   3.138  18.172  0.00  0.00    +0.000 A 
ATOM     30  C   UNL     1       2.665   2.235  17.890  0.00  0.00    +0.000 A 
ATOM     31  C   UNL     1       3.907   2.751  17.536  0.00  0.00    +0.000 A 
ATOM     32  C   UNL     1       4.095   4.140  17.483  0.00  0.00    +0.000 A 
ATOM     33  C   UNL     1       5.332   4.725  17.126  0.00  0.00    +0.000 A 
BRANCH  29  34
ATOM     34  O   UNL     1       0.426   2.710  18.514  0.00  0.00    +0.000 OA
ATOM     35  H   UNL     1       0.375   3.066  19.419  0.00  0.00    +0.000 HD
ENDBRANCH  29  34
ENDBRANCH  23  24
ENDBRANCH  22  23
ENDBRANCH  21  22
ENDBRANCH  20  21
ENDBRANCH   4  20
TORSDOF 12
ENDMDL
MODEL 8
REMARK VINA RESULT:      -7.4      2.884      9.442
REMARK  Name = 
REMARK  13 active torsions:
REMARK  status: ('A' for Active; 'I' for Inactive)
REMARK    1  A    between atoms: C_1  and  C_2
REMARK    2  A    between atoms: C_2  and  C_3
REMARK    3  A    between atoms: C_3  and  C_4
REMARK    4  A    between atoms: C_4  and  O_5
REMARK    5  A    between atoms: O_5  and  C_6
REMARK    6  A    between atoms: C_11  and  N_12
REMARK    7  A    between atoms: N_12  and  C_31
REMARK    8  A    between atoms: N_15  and  C_16
REMARK    9  A    between atoms: C_16  and  C_17
REMARK   10  A    between atoms: C_17  and  C_18
REMARK   11  A    between atoms: C_18  and  O_19
REMARK   12  A    between atoms: O_19  and  C_20
REMARK   13  A    between atoms: C_25  and  O_26
REMARK                            x       y       z     vdW  Elec       q    Type
REMARK                         _______ _______ _______ _____ _____    ______ ____
ROOT
ATOM      1  N   UNL     1       2.703   5.229  20.161  0.00  0.00    +0.000 N 
ATOM      2  C   UNL     1       2.396   6.594  19.927  0.00  0.00    +0.000 C 
ATOM      3  O   UNL     1       2.537   7.179  18.869  0.00  0.00    +0.000 OA
ATOM      4  N   UNL     1       1.864   7.212  21.053  0.00  0.00    +0.000 N 
ATOM      5  H   UNL     1       2.205   6.820  21.916  0.00  0.00    +0.000 HD
ENDROOT
BRANCH   1  11
ATOM      6  C   UNL     1       4.684   4.928  18.434  0.00  0.00    +0.000 C 
ATOM      7  C   UNL     1       5.094   4.140  17.168  0.00  0.00    +0.000 C 
ATOM      8  C   UNL     1       3.970   3.933  16.178  0.00  0.00    +0.000 C 
ATOM      9  C   UNL     1       2.838   3.187  16.849  0.00  0.00    +0.000 C 
ATOM     10  C   UNL     1       2.286   4.000  18.015  0.00  0.00    +0.000 C 
ATOM     11  C   UNL     1       3.344   4.381  19.078  0.00  0.00    +0.000 C 
BRANCH   6  12
ATOM     12  O   UNL     1       5.772   4.838  19.394  0.00  0.00    +0.000 OA
BRANCH  12  13
ATOM     13  C   UNL     1       7.068   4.939  18.787  0.00  0.00    +0.000 C 
BRANCH  13  14
ATOM     14  C   UNL     1       7.852   6.126  19.340  0.00  0.00    +0.000 C 
BRANCH  14  16
ATOM     15  C   UNL     1       6.914   7.442  17.403  0.00  0.00    +0.000 C 
ATOM     16  C   UNL     1       8.138   7.182  18.268  0.00  0.00    +0.000 C 
ENDBRANCH  14  16
ENDBRANCH  13  14
ENDBRANCH  12  13
ENDBRANCH   6  12
ENDBRANCH   1  11
BRANCH   1  17
ATOM     17  C   UNL     1       1.841   4.523  21.116  0.00  0.00    +0.000 C 
ATOM     18  C   UNL     1       1.078   3.256  20.863  0.00  0.00    +0.000 C 
ATOM     19  C   UNL     1       2.293   3.221  21.735  0.00  0.00    +0.000 C 
ENDBRANCH   1  17
BRANCH   4  20
ATOM     20  C   UNL     1       1.473   8.612  21.088  0.00  0.00    +0.000 C 
BRANCH  20  21
ATOM     21  C   UNL     1      -0.039   8.828  21.006  0.00  0.00    +0.000 C 
BRANCH  21  22
ATOM     22  C   UNL     1      -0.404   9.977  20.067  0.00  0.00    +0.000 C 
BRANCH  22  23
ATOM     23  O   UNL     1       0.779  10.514  19.459  0.00  0.00    +0.000 OA
BRANCH  23  24
ATOM     24  C   UNL     1       0.797  11.876  19.290  0.00  0.00    +0.000 A 
ATOM     25  C   UNL     1      -0.253  12.740  19.591  0.00  0.00    +0.000 A 
ATOM     26  C   UNL     1      -0.127  14.116  19.376  0.00  0.00    +0.000 A 
ATOM     27  C   UNL     1       1.033  14.671  18.865  0.00  0.00    +0.000 A 
ATOM     28  N   UNL     1       1.091  16.001  18.686  0.00  0.00    +0.000 NA
ATOM     29  C   UNL     1       2.229  16.494  18.184  0.00  0.00    +0.000 A 
ATOM     30  C   UNL     1       3.336  15.756  17.831  0.00  0.00    +0.000 A 
ATOM     31  C   UNL     1       3.269  14.380  18.022  0.00  0.00    +0.000 A 
ATOM     32  C   UNL     1       2.105  13.805  18.552  0.00  0.00    +0.000 A 
ATOM     33  C   UNL     1       1.978  12.414  18.773  0.00  0.00    +0.000 A 
BRANCH  29  34
ATOM     34  O   UNL     1       2.223  17.841  18.037  0.00  0.00    +0.000 OA
ATOM     35  H   UNL     1       1.274  18.015  18.165  0.00  0.00    +0.000 HD
ENDBRANCH  29  34
ENDBRANCH  23  24
ENDBRANCH  22  23
ENDBRANCH  21  22
ENDBRANCH  20  21
ENDBRANCH   4  20
TORSDOF 12
ENDMDL
MODEL 9
REMARK VINA RESULT:      -7.4      5.429      9.179
REMARK  Name = 
REMARK  13 active torsions:
REMARK  status: ('A' for Active; 'I' for Inactive)
REMARK    1  A    between atoms: C_1  and  C_2
REMARK    2  A    between atoms: C_2  and  C_3
REMARK    3  A    between atoms: C_3  and  C_4
REMARK    4  A    between atoms: C_4  and  O_5
REMARK    5  A    between atoms: O_5  and  C_6
REMARK    6  A    between atoms: C_11  and  N_12
REMARK    7  A    between atoms: N_12  and  C_31
REMARK    8  A    between atoms: N_15  and  C_16
REMARK    9  A    between atoms: C_16  and  C_17
REMARK   10  A    between atoms: C_17  and  C_18
REMARK   11  A    between atoms: C_18  and  O_19
REMARK   12  A    between atoms: O_19  and  C_20
REMARK   13  A    between atoms: C_25  and  O_26
REMARK                            x       y       z     vdW  Elec       q    Type
REMARK                         _______ _______ _______ _____ _____    ______ ____
ROOT
ATOM      1  N   UNL     1       5.256   5.048  17.053  0.00  0.00    +0.000 N 
ATOM      2  C   UNL     1       5.958   5.794  18.032  0.00  0.00    +0.000 C 
ATOM      3  O   UNL     1       5.657   5.876  19.210  0.00  0.00    +0.000 OA
ATOM      4  N   UNL     1       7.085   6.417  17.510  0.00  0.00    +0.000 N 
ATOM      5  H   UNL     1       6.986   6.660  16.537  0.00  0.00    +0.000 HD
ENDROOT
BRANCH   1  11
ATOM      6  C   UNL     1       2.987   5.061  18.412  0.00  0.00    +0.000 C 
ATOM      7  C   UNL     1       1.851   4.135  18.906  0.00  0.00    +0.000 C 
ATOM      8  C   UNL     1       2.322   2.775  19.371  0.00  0.00    +0.000 C 
ATOM      9  C   UNL     1       3.039   2.075  18.237  0.00  0.00    +0.000 C 
ATOM     10  C   UNL     1       4.268   2.873  17.816  0.00  0.00    +0.000 C 
ATOM     11  C   UNL     1       3.964   4.332  17.401  0.00  0.00    +0.000 C 
BRANCH   6  12
ATOM     12  O   UNL     1       2.380   6.217  17.773  0.00  0.00    +0.000 OA
BRANCH  12  13
ATOM     13  C   UNL     1       2.560   7.431  18.516  0.00  0.00    +0.000 C 
BRANCH  13  14
ATOM     14  C   UNL     1       2.091   8.647  17.722  0.00  0.00    +0.000 C 
BRANCH  14  16
ATOM     15  C   UNL     1       1.076   9.094  19.988  0.00  0.00    +0.000 C 
ATOM     16  C   UNL     1       1.167   9.554  18.541  0.00  0.00    +0.000 C 
ENDBRANCH  14  16
ENDBRANCH  13  14
ENDBRANCH  12  13
ENDBRANCH   6  12
ENDBRANCH   1  11
BRANCH   1  17
ATOM     17  C   UNL     1       6.068   4.446  15.989  0.00  0.00    +0.000 C 
ATOM     18  C   UNL     1       5.558   3.762  14.754  0.00  0.00    +0.000 C 
ATOM     19  C   UNL     1       6.181   5.119  14.641  0.00  0.00    +0.000 C 
ENDBRANCH   1  17
BRANCH   4  20
ATOM     20  C   UNL     1       7.977   7.252  18.298  0.00  0.00    +0.000 C 
BRANCH  20  21
ATOM     21  C   UNL     1       7.986   8.719  17.864  0.00  0.00    +0.000 C 
BRANCH  21  22
ATOM     22  C   UNL     1       8.867   9.579  18.769  0.00  0.00    +0.000 C 
BRANCH  22  23
ATOM     23  O   UNL     1       9.679  10.457  17.979  0.00  0.00    +0.000 OA
BRANCH  23  24
ATOM     24  C   UNL     1       9.799  11.743  18.448  0.00  0.00    +0.000 A 
ATOM     25  C   UNL     1      10.768  12.188  19.343  0.00  0.00    +0.000 A 
ATOM     26  C   UNL     1      10.796  13.523  19.755  0.00  0.00    +0.000 A 
ATOM     27  C   UNL     1       9.876  14.448  19.296  0.00  0.00    +0.000 A 
ATOM     28  N   UNL     1       9.959  15.717  19.728  0.00  0.00    +0.000 NA
ATOM     29  C   UNL     1       9.046  16.576  19.263  0.00  0.00    +0.000 A 
ATOM     30  C   UNL     1       8.028  16.269  18.388  0.00  0.00    +0.000 A 
ATOM     31  C   UNL     1       7.950  14.954  17.942  0.00  0.00    +0.000 A 
ATOM     32  C   UNL     1       8.885  14.009  18.389  0.00  0.00    +0.000 A 
ATOM     33  C   UNL     1       8.859  12.659  17.969  0.00  0.00    +0.000 A 
BRANCH  29  34
ATOM     34  O   UNL     1       9.193  17.839  19.733  0.00  0.00    +0.000 OA
ATOM     35  H   UNL     1       9.490  18.282  18.918  0.00  0.00    +0.000 HD
ENDBRANCH  29  34
ENDBRANCH  23  24
ENDBRANCH  22  23
ENDBRANCH  21  22
ENDBRANCH  20  21
ENDBRANCH   4  20
TORSDOF 12
ENDMDL
