MODEL 1
REMARK VINA RESULT:      -7.3      0.000      0.000
REMARK  Name = 
REMARK  9 active torsions:
REMARK  status: ('A' for Active; 'I' for Inactive)
REMARK    1  A    between atoms: C_1  and  C_2
REMARK    2  A    between atoms: C_2  and  C_3
REMARK    3  A    between atoms: C_2  and  C_4
REMARK    4  A    between atoms: C_2  and  O_5
REMARK    5  A    between atoms: O_5  and  C_6
REMARK    6  A    between atoms: C_10  and  C_11
REMARK    7  A    between atoms: C_11  and  N_12
REMARK    8  A    between atoms: N_12  and  C_13
REMARK    9  A    between atoms: C_13  and  N_15
REMARK                            x       y       z     vdW  Elec       q    Type
REMARK                         _______ _______ _______ _____ _____    ______ ____
ROOT
ATOM      1  C   UNL     1       2.403   5.237  20.280  0.00  0.00    +0.000 C 
ATOM      2  O   UNL     1       1.565   5.574  21.109  0.00  0.00    +0.000 OA
ATOM      3  N   UNL     1       2.763   6.145  19.273  0.00  0.00    +0.000 N 
ATOM      4  C   UNL     1       2.205   7.417  19.203  0.00  0.00    +0.000 A 
ATOM      5  C   UNL     1       2.719   8.125  18.139  0.00  0.00    +0.000 A 
ATOM      6  C   UNL     1       3.617   7.234  17.483  0.00  0.00    +0.000 A 
ATOM      7  C   UNL     1       4.397   7.357  16.314  0.00  0.00    +0.000 A 
ATOM      8  C   UNL     1       5.165   6.279  15.872  0.00  0.00    +0.000 A 
ATOM      9  C   UNL     1       5.181   5.088  16.586  0.00  0.00    +0.000 A 
ATOM     10  C   UNL     1       4.428   4.939  17.753  0.00  0.00    +0.000 A 
ATOM     11  C   UNL     1       3.638   6.019  18.191  0.00  0.00    +0.000 A 
ENDROOT
BRANCH   1  12
ATOM     12  O   UNL     1       3.078   4.055  20.216  0.00  0.00    +0.000 OA
BRANCH  12  14
ATOM     13  C   UNL     1       1.148   3.127  18.997  0.00  0.00    +0.000 C 
ATOM     14  C   UNL     1       2.285   2.854  19.994  0.00  0.00    +0.000 C 
ATOM     15  C   UNL     1       1.767   2.309  21.334  0.00  0.00    +0.000 C 
ATOM     16  C   UNL     1       3.194   1.784  19.357  0.00  0.00    +0.000 C 
ENDBRANCH  12  14
ENDBRANCH   1  12
BRANCH   5  17
ATOM     17  C   UNL     1       2.325   9.505  17.718  0.00  0.00    +0.000 C 
BRANCH  17  18
ATOM     18  N   UNL     1       0.878   9.635  17.726  0.00  0.00    +0.000 N 
ATOM     19  H   UNL     1       0.426   9.551  16.824  0.00  0.00    +0.000 HD
BRANCH  18  20
ATOM     20  C   UNL     1       0.165  10.414  18.618  0.00  0.00    +0.000 C 
ATOM     21  S   UNL     1       0.805  10.968  20.066  0.00  0.00    +0.000 S 
BRANCH  20  22
ATOM     22  N   UNL     1      -1.123  10.698  18.167  0.00  0.00    +0.000 N 
ATOM     23  C   UNL     1      -1.776  11.994  18.419  0.00  0.00    +0.000 C 
ATOM     24  C   UNL     1      -3.256  11.788  18.748  0.00  0.00    +0.000 C 
ATOM     25  O   UNL     1      -3.921  11.041  17.717  0.00  0.00    +0.000 OA
ATOM     26  C   UNL     1      -3.291   9.763  17.521  0.00  0.00    +0.000 C 
ATOM     27  C   UNL     1      -1.821   9.925  17.123  0.00  0.00    +0.000 C 
ENDBRANCH  20  22
ENDBRANCH  18  20
ENDBRANCH  17  18
ENDBRANCH   5  17
TORSDOF 6
ENDMDL
MODEL 2
REMARK VINA RESULT:      -7.2      3.121      4.775
REMARK  Name = 
REMARK  9 active torsions:
REMARK  status: ('A' for Active; 'I' for Inactive)
REMARK    1  A    between atoms: C_1  and  C_2
REMARK    2  A    between atoms: C_2  and  C_3
REMARK    3  A    between atoms: C_2  and  C_4
REMARK    4  A    between atoms: C_2  and  O_5
REMARK    5  A    between atoms: O_5  and  C_6
REMARK    6  A    between atoms: C_10  and  C_11
REMARK    7  A    between atoms: C_11  and  N_12
REMARK    8  A    between atoms: N_12  and  C_13
REMARK    9  A    between atoms: C_13  and  N_15
REMARK                            x       y       z     vdW  Elec       q    Type
REMARK                         _______ _______ _______ _____ _____    ______ ____
ROOT
ATOM      1  C   UNL     1       5.494   5.327  18.004  0.00  0.00    +0.000 C 
ATOM      2  O   UNL     1       6.121   6.338  18.299  0.00  0.00    +0.000 OA
ATOM      3  N   UNL     1       4.212   5.145  18.541  0.00  0.00    +0.000 N 
ATOM      4  C   UNL     1       3.631   6.087  19.382  0.00  0.00    +0.000 A 
ATOM      5  C   UNL     1       2.370   5.693  19.773  0.00  0.00    +0.000 A 
ATOM      6  C   UNL     1       2.165   4.415  19.176  0.00  0.00    +0.000 A 
ATOM      7  C   UNL     1       1.104   3.490  19.246  0.00  0.00    +0.000 A 
ATOM      8  C   UNL     1       1.199   2.268  18.579  0.00  0.00    +0.000 A 
ATOM      9  C   UNL     1       2.326   1.963  17.829  0.00  0.00    +0.000 A 
ATOM     10  C   UNL     1       3.390   2.863  17.730  0.00  0.00    +0.000 A 
ATOM     11  C   UNL     1       3.304   4.089  18.418  0.00  0.00    +0.000 A 
ENDROOT
BRANCH   1  12
ATOM     12  O   UNL     1       5.886   4.321  17.170  0.00  0.00    +0.000 OA
BRANCH  12  14
ATOM     13  C   UNL     1       5.661   3.537  14.846  0.00  0.00    +0.000 C 
ATOM     14  C   UNL     1       6.113   4.672  15.775  0.00  0.00    +0.000 C 
ATOM     15  C   UNL     1       7.587   5.052  15.561  0.00  0.00    +0.000 C 
ATOM     16  C   UNL     1       5.246   5.902  15.438  0.00  0.00    +0.000 C 
ENDBRANCH  12  14
ENDBRANCH   1  12
BRANCH   5  17
ATOM     17  C   UNL     1       1.463   6.423  20.711  0.00  0.00    +0.000 C 
BRANCH  17  18
ATOM     18  N   UNL     1       1.945   7.778  20.918  0.00  0.00    +0.000 N 
ATOM     19  H   UNL     1       2.366   7.961  21.820  0.00  0.00    +0.000 HD
BRANCH  18  20
ATOM     20  C   UNL     1       1.387   8.905  20.343  0.00  0.00    +0.000 C 
ATOM     21  S   UNL     1       1.306   9.144  18.685  0.00  0.00    +0.000 S 
BRANCH  20  22
ATOM     22  N   UNL     1       0.889   9.797  21.292  0.00  0.00    +0.000 N 
ATOM     23  C   UNL     1       0.628   9.395  22.685  0.00  0.00    +0.000 C 
ATOM     24  C   UNL     1      -0.664  10.042  23.191  0.00  0.00    +0.000 C 
ATOM     25  O   UNL     1      -0.626  11.471  23.039  0.00  0.00    +0.000 OA
ATOM     26  C   UNL     1      -0.414  11.835  21.665  0.00  0.00    +0.000 C 
ATOM     27  C   UNL     1       0.905  11.263  21.137  0.00  0.00    +0.000 C 
ENDBRANCH  20  22
ENDBRANCH  18  20
ENDBRANCH  17  18
ENDBRANCH   5  17
TORSDOF 6
ENDMDL
MODEL 3
REMARK VINA RESULT:      -7.1      2.401      4.257
REMARK  Name = 
REMARK  9 active torsions:
REMARK  status: ('A' for Active; 'I' for Inactive)
REMARK    1  A    between atoms: C_1  and  C_2
REMARK    2  A    between atoms: C_2  and  C_3
REMARK    3  A    between atoms: C_2  and  C_4
REMARK    4  A    between atoms: C_2  and  O_5
REMARK    5  A    between atoms: O_5  and  C_6
REMARK    6  A    between atoms: C_10  and  C_11
REMARK    7  A    between atoms: C_11  and  N_12
REMARK    8  A    between atoms: N_12  and  C_13
REMARK    9  A    between atoms: C_13  and  N_15
REMARK                            x       y       z     vdW  Elec       q    Type
REMARK                         _______ _______ _______ _____ _____    ______ ____
ROOT
ATOM      1  C   UNL     1       4.329   6.291  17.289  0.00  0.00    +0.000 C 
ATOM      2  O   UNL     1       4.830   7.408  17.340  0.00  0.00    +0.000 OA
ATOM      3  N   UNL     1       3.353   5.942  18.234  0.00  0.00    +0.000 N 
ATOM      4  C   UNL     1       2.931   6.835  19.212  0.00  0.00    +0.000 A 
ATOM      5  C   UNL     1       1.964   6.272  20.015  0.00  0.00    +0.000 A 
ATOM      6  C   UNL     1       1.799   4.939  19.539  0.00  0.00    +0.000 A 
ATOM      7  C   UNL     1       1.004   3.861  19.979  0.00  0.00    +0.000 A 
ATOM      8  C   UNL     1       1.083   2.627  19.334  0.00  0.00    +0.000 A 
ATOM      9  C   UNL     1       1.929   2.455  18.247  0.00  0.00    +0.000 A 
ATOM     10  C   UNL     1       2.723   3.506  17.780  0.00  0.00    +0.000 A 
ATOM     11  C   UNL     1       2.658   4.748  18.441  0.00  0.00    +0.000 A 
ENDROOT
BRANCH   1  12
ATOM     12  O   UNL     1       4.589   5.305  16.384  0.00  0.00    +0.000 OA
BRANCH  12  14
ATOM     13  C   UNL     1       6.414   4.484  17.821  0.00  0.00    +0.000 C 
ATOM     14  C   UNL     1       5.934   4.746  16.386  0.00  0.00    +0.000 C 
ATOM     15  C   UNL     1       6.888   5.667  15.609  0.00  0.00    +0.000 C 
ATOM     16  C   UNL     1       5.892   3.382  15.669  0.00  0.00    +0.000 C 
ENDBRANCH  12  14
ENDBRANCH   1  12
BRANCH   5  17
ATOM     17  C   UNL     1       1.310   6.911  21.198  0.00  0.00    +0.000 C 
BRANCH  17  18
ATOM     18  N   UNL     1       1.665   8.318  21.266  0.00  0.00    +0.000 N 
ATOM     19  H   UNL     1       2.612   8.518  21.560  0.00  0.00    +0.000 HD
BRANCH  18  20
ATOM     20  C   UNL     1       0.779   9.337  21.565  0.00  0.00    +0.000 C 
ATOM     21  S   UNL     1      -0.020   9.454  23.035  0.00  0.00    +0.000 S 
BRANCH  20  22
ATOM     22  N   UNL     1       0.647  10.252  20.522  0.00  0.00    +0.000 N 
ATOM     23  C   UNL     1       1.011  11.671  20.672  0.00  0.00    +0.000 C 
ATOM     24  C   UNL     1      -0.004  12.559  19.950  0.00  0.00    +0.000 C 
ATOM     25  O   UNL     1      -0.142  12.181  18.571  0.00  0.00    +0.000 OA
ATOM     26  C   UNL     1      -0.540  10.804  18.454  0.00  0.00    +0.000 C 
ATOM     27  C   UNL     1       0.485   9.872  19.106  0.00  0.00    +0.000 C 
ENDBRANCH  20  22
ENDBRANCH  18  20
ENDBRANCH  17  18
ENDBRANCH   5  17
TORSDOF 6
ENDMDL
MODEL 4
REMARK VINA RESULT:      -7.0      2.009      2.461
REMARK  Name = 
REMARK  9 active torsions:
REMARK  status: ('A' for Active; 'I' for Inactive)
REMARK    1  A    between atoms: C_1  and  C_2
REMARK    2  A    between atoms: C_2  and  C_3
REMARK    3  A    between atoms: C_2  and  C_4
REMARK    4  A    between atoms: C_2  and  O_5
REMARK    5  A    between atoms: O_5  and  C_6
REMARK    6  A    between atoms: C_10  and  C_11
REMARK    7  A    between atoms: C_11  and  N_12
REMARK    8  A    between atoms: N_12  and  C_13
REMARK    9  A    between atoms: C_13  and  N_15
REMARK                            x       y       z     vdW  Elec       q    Type
REMARK                         _______ _______ _______ _____ _____    ______ ____
ROOT
ATOM      1  C   UNL     1       2.506   5.065  20.223  0.00  0.00    +0.000 C 
ATOM      2  O   UNL     1       1.667   5.338  21.073  0.00  0.00    +0.000 OA
ATOM      3  N   UNL     1       2.818   6.023  19.247  0.00  0.00    +0.000 N 
ATOM      4  C   UNL     1       2.212   7.274  19.231  0.00  0.00    +0.000 A 
ATOM      5  C   UNL     1       2.684   8.041  18.190  0.00  0.00    +0.000 A 
ATOM      6  C   UNL     1       3.608   7.212  17.490  0.00  0.00    +0.000 A 
ATOM      7  C   UNL     1       4.368   7.409  16.319  0.00  0.00    +0.000 A 
ATOM      8  C   UNL     1       5.171   6.379  15.828  0.00  0.00    +0.000 A 
ATOM      9  C   UNL     1       5.243   5.163  16.495  0.00  0.00    +0.000 A 
ATOM     10  C   UNL     1       4.510   4.941  17.664  0.00  0.00    +0.000 A 
ATOM     11  C   UNL     1       3.684   5.973  18.151  0.00  0.00    +0.000 A 
ENDROOT
BRANCH   1  12
ATOM     12  O   UNL     1       3.226   3.913  20.106  0.00  0.00    +0.000 OA
BRANCH  12  14
ATOM     13  C   UNL     1       1.791   2.129  21.017  0.00  0.00    +0.000 C 
ATOM     14  C   UNL     1       2.484   2.704  19.773  0.00  0.00    +0.000 C 
ATOM     15  C   UNL     1       3.415   1.683  19.100  0.00  0.00    +0.000 C 
ATOM     16  C   UNL     1       1.374   3.078  18.771  0.00  0.00    +0.000 C 
ENDBRANCH  12  14
ENDBRANCH   1  12
BRANCH   5  17
ATOM     17  C   UNL     1       2.233   9.420  17.827  0.00  0.00    +0.000 C 
BRANCH  17  18
ATOM     18  N   UNL     1       1.049   9.775  18.590  0.00  0.00    +0.000 N 
ATOM     19  H   UNL     1       0.165   9.494  18.184  0.00  0.00    +0.000 HD
BRANCH  18  20
ATOM     20  C   UNL     1       0.942  10.890  19.400  0.00  0.00    +0.000 C 
ATOM     21  S   UNL     1       1.645  12.366  19.024  0.00  0.00    +0.000 S 
BRANCH  20  22
ATOM     22  N   UNL     1       0.175  10.651  20.539  0.00  0.00    +0.000 N 
ATOM     23  C   UNL     1      -0.847  11.600  21.010  0.00  0.00    +0.000 C 
ATOM     24  C   UNL     1      -0.824  11.691  22.538  0.00  0.00    +0.000 C 
ATOM     25  O   UNL     1      -0.972  10.395  23.140  0.00  0.00    +0.000 OA
ATOM     26  C   UNL     1       0.064   9.502  22.697  0.00  0.00    +0.000 C 
ATOM     27  C   UNL     1       0.033   9.329  21.175  0.00  0.00    +0.000 C 
ENDBRANCH  20  22
ENDBRANCH  18  20
ENDBRANCH  17  18
ENDBRANCH   5  17
TORSDOF 6
ENDMDL
MODEL 5
REMARK VINA RESULT:      -7.0      2.233      4.242
REMARK  Name = 
REMARK  9 active torsions:
REMARK  status: ('A' for Active; 'I' for Inactive)
REMARK    1  A    between atoms: C_1  and  C_2
REMARK    2  A    between atoms: C_2  and  C_3
REMARK    3  A    between atoms: C_2  and  C_4
REMARK    4  A    between atoms: C_2  and  O_5
REMARK    5  A    between atoms: O_5  and  C_6
REMARK    6  A    between atoms: C_10  and  C_11
REMARK    7  A    between atoms: C_11  and  N_12
REMARK    8  A    between atoms: N_12  and  C_13
REMARK    9  A    between atoms: C_13  and  N_15
REMARK                            x       y       z     vdW  Elec       q    Type
REMARK                         _______ _______ _______ _____ _____    ______ ____
ROOT
ATOM      1  C   UNL     1       4.460   6.222  17.591  0.00  0.00    +0.000 C 
ATOM      2  O   UNL     1       4.441   7.354  17.122  0.00  0.00    +0.000 OA
ATOM      3  N   UNL     1       3.613   5.920  18.667  0.00  0.00    +0.000 N 
ATOM      4  C   UNL     1       2.745   6.866  19.201  0.00  0.00    +0.000 A 
ATOM      5  C   UNL     1       2.011   6.336  20.239  0.00  0.00    +0.000 A 
ATOM      6  C   UNL     1       2.473   4.997  20.391  0.00  0.00    +0.000 A 
ATOM      7  C   UNL     1       2.151   3.976  21.309  0.00  0.00    +0.000 A 
ATOM      8  C   UNL     1       2.813   2.749  21.247  0.00  0.00    +0.000 A 
ATOM      9  C   UNL     1       3.777   2.518  20.275  0.00  0.00    +0.000 A 
ATOM     10  C   UNL     1       4.111   3.506  19.345  0.00  0.00    +0.000 A 
ATOM     11  C   UNL     1       3.458   4.752  19.417  0.00  0.00    +0.000 A 
ENDROOT
BRANCH   1  12
ATOM     12  O   UNL     1       5.212   5.163  17.176  0.00  0.00    +0.000 OA
BRANCH  12  14
ATOM     13  C   UNL     1       7.000   6.855  17.290  0.00  0.00    +0.000 C 
ATOM     14  C   UNL     1       6.613   5.427  16.878  0.00  0.00    +0.000 C 
ATOM     15  C   UNL     1       6.897   5.151  15.393  0.00  0.00    +0.000 C 
ATOM     16  C   UNL     1       7.476   4.466  17.719  0.00  0.00    +0.000 C 
ENDBRANCH  12  14
ENDBRANCH   1  12
BRANCH   5  17
ATOM     17  C   UNL     1       1.015   7.064  21.084  0.00  0.00    +0.000 C 
BRANCH  17  18
ATOM     18  N   UNL     1       1.246   8.496  21.007  0.00  0.00    +0.000 N 
ATOM     19  H   UNL     1       2.204   8.794  21.137  0.00  0.00    +0.000 HD
BRANCH  18  20
ATOM     20  C   UNL     1       0.325   9.460  21.374  0.00  0.00    +0.000 C 
ATOM     21  S   UNL     1      -0.224   9.651  22.948  0.00  0.00    +0.000 S 
BRANCH  20  22
ATOM     22  N   UNL     1      -0.070  10.257  20.301  0.00  0.00    +0.000 N 
ATOM     23  C   UNL     1      -0.535  11.643  20.481  0.00  0.00    +0.000 C 
ATOM     24  C   UNL     1      -1.712  11.934  19.547  0.00  0.00    +0.000 C 
ATOM     25  O   UNL     1      -1.375  11.651  18.179  0.00  0.00    +0.000 OA
ATOM     26  C   UNL     1      -0.968  10.281  18.024  0.00  0.00    +0.000 C 
ATOM     27  C   UNL     1       0.253   9.964  18.893  0.00  0.00    +0.000 C 
ENDBRANCH  20  22
ENDBRANCH  18  20
ENDBRANCH  17  18
ENDBRANCH   5  17
TORSDOF 6
ENDMDL
MODEL 6
REMARK VINA RESULT:      -7.0      2.115      2.745
REMARK  Name = 
REMARK  9 active torsions:
REMARK  status: ('A' for Active; 'I' for Inactive)
REMARK    1  A    between atoms: C_1  and  C_2
REMARK    2  A    between atoms: C_2  and  C_3
REMARK    3  A    between atoms: C_2  and  C_4
REMARK    4  A    between atoms: C_2  and  O_5
REMARK    5  A    between atoms: O_5  and  C_6
REMARK    6  A    between atoms: C_10  and  C_11
REMARK    7  A    between atoms: C_11  and  N_12
REMARK    8  A    between atoms: N_12  and  C_13
REMARK    9  A    between atoms: C_13  and  N_15
REMARK                            x       y       z     vdW  Elec       q    Type
REMARK                         _______ _______ _______ _____ _____    ______ ____
ROOT
ATOM      1  C   UNL     1       2.491   5.051  20.140  0.00  0.00    +0.000 C 
ATOM      2  O   UNL     1       1.640   5.314  20.982  0.00  0.00    +0.000 OA
ATOM      3  N   UNL     1       2.789   6.007  19.158  0.00  0.00    +0.000 N 
ATOM      4  C   UNL     1       2.156   7.244  19.127  0.00  0.00    +0.000 A 
ATOM      5  C   UNL     1       2.619   8.012  18.081  0.00  0.00    +0.000 A 
ATOM      6  C   UNL     1       3.565   7.196  17.395  0.00  0.00    +0.000 A 
ATOM      7  C   UNL     1       4.328   7.399  16.228  0.00  0.00    +0.000 A 
ATOM      8  C   UNL     1       5.157   6.382  15.751  0.00  0.00    +0.000 A 
ATOM      9  C   UNL     1       5.249   5.175  16.430  0.00  0.00    +0.000 A 
ATOM     10  C   UNL     1       4.514   4.947  17.596  0.00  0.00    +0.000 A 
ATOM     11  C   UNL     1       3.663   5.965  18.069  0.00  0.00    +0.000 A 
ENDROOT
BRANCH   1  12
ATOM     12  O   UNL     1       3.236   3.914  20.039  0.00  0.00    +0.000 OA
BRANCH  12  14
ATOM     13  C   UNL     1       1.844   2.094  20.945  0.00  0.00    +0.000 C 
ATOM     14  C   UNL     1       2.524   2.688  19.703  0.00  0.00    +0.000 C 
ATOM     15  C   UNL     1       3.480   1.692  19.028  0.00  0.00    +0.000 C 
ATOM     16  C   UNL     1       1.406   3.037  18.701  0.00  0.00    +0.000 C 
ENDBRANCH  12  14
ENDBRANCH   1  12
BRANCH   5  17
ATOM     17  C   UNL     1       2.140   9.377  17.702  0.00  0.00    +0.000 C 
BRANCH  17  18
ATOM     18  N   UNL     1       1.754  10.119  18.890  0.00  0.00    +0.000 N 
ATOM     19  H   UNL     1       2.400  10.066  19.669  0.00  0.00    +0.000 HD
BRANCH  18  20
ATOM     20  C   UNL     1       0.449  10.346  19.284  0.00  0.00    +0.000 C 
ATOM     21  S   UNL     1      -0.843  10.360  18.214  0.00  0.00    +0.000 S 
BRANCH  20  22
ATOM     22  N   UNL     1       0.333  10.539  20.660  0.00  0.00    +0.000 N 
ATOM     23  C   UNL     1       0.971   9.639  21.635  0.00  0.00    +0.000 C 
ATOM     24  C   UNL     1       0.040   9.400  22.826  0.00  0.00    +0.000 C 
ATOM     25  O   UNL     1      -0.370  10.640  23.425  0.00  0.00    +0.000 OA
ATOM     26  C   UNL     1      -1.029  11.481  22.463  0.00  0.00    +0.000 C 
ATOM     27  C   UNL     1      -0.106  11.801  21.283  0.00  0.00    +0.000 C 
ENDBRANCH  20  22
ENDBRANCH  18  20
ENDBRANCH  17  18
ENDBRANCH   5  17
TORSDOF 6
ENDMDL
MODEL 7
REMARK VINA RESULT:      -6.9      2.617      4.487
REMARK  Name = 
REMARK  9 active torsions:
REMARK  status: ('A' for Active; 'I' for Inactive)
REMARK    1  A    between atoms: C_1  and  C_2
REMARK    2  A    between atoms: C_2  and  C_3
REMARK    3  A    between atoms: C_2  and  C_4
REMARK    4  A    between atoms: C_2  and  O_5
REMARK    5  A    between atoms: O_5  and  C_6
REMARK    6  A    between atoms: C_10  and  C_11
REMARK    7  A    between atoms: C_11  and  N_12
REMARK    8  A    between atoms: N_12  and  C_13
REMARK    9  A    between atoms: C_13  and  N_15
REMARK                            x       y       z     vdW  Elec       q    Type
REMARK                         _______ _______ _______ _____ _____    ______ ____
ROOT
ATOM      1  C   UNL     1       5.579   5.360  17.991  0.00  0.00    +0.000 C 
ATOM      2  O   UNL     1       6.205   6.374  18.278  0.00  0.00    +0.000 OA
ATOM      3  N   UNL     1       4.298   5.180  18.531  0.00  0.00    +0.000 N 
ATOM      4  C   UNL     1       3.717   6.127  19.368  0.00  0.00    +0.000 A 
ATOM      5  C   UNL     1       2.458   5.735  19.763  0.00  0.00    +0.000 A 
ATOM      6  C   UNL     1       2.253   4.453  19.174  0.00  0.00    +0.000 A 
ATOM      7  C   UNL     1       1.192   3.527  19.253  0.00  0.00    +0.000 A 
ATOM      8  C   UNL     1       1.287   2.301  18.593  0.00  0.00    +0.000 A 
ATOM      9  C   UNL     1       2.413   1.992  17.843  0.00  0.00    +0.000 A 
ATOM     10  C   UNL     1       3.476   2.893  17.736  0.00  0.00    +0.000 A 
ATOM     11  C   UNL     1       3.391   4.123  18.417  0.00  0.00    +0.000 A 
ENDROOT
BRANCH   1  12
ATOM     12  O   UNL     1       5.969   4.350  17.163  0.00  0.00    +0.000 OA
BRANCH  12  14
ATOM     13  C   UNL     1       5.255   5.887  15.375  0.00  0.00    +0.000 C 
ATOM     14  C   UNL     1       6.120   4.675  15.752  0.00  0.00    +0.000 C 
ATOM     15  C   UNL     1       5.805   3.442  14.890  0.00  0.00    +0.000 C 
ATOM     16  C   UNL     1       7.588   5.074  15.502  0.00  0.00    +0.000 C 
ENDBRANCH  12  14
ENDBRANCH   1  12
BRANCH   5  17
ATOM     17  C   UNL     1       1.552   6.470  20.698  0.00  0.00    +0.000 C 
BRANCH  17  18
ATOM     18  N   UNL     1       1.896   7.881  20.721  0.00  0.00    +0.000 N 
ATOM     19  H   UNL     1       2.206   8.243  21.615  0.00  0.00    +0.000 HD
BRANCH  18  20
ATOM     20  C   UNL     1       1.310   8.845  19.921  0.00  0.00    +0.000 C 
ATOM     21  S   UNL     1       1.774   9.126  18.334  0.00  0.00    +0.000 S 
BRANCH  20  22
ATOM     22  N   UNL     1       0.287   9.531  20.576  0.00  0.00    +0.000 N 
ATOM     23  C   UNL     1      -0.757  10.268  19.844  0.00  0.00    +0.000 C 
ATOM     24  C   UNL     1      -1.081  11.581  20.560  0.00  0.00    +0.000 C 
ATOM     25  O   UNL     1      -1.442  11.352  21.932  0.00  0.00    +0.000 OA
ATOM     26  C   UNL     1      -0.388  10.670  22.634  0.00  0.00    +0.000 C 
ATOM     27  C   UNL     1      -0.078   9.317  21.988  0.00  0.00    +0.000 C 
ENDBRANCH  20  22
ENDBRANCH  18  20
ENDBRANCH  17  18
ENDBRANCH   5  17
TORSDOF 6
ENDMDL
MODEL 8
REMARK VINA RESULT:      -6.9      3.609      7.545
REMARK  Name = 
REMARK  9 active torsions:
REMARK  status: ('A' for Active; 'I' for Inactive)
REMARK    1  A    between atoms: C_1  and  C_2
REMARK    2  A    between atoms: C_2  and  C_3
REMARK    3  A    between atoms: C_2  and  C_4
REMARK    4  A    between atoms: C_2  and  O_5
REMARK    5  A    between atoms: O_5  and  C_6
REMARK    6  A    between atoms: C_10  and  C_11
REMARK    7  A    between atoms: C_11  and  N_12
REMARK    8  A    between atoms: N_12  and  C_13
REMARK    9  A    between atoms: C_13  and  N_15
REMARK                            x       y       z     vdW  Elec       q    Type
REMARK                         _______ _______ _______ _____ _____    ______ ____
ROOT
ATOM      1  C   UNL     1       2.252   7.387  19.466  0.00  0.00    +0.000 C 
ATOM      2  O   UNL     1       2.465   8.256  18.629  0.00  0.00    +0.000 OA
ATOM      3  N   UNL     1       2.547   6.054  19.149  0.00  0.00    +0.000 N 
ATOM      4  C   UNL     1       3.088   5.698  17.918  0.00  0.00    +0.000 A 
ATOM      5  C   UNL     1       3.299   4.340  17.843  0.00  0.00    +0.000 A 
ATOM      6  C   UNL     1       2.827   3.809  19.078  0.00  0.00    +0.000 A 
ATOM      7  C   UNL     1       2.724   2.492  19.572  0.00  0.00    +0.000 A 
ATOM      8  C   UNL     1       2.164   2.261  20.829  0.00  0.00    +0.000 A 
ATOM      9  C   UNL     1       1.723   3.322  21.608  0.00  0.00    +0.000 A 
ATOM     10  C   UNL     1       1.821   4.639  21.151  0.00  0.00    +0.000 A 
ATOM     11  C   UNL     1       2.368   4.873  19.874  0.00  0.00    +0.000 A 
ENDROOT
BRANCH   1  12
ATOM     12  O   UNL     1       1.764   7.552  20.729  0.00  0.00    +0.000 OA
BRANCH  12  14
ATOM     13  C   UNL     1      -0.527   8.191  21.370  0.00  0.00    +0.000 C 
ATOM     14  C   UNL     1       0.866   8.678  20.947  0.00  0.00    +0.000 C 
ATOM     15  C   UNL     1       0.819   9.565  19.692  0.00  0.00    +0.000 C 
ATOM     16  C   UNL     1       1.421   9.521  22.112  0.00  0.00    +0.000 C 
ENDBRANCH  12  14
ENDBRANCH   1  12
BRANCH   5  17
ATOM     17  C   UNL     1       3.821   3.587  16.661  0.00  0.00    +0.000 C 
BRANCH  17  18
ATOM     18  N   UNL     1       5.268   3.476  16.738  0.00  0.00    +0.000 N 
ATOM     19  H   UNL     1       5.640   3.221  17.645  0.00  0.00    +0.000 HD
BRANCH  18  20
ATOM     20  C   UNL     1       6.153   4.219  15.980  0.00  0.00    +0.000 C 
ATOM     21  S   UNL     1       6.254   4.099  14.310  0.00  0.00    +0.000 S 
BRANCH  20  22
ATOM     22  N   UNL     1       6.926   5.082  16.755  0.00  0.00    +0.000 N 
ATOM     23  C   UNL     1       7.743   4.604  17.883  0.00  0.00    +0.000 C 
ATOM     24  C   UNL     1       7.669   5.593  19.049  0.00  0.00    +0.000 C 
ATOM     25  O   UNL     1       8.043   6.917  18.635  0.00  0.00    +0.000 OA
ATOM     26  C   UNL     1       7.202   7.376  17.563  0.00  0.00    +0.000 C 
ATOM     27  C   UNL     1       7.298   6.449  16.347  0.00  0.00    +0.000 C 
ENDBRANCH  20  22
ENDBRANCH  18  20
ENDBRANCH  17  18
ENDBRANCH   5  17
TORSDOF 6
ENDMDL
MODEL 9
REMARK VINA RESULT:      -6.9      2.316      4.292
REMARK  Name = 
REMARK  9 active torsions:
REMARK  status: ('A' for Active; 'I' for Inactive)
REMARK    1  A    between atoms: C_1  and  C_2
REMARK    2  A    between atoms: C_2  and  C_3
REMARK    3  A    between atoms: C_2  and  C_4
REMARK    4  A    between atoms: C_2  and  O_5
REMARK    5  A    between atoms: O_5  and  C_6
REMARK    6  A    between atoms: C_10  and  C_11
REMARK    7  A    between atoms: C_11  and  N_12
REMARK    8  A    between atoms: N_12  and  C_13
REMARK    9  A    between atoms: C_13  and  N_15
REMARK                            x       y       z     vdW  Elec       q    Type
REMARK                         _______ _______ _______ _____ _____    ______ ____
ROOT
ATOM      1  C   UNL     1       5.237   5.451  17.994  0.00  0.00    +0.000 C 
ATOM      2  O   UNL     1       5.883   6.464  18.236  0.00  0.00    +0.000 OA
ATOM      3  N   UNL     1       3.989   5.280  18.609  0.00  0.00    +0.000 N 
ATOM      4  C   UNL     1       3.462   6.236  19.471  0.00  0.00    +0.000 A 
ATOM      5  C   UNL     1       2.226   5.852  19.941  0.00  0.00    +0.000 A 
ATOM      6  C   UNL     1       1.982   4.567  19.376  0.00  0.00    +0.000 A 
ATOM      7  C   UNL     1       0.925   3.646  19.523  0.00  0.00    +0.000 A 
ATOM      8  C   UNL     1       0.976   2.415  18.868  0.00  0.00    +0.000 A 
ATOM      9  C   UNL     1       2.055   2.095  18.056  0.00  0.00    +0.000 A 
ATOM     10  C   UNL     1       3.114   2.990  17.881  0.00  0.00    +0.000 A 
ATOM     11  C   UNL     1       3.073   4.226  18.556  0.00  0.00    +0.000 A 
ENDROOT
BRANCH   1  12
ATOM     12  O   UNL     1       5.575   4.432  17.152  0.00  0.00    +0.000 OA
BRANCH  12  14
ATOM     13  C   UNL     1       7.539   4.983  15.770  0.00  0.00    +0.000 C 
ATOM     14  C   UNL     1       6.014   4.802  15.814  0.00  0.00    +0.000 C 
ATOM     15  C   UNL     1       5.263   6.056  15.340  0.00  0.00    +0.000 C 
ATOM     16  C   UNL     1       5.671   3.644  14.855  0.00  0.00    +0.000 C 
ENDBRANCH  12  14
ENDBRANCH   1  12
BRANCH   5  17
ATOM     17  C   UNL     1       1.379   6.598  20.922  0.00  0.00    +0.000 C 
BRANCH  17  18
ATOM     18  N   UNL     1       1.743   8.004  20.929  0.00  0.00    +0.000 N 
ATOM     19  H   UNL     1       2.723   8.202  21.088  0.00  0.00    +0.000 HD
BRANCH  18  20
ATOM     20  C   UNL     1       0.910   9.028  21.340  0.00  0.00    +0.000 C 
ATOM     21  S   UNL     1       0.487   9.278  22.944  0.00  0.00    +0.000 S 
BRANCH  20  22
ATOM     22  N   UNL     1       0.488   9.830  20.281  0.00  0.00    +0.000 N 
ATOM     23  C   UNL     1      -0.212  11.108  20.494  0.00  0.00    +0.000 C 
ATOM     24  C   UNL     1      -1.332  11.278  19.464  0.00  0.00    +0.000 C 
ATOM     25  O   UNL     1      -0.831  11.154  18.123  0.00  0.00    +0.000 OA
ATOM     26  C   UNL     1      -0.191   9.881  17.930  0.00  0.00    +0.000 C 
ATOM     27  C   UNL     1       0.981   9.697  18.898  0.00  0.00    +0.000 C 
ENDBRANCH  20  22
ENDBRANCH  18  20
ENDBRANCH  17  18
ENDBRANCH   5  17
TORSDOF 6
ENDMDL
