MODEL 1
REMARK VINA RESULT:      -8.0      0.000      0.000
REMARK  Name = 
REMARK  6 active torsions:
REMARK  status: ('A' for Active; 'I' for Inactive)
REMARK    1  A    between atoms: C_1  and  C_2
REMARK    2  A    between atoms: C_3  and  C_4
REMARK    3  A    between atoms: C_4  and  O_6
REMARK    4  A    between atoms: O_6  and  C_7
REMARK    5  A    between atoms: C_7  and  C_8
REMARK    6  A    between atoms: C_20  and  C_21
REMARK                            x       y       z     vdW  Elec       q    Type
REMARK                         _______ _______ _______ _____ _____    ______ ____
ROOT
ATOM      1  C   UNL     1       1.894   6.311  20.936  0.00  0.00    +0.000 C 
ATOM      2  C   UNL     1       1.977   7.210  19.748  0.00  0.00    +0.000 A 
ATOM      3  C   UNL     1       2.502   6.923  18.487  0.00  0.00    +0.000 A 
ATOM      4  N   UNL     1       2.330   8.054  17.715  0.00  0.00    +0.000 N 
ATOM      5  C   UNL     1       1.764   9.055  18.458  0.00  0.00    +0.000 A 
ATOM      6  C   UNL     1       1.535   8.571  19.723  0.00  0.00    +0.000 A 
ATOM      7  C   UNL     1       0.948   9.397  20.766  0.00  0.00    +0.000 C 
ATOM      8  O   UNL     1       0.830   8.995  21.921  0.00  0.00    +0.000 OA
ATOM      9  C   UNL     1       0.398  10.751  20.358  0.00  0.00    +0.000 C 
ATOM     10  C   UNL     1       0.906  11.370  19.034  0.00  0.00    +0.000 C 
ATOM     11  C   UNL     1       1.445  10.411  17.938  0.00  0.00    +0.000 C 
ATOM     12  H   UNL     1       2.626   8.127  16.747  0.00  0.00    +0.000 HD
ENDROOT
BRANCH  10  13
ATOM     13  C   UNL     1       1.866  12.530  19.286  0.00  0.00    +0.000 A 
ATOM     14  C   UNL     1       2.058  13.066  20.565  0.00  0.00    +0.000 A 
ATOM     15  C   UNL     1       2.938  14.136  20.760  0.00  0.00    +0.000 A 
ATOM     16  C   UNL     1       3.637  14.670  19.679  0.00  0.00    +0.000 A 
ATOM     17 CL   UNL     1       4.725  15.979  19.922  0.00  0.00    +0.000 Cl
ATOM     18  C   UNL     1       3.461  14.148  18.402  0.00  0.00    +0.000 A 
ATOM     19  C   UNL     1       2.579  13.085  18.204  0.00  0.00    +0.000 A 
ENDBRANCH  10  13
BRANCH   3  20
ATOM     20  C   UNL     1       3.186   5.728  18.033  0.00  0.00    +0.000 C 
ATOM     21  O   UNL     1       4.386   5.614  17.827  0.00  0.00    +0.000 OA
BRANCH  20  22
ATOM     22  O   UNL     1       2.268   4.759  17.724  0.00  0.00    +0.000 OA
BRANCH  22  23
ATOM     23  C   UNL     1       2.864   3.535  17.271  0.00  0.00    +0.000 C 
BRANCH  23  24
ATOM     24  C   UNL     1       2.372   2.274  17.998  0.00  0.00    +0.000 C 
ATOM     25  C   UNL     1       3.419   1.857  19.052  0.00  0.00    +0.000 C 
ATOM     26  C   UNL     1       3.359   2.709  20.319  0.00  0.00    +0.000 C 
ATOM     27  C   UNL     1       1.974   2.625  20.945  0.00  0.00    +0.000 C 
ATOM     28  C   UNL     1       0.911   3.111  19.969  0.00  0.00    +0.000 C 
ATOM     29  C   UNL     1       0.969   2.385  18.623  0.00  0.00    +0.000 C 
ENDBRANCH  23  24
ENDBRANCH  22  23
ENDBRANCH  20  22
ENDBRANCH   3  20
TORSDOF 5
ENDMDL
MODEL 2
REMARK VINA RESULT:      -7.7      0.661      1.121
REMARK  Name = 
REMARK  6 active torsions:
REMARK  status: ('A' for Active; 'I' for Inactive)
REMARK    1  A    between atoms: C_1  and  C_2
REMARK    2  A    between atoms: C_3  and  C_4
REMARK    3  A    between atoms: C_4  and  O_6
REMARK    4  A    between atoms: O_6  and  C_7
REMARK    5  A    between atoms: C_7  and  C_8
REMARK    6  A    between atoms: C_20  and  C_21
REMARK                            x       y       z     vdW  Elec       q    Type
REMARK                         _______ _______ _______ _____ _____    ______ ____
ROOT
ATOM      1  C   UNL     1       2.150   6.045  20.861  0.00  0.00    +0.000 C 
ATOM      2  C   UNL     1       2.338   6.951  19.691  0.00  0.00    +0.000 A 
ATOM      3  C   UNL     1       3.110   6.730  18.549  0.00  0.00    +0.000 A 
ATOM      4  N   UNL     1       2.948   7.835  17.737  0.00  0.00    +0.000 N 
ATOM      5  C   UNL     1       2.147   8.761  18.350  0.00  0.00    +0.000 A 
ATOM      6  C   UNL     1       1.753   8.250  19.563  0.00  0.00    +0.000 A 
ATOM      7  C   UNL     1       0.898   8.999  20.469  0.00  0.00    +0.000 C 
ATOM      8  O   UNL     1       0.623   8.583  21.592  0.00  0.00    +0.000 OA
ATOM      9  C   UNL     1       0.276  10.280  19.945  0.00  0.00    +0.000 C 
ATOM     10  C   UNL     1       0.937  10.957  18.721  0.00  0.00    +0.000 C 
ATOM     11  C   UNL     1       1.771  10.071  17.756  0.00  0.00    +0.000 C 
ATOM     12  H   UNL     1       3.402   7.945  16.836  0.00  0.00    +0.000 HD
ENDROOT
BRANCH  10  13
ATOM     13  C   UNL     1       1.696  12.221  19.117  0.00  0.00    +0.000 A 
ATOM     14  C   UNL     1       2.488  12.926  18.203  0.00  0.00    +0.000 A 
ATOM     15  C   UNL     1       3.180  14.074  18.600  0.00  0.00    +0.000 A 
ATOM     16  C   UNL     1       3.077  14.530  19.913  0.00  0.00    +0.000 A 
ATOM     17 CL   UNL     1       3.920  15.948  20.399  0.00  0.00    +0.000 Cl
ATOM     18  C   UNL     1       2.293  13.845  20.835  0.00  0.00    +0.000 A 
ATOM     19  C   UNL     1       1.607  12.695  20.442  0.00  0.00    +0.000 A 
ENDBRANCH  10  13
BRANCH   3  20
ATOM     20  C   UNL     1       3.997   5.624  18.246  0.00  0.00    +0.000 C 
ATOM     21  O   UNL     1       5.156   5.502  18.620  0.00  0.00    +0.000 OA
BRANCH  20  22
ATOM     22  O   UNL     1       3.398   4.783  17.346  0.00  0.00    +0.000 OA
BRANCH  22  23
ATOM     23  C   UNL     1       2.079   4.377  17.741  0.00  0.00    +0.000 C 
BRANCH  23  24
ATOM     24  C   UNL     1       1.946   2.886  18.092  0.00  0.00    +0.000 C 
ATOM     25  C   UNL     1       3.263   2.395  18.726  0.00  0.00    +0.000 C 
ATOM     26  C   UNL     1       3.410   2.811  20.190  0.00  0.00    +0.000 C 
ATOM     27  C   UNL     1       2.243   2.275  21.008  0.00  0.00    +0.000 C 
ATOM     28  C   UNL     1       0.919   2.804  20.471  0.00  0.00    +0.000 C 
ATOM     29  C   UNL     1       0.736   2.530  18.977  0.00  0.00    +0.000 C 
ENDBRANCH  23  24
ENDBRANCH  22  23
ENDBRANCH  20  22
ENDBRANCH   3  20
TORSDOF 5
ENDMDL
MODEL 3
REMARK VINA RESULT:      -7.7      3.641      8.571
REMARK  Name = 
REMARK  6 active torsions:
REMARK  status: ('A' for Active; 'I' for Inactive)
REMARK    1  A    between atoms: C_1  and  C_2
REMARK    2  A    between atoms: C_3  and  C_4
REMARK    3  A    between atoms: C_4  and  O_6
REMARK    4  A    between atoms: O_6  and  C_7
REMARK    5  A    between atoms: C_7  and  C_8
REMARK    6  A    between atoms: C_20  and  C_21
REMARK                            x       y       z     vdW  Elec       q    Type
REMARK                         _______ _______ _______ _____ _____    ______ ____
ROOT
ATOM      1  C   UNL     1      -1.322  11.370  21.175  0.00  0.00    +0.000 C 
ATOM      2  C   UNL     1      -0.523  10.781  20.061  0.00  0.00    +0.000 A 
ATOM      3  C   UNL     1      -0.538  11.135  18.711  0.00  0.00    +0.000 A 
ATOM      4  N   UNL     1       0.390  10.333  18.077  0.00  0.00    +0.000 N 
ATOM      5  C   UNL     1       0.947   9.455  18.968  0.00  0.00    +0.000 A 
ATOM      6  C   UNL     1       0.403   9.700  20.206  0.00  0.00    +0.000 A 
ATOM      7  C   UNL     1       0.781   8.924  21.376  0.00  0.00    +0.000 C 
ATOM      8  O   UNL     1       0.228   9.079  22.462  0.00  0.00    +0.000 OA
ATOM      9  C   UNL     1       1.953   7.971  21.234  0.00  0.00    +0.000 C 
ATOM     10  C   UNL     1       2.351   7.519  19.808  0.00  0.00    +0.000 C 
ATOM     11  C   UNL     1       1.980   8.445  18.618  0.00  0.00    +0.000 C 
ATOM     12  H   UNL     1       0.586  10.375  17.082  0.00  0.00    +0.000 HD
ENDROOT
BRANCH  10  13
ATOM     13  C   UNL     1       1.943   6.072  19.541  0.00  0.00    +0.000 A 
ATOM     14  C   UNL     1       1.476   5.235  20.561  0.00  0.00    +0.000 A 
ATOM     15  C   UNL     1       1.121   3.911  20.286  0.00  0.00    +0.000 A 
ATOM     16  C   UNL     1       1.222   3.419  18.986  0.00  0.00    +0.000 A 
ATOM     17 CL   UNL     1       0.776   1.792  18.646  0.00  0.00    +0.000 Cl
ATOM     18  C   UNL     1       1.682   4.236  17.959  0.00  0.00    +0.000 A 
ATOM     19  C   UNL     1       2.043   5.556  18.233  0.00  0.00    +0.000 A 
ENDBRANCH  10  13
BRANCH   3  20
ATOM     20  C   UNL     1      -1.392  12.086  18.026  0.00  0.00    +0.000 C 
ATOM     21  O   UNL     1      -2.530  11.880  17.626  0.00  0.00    +0.000 OA
BRANCH  20  22
ATOM     22  O   UNL     1      -0.687  13.229  17.754  0.00  0.00    +0.000 OA
BRANCH  22  23
ATOM     23  C   UNL     1      -0.654  14.150  18.853  0.00  0.00    +0.000 C 
BRANCH  23  24
ATOM     24  C   UNL     1       0.676  14.903  19.018  0.00  0.00    +0.000 C 
ATOM     25  C   UNL     1       0.860  15.285  20.501  0.00  0.00    +0.000 C 
ATOM     26  C   UNL     1       1.324  14.112  21.364  0.00  0.00    +0.000 C 
ATOM     27  C   UNL     1       2.638  13.556  20.834  0.00  0.00    +0.000 C 
ATOM     28  C   UNL     1       2.484  13.084  19.394  0.00  0.00    +0.000 C 
ATOM     29  C   UNL     1       1.915  14.167  18.476  0.00  0.00    +0.000 C 
ENDBRANCH  23  24
ENDBRANCH  22  23
ENDBRANCH  20  22
ENDBRANCH   3  20
TORSDOF 5
ENDMDL
MODEL 4
REMARK VINA RESULT:      -7.5      4.648      8.691
REMARK  Name = 
REMARK  6 active torsions:
REMARK  status: ('A' for Active; 'I' for Inactive)
REMARK    1  A    between atoms: C_1  and  C_2
REMARK    2  A    between atoms: C_3  and  C_4
REMARK    3  A    between atoms: C_4  and  O_6
REMARK    4  A    between atoms: O_6  and  C_7
REMARK    5  A    between atoms: C_7  and  C_8
REMARK    6  A    between atoms: C_20  and  C_21
REMARK                            x       y       z     vdW  Elec       q    Type
REMARK                         _______ _______ _______ _____ _____    ______ ____
ROOT
ATOM      1  C   UNL     1      -1.113  11.259  21.276  0.00  0.00    +0.000 C 
ATOM      2  C   UNL     1      -0.375  10.683  20.115  0.00  0.00    +0.000 A 
ATOM      3  C   UNL     1      -0.446  11.066  18.775  0.00  0.00    +0.000 A 
ATOM      4  N   UNL     1       0.439  10.265  18.082  0.00  0.00    +0.000 N 
ATOM      5  C   UNL     1       1.023   9.360  18.927  0.00  0.00    +0.000 A 
ATOM      6  C   UNL     1       0.541   9.586  20.194  0.00  0.00    +0.000 A 
ATOM      7  C   UNL     1       0.960   8.780  21.329  0.00  0.00    +0.000 C 
ATOM      8  O   UNL     1       0.459   8.919  22.442  0.00  0.00    +0.000 OA
ATOM      9  C   UNL     1       2.110   7.813  21.113  0.00  0.00    +0.000 C 
ATOM     10  C   UNL     1       2.435   7.387  19.661  0.00  0.00    +0.000 C 
ATOM     11  C   UNL     1       2.023   8.343  18.509  0.00  0.00    +0.000 C 
ATOM     12  H   UNL     1       0.589  10.326  17.080  0.00  0.00    +0.000 HD
ENDROOT
BRANCH  10  13
ATOM     13  C   UNL     1       1.993   5.952  19.383  0.00  0.00    +0.000 A 
ATOM     14  C   UNL     1       2.088   5.384  18.107  0.00  0.00    +0.000 A 
ATOM     15  C   UNL     1       1.665   4.070  17.883  0.00  0.00    +0.000 A 
ATOM     16  C   UNL     1       1.153   3.313  18.935  0.00  0.00    +0.000 A 
ATOM     17 CL   UNL     1       0.641   1.694  18.660  0.00  0.00    +0.000 Cl
ATOM     18  C   UNL     1       1.054   3.860  20.210  0.00  0.00    +0.000 A 
ATOM     19  C   UNL     1       1.469   5.173  20.434  0.00  0.00    +0.000 A 
ENDBRANCH  10  13
BRANCH   3  20
ATOM     20  C   UNL     1      -1.316  12.043  18.150  0.00  0.00    +0.000 C 
ATOM     21  O   UNL     1      -1.259  13.258  18.290  0.00  0.00    +0.000 OA
BRANCH  20  22
ATOM     22  O   UNL     1      -2.322  11.403  17.476  0.00  0.00    +0.000 OA
BRANCH  22  23
ATOM     23  C   UNL     1      -3.450  11.088  18.305  0.00  0.00    +0.000 C 
BRANCH  23  24
ATOM     24  C   UNL     1      -4.596  12.110  18.247  0.00  0.00    +0.000 C 
ATOM     25  C   UNL     1      -5.852  11.431  17.665  0.00  0.00    +0.000 C 
ATOM     26  C   UNL     1      -6.579  10.553  18.683  0.00  0.00    +0.000 C 
ATOM     27  C   UNL     1      -6.986  11.380  19.894  0.00  0.00    +0.000 C 
ATOM     28  C   UNL     1      -5.765  12.004  20.558  0.00  0.00    +0.000 C 
ATOM     29  C   UNL     1      -4.912  12.814  19.580  0.00  0.00    +0.000 C 
ENDBRANCH  23  24
ENDBRANCH  22  23
ENDBRANCH  20  22
ENDBRANCH   3  20
TORSDOF 5
ENDMDL
MODEL 5
REMARK VINA RESULT:      -7.5      2.027      3.199
REMARK  Name = 
REMARK  6 active torsions:
REMARK  status: ('A' for Active; 'I' for Inactive)
REMARK    1  A    between atoms: C_1  and  C_2
REMARK    2  A    between atoms: C_3  and  C_4
REMARK    3  A    between atoms: C_4  and  O_6
REMARK    4  A    between atoms: O_6  and  C_7
REMARK    5  A    between atoms: C_7  and  C_8
REMARK    6  A    between atoms: C_20  and  C_21
REMARK                            x       y       z     vdW  Elec       q    Type
REMARK                         _______ _______ _______ _____ _____    ______ ____
ROOT
ATOM      1  C   UNL     1       1.769   5.820  21.122  0.00  0.00    +0.000 C 
ATOM      2  C   UNL     1       2.106   6.678  19.950  0.00  0.00    +0.000 A 
ATOM      3  C   UNL     1       2.996   6.403  18.910  0.00  0.00    +0.000 A 
ATOM      4  N   UNL     1       2.949   7.480  18.047  0.00  0.00    +0.000 N 
ATOM      5  C   UNL     1       2.103   8.441  18.533  0.00  0.00    +0.000 A 
ATOM      6  C   UNL     1       1.566   7.981  19.711  0.00  0.00    +0.000 A 
ATOM      7  C   UNL     1       0.629   8.777  20.489  0.00  0.00    +0.000 C 
ATOM      8  O   UNL     1       0.223   8.408  21.588  0.00  0.00    +0.000 OA
ATOM      9  C   UNL     1       0.097  10.048  19.854  0.00  0.00    +0.000 C 
ATOM     10  C   UNL     1       0.904  10.669  18.689  0.00  0.00    +0.000 C 
ATOM     11  C   UNL     1       1.822   9.734  17.856  0.00  0.00    +0.000 C 
ATOM     12  H   UNL     1       3.502   7.549  17.200  0.00  0.00    +0.000 HD
ENDROOT
BRANCH  10  13
ATOM     13  C   UNL     1       1.640  11.934  19.124  0.00  0.00    +0.000 A 
ATOM     14  C   UNL     1       1.608  12.389  20.448  0.00  0.00    +0.000 A 
ATOM     15  C   UNL     1       2.284  13.558  20.813  0.00  0.00    +0.000 A 
ATOM     16  C   UNL     1       3.003  14.274  19.858  0.00  0.00    +0.000 A 
ATOM     17 CL   UNL     1       3.841  15.706  20.309  0.00  0.00    +0.000 Cl
ATOM     18  C   UNL     1       3.047  13.836  18.538  0.00  0.00    +0.000 A 
ATOM     19  C   UNL     1       2.368  12.673  18.171  0.00  0.00    +0.000 A 
ENDBRANCH  10  13
BRANCH   3  20
ATOM     20  C   UNL     1       3.889   5.273  18.747  0.00  0.00    +0.000 C 
ATOM     21  O   UNL     1       3.582   4.160  18.342  0.00  0.00    +0.000 OA
BRANCH  20  22
ATOM     22  O   UNL     1       5.124   5.582  19.253  0.00  0.00    +0.000 OA
BRANCH  22  23
ATOM     23  C   UNL     1       6.172   4.743  18.745  0.00  0.00    +0.000 C 
BRANCH  23  24
ATOM     24  C   UNL     1       7.025   5.383  17.638  0.00  0.00    +0.000 C 
ATOM     25  C   UNL     1       7.342   4.321  16.565  0.00  0.00    +0.000 C 
ATOM     26  C   UNL     1       6.168   4.060  15.621  0.00  0.00    +0.000 C 
ATOM     27  C   UNL     1       5.755   5.350  14.927  0.00  0.00    +0.000 C 
ATOM     28  C   UNL     1       5.349   6.406  15.946  0.00  0.00    +0.000 C 
ATOM     29  C   UNL     1       6.427   6.652  17.003  0.00  0.00    +0.000 C 
ENDBRANCH  23  24
ENDBRANCH  22  23
ENDBRANCH  20  22
ENDBRANCH   3  20
TORSDOF 5
ENDMDL
MODEL 6
REMARK VINA RESULT:      -7.5      1.057      1.075
REMARK  Name = 
REMARK  6 active torsions:
REMARK  status: ('A' for Active; 'I' for Inactive)
REMARK    1  A    between atoms: C_1  and  C_2
REMARK    2  A    between atoms: C_3  and  C_4
REMARK    3  A    between atoms: C_4  and  O_6
REMARK    4  A    between atoms: O_6  and  C_7
REMARK    5  A    between atoms: C_7  and  C_8
REMARK    6  A    between atoms: C_20  and  C_21
REMARK                            x       y       z     vdW  Elec       q    Type
REMARK                         _______ _______ _______ _____ _____    ______ ____
ROOT
ATOM      1  C   UNL     1       2.383   6.436  20.719  0.00  0.00    +0.000 C 
ATOM      2  C   UNL     1       2.172   7.408  19.606  0.00  0.00    +0.000 A 
ATOM      3  C   UNL     1       2.665   7.342  18.302  0.00  0.00    +0.000 A 
ATOM      4  N   UNL     1       2.179   8.448  17.634  0.00  0.00    +0.000 N 
ATOM      5  C   UNL     1       1.445   9.231  18.484  0.00  0.00    +0.000 A 
ATOM      6  C   UNL     1       1.421   8.620  19.715  0.00  0.00    +0.000 A 
ATOM      7  C   UNL     1       0.726   9.208  20.849  0.00  0.00    +0.000 C 
ATOM      8  O   UNL     1       0.784   8.713  21.971  0.00  0.00    +0.000 OA
ATOM      9  C   UNL     1      -0.153  10.415  20.580  0.00  0.00    +0.000 C 
ATOM     10  C   UNL     1       0.105  11.227  19.288  0.00  0.00    +0.000 C 
ATOM     11  C   UNL     1       0.781  10.502  18.093  0.00  0.00    +0.000 C 
ATOM     12  H   UNL     1       2.385   8.656  16.662  0.00  0.00    +0.000 HD
ENDROOT
BRANCH  10  13
ATOM     13  C   UNL     1       0.779  12.563  19.587  0.00  0.00    +0.000 A 
ATOM     14  C   UNL     1       1.729  12.701  20.607  0.00  0.00    +0.000 A 
ATOM     15  C   UNL     1       2.320  13.942  20.863  0.00  0.00    +0.000 A 
ATOM     16  C   UNL     1       1.973  15.051  20.095  0.00  0.00    +0.000 A 
ATOM     17 CL   UNL     1       2.708  16.575  20.404  0.00  0.00    +0.000 Cl
ATOM     18  C   UNL     1       1.033  14.933  19.076  0.00  0.00    +0.000 A 
ATOM     19  C   UNL     1       0.437  13.697  18.823  0.00  0.00    +0.000 A 
ENDBRANCH  10  13
BRANCH   3  20
ATOM     20  C   UNL     1       3.579   6.379  17.719  0.00  0.00    +0.000 C 
ATOM     21  O   UNL     1       4.698   6.615  17.283  0.00  0.00    +0.000 OA
BRANCH  20  22
ATOM     22  O   UNL     1       2.955   5.167  17.589  0.00  0.00    +0.000 OA
BRANCH  22  23
ATOM     23  C   UNL     1       3.674   4.089  18.205  0.00  0.00    +0.000 C 
BRANCH  23  24
ATOM     24  C   UNL     1       2.851   2.809  18.419  0.00  0.00    +0.000 C 
ATOM     25  C   UNL     1       3.361   2.084  19.681  0.00  0.00    +0.000 C 
ATOM     26  C   UNL     1       2.859   2.721  20.977  0.00  0.00    +0.000 C 
ATOM     27  C   UNL     1       1.337   2.734  21.001  0.00  0.00    +0.000 C 
ATOM     28  C   UNL     1       0.785   3.515  19.817  0.00  0.00    +0.000 C 
ATOM     29  C   UNL     1       1.325   3.015  18.476  0.00  0.00    +0.000 C 
ENDBRANCH  23  24
ENDBRANCH  22  23
ENDBRANCH  20  22
ENDBRANCH   3  20
TORSDOF 5
ENDMDL
MODEL 7
REMARK VINA RESULT:      -7.4      4.232      5.851
REMARK  Name = 
REMARK  6 active torsions:
REMARK  status: ('A' for Active; 'I' for Inactive)
REMARK    1  A    between atoms: C_1  and  C_2
REMARK    2  A    between atoms: C_3  and  C_4
REMARK    3  A    between atoms: C_4  and  O_6
REMARK    4  A    between atoms: O_6  and  C_7
REMARK    5  A    between atoms: C_7  and  C_8
REMARK    6  A    between atoms: C_20  and  C_21
REMARK                            x       y       z     vdW  Elec       q    Type
REMARK                         _______ _______ _______ _____ _____    ______ ____
ROOT
ATOM      1  C   UNL     1       1.885  12.545  18.751  0.00  0.00    +0.000 C 
ATOM      2  C   UNL     1       1.133  11.655  19.683  0.00  0.00    +0.000 A 
ATOM      3  C   UNL     1       1.030  10.264  19.647  0.00  0.00    +0.000 A 
ATOM      4  N   UNL     1       0.256   9.892  20.728  0.00  0.00    +0.000 N 
ATOM      5  C   UNL     1      -0.173  11.000  21.408  0.00  0.00    +0.000 A 
ATOM      6  C   UNL     1       0.347  12.110  20.788  0.00  0.00    +0.000 A 
ATOM      7  C   UNL     1       0.068  13.456  21.264  0.00  0.00    +0.000 C 
ATOM      8  O   UNL     1       0.454  14.451  20.655  0.00  0.00    +0.000 OA
ATOM      9  C   UNL     1      -0.645  13.591  22.596  0.00  0.00    +0.000 C 
ATOM     10  C   UNL     1      -1.444  12.374  23.118  0.00  0.00    +0.000 C 
ATOM     11  C   UNL     1      -1.032  10.961  22.622  0.00  0.00    +0.000 C 
ATOM     12  H   UNL     1       0.015   8.931  20.946  0.00  0.00    +0.000 HD
ENDROOT
BRANCH  10  13
ATOM     13  C   UNL     1      -2.950  12.593  22.995  0.00  0.00    +0.000 A 
ATOM     14  C   UNL     1      -3.787  12.624  24.117  0.00  0.00    +0.000 A 
ATOM     15  C   UNL     1      -5.165  12.816  23.969  0.00  0.00    +0.000 A 
ATOM     16  C   UNL     1      -5.712  12.986  22.699  0.00  0.00    +0.000 A 
ATOM     17 CL   UNL     1      -7.405  13.231  22.519  0.00  0.00    +0.000 Cl
ATOM     18  C   UNL     1      -4.896  12.961  21.573  0.00  0.00    +0.000 A 
ATOM     19  C   UNL     1      -3.522  12.763  21.718  0.00  0.00    +0.000 A 
ENDBRANCH  10  13
BRANCH   3  20
ATOM     20  C   UNL     1       1.537   9.335  18.655  0.00  0.00    +0.000 C 
ATOM     21  O   UNL     1       1.389   9.418  17.444  0.00  0.00    +0.000 OA
BRANCH  20  22
ATOM     22  O   UNL     1       2.097   8.252  19.279  0.00  0.00    +0.000 OA
BRANCH  22  23
ATOM     23  C   UNL     1       2.494   7.216  18.370  0.00  0.00    +0.000 C 
BRANCH  23  24
ATOM     24  C   UNL     1       3.043   5.948  19.042  0.00  0.00    +0.000 C 
ATOM     25  C   UNL     1       1.939   4.871  19.073  0.00  0.00    +0.000 C 
ATOM     26  C   UNL     1       1.751   4.173  17.726  0.00  0.00    +0.000 C 
ATOM     27  C   UNL     1       3.055   3.525  17.284  0.00  0.00    +0.000 C 
ATOM     28  C   UNL     1       4.159   4.565  17.154  0.00  0.00    +0.000 C 
ATOM     29  C   UNL     1       4.343   5.393  18.428  0.00  0.00    +0.000 C 
ENDBRANCH  23  24
ENDBRANCH  22  23
ENDBRANCH  20  22
ENDBRANCH   3  20
TORSDOF 5
ENDMDL
MODEL 8
REMARK VINA RESULT:      -7.4      3.214      4.337
REMARK  Name = 
REMARK  6 active torsions:
REMARK  status: ('A' for Active; 'I' for Inactive)
REMARK    1  A    between atoms: C_1  and  C_2
REMARK    2  A    between atoms: C_3  and  C_4
REMARK    3  A    between atoms: C_4  and  O_6
REMARK    4  A    between atoms: O_6  and  C_7
REMARK    5  A    between atoms: C_7  and  C_8
REMARK    6  A    between atoms: C_20  and  C_21
REMARK                            x       y       z     vdW  Elec       q    Type
REMARK                         _______ _______ _______ _____ _____    ______ ____
ROOT
ATOM      1  C   UNL     1       3.600   7.338  17.894  0.00  0.00    +0.000 C 
ATOM      2  C   UNL     1       2.634   7.645  18.988  0.00  0.00    +0.000 A 
ATOM      3  C   UNL     1       2.285   6.845  20.077  0.00  0.00    +0.000 A 
ATOM      4  N   UNL     1       1.380   7.565  20.830  0.00  0.00    +0.000 N 
ATOM      5  C   UNL     1       1.108   8.764  20.227  0.00  0.00    +0.000 A 
ATOM      6  C   UNL     1       1.864   8.847  19.082  0.00  0.00    +0.000 A 
ATOM      7  C   UNL     1       1.798  10.003  18.202  0.00  0.00    +0.000 C 
ATOM      8  O   UNL     1       2.400  10.037  17.131  0.00  0.00    +0.000 OA
ATOM      9  C   UNL     1       1.025  11.212  18.694  0.00  0.00    +0.000 C 
ATOM     10  C   UNL     1      -0.016  10.999  19.819  0.00  0.00    +0.000 C 
ATOM     11  C   UNL     1       0.171   9.784  20.767  0.00  0.00    +0.000 C 
ATOM     12  H   UNL     1       0.954   7.220  21.684  0.00  0.00    +0.000 HD
ENDROOT
BRANCH  10  13
ATOM     13  C   UNL     1      -1.445  11.080  19.287  0.00  0.00    +0.000 A 
ATOM     14  C   UNL     1      -2.361  12.022  19.770  0.00  0.00    +0.000 A 
ATOM     15  C   UNL     1      -3.666  12.063  19.269  0.00  0.00    +0.000 A 
ATOM     16  C   UNL     1      -4.060  11.168  18.276  0.00  0.00    +0.000 A 
ATOM     17 CL   UNL     1      -5.663  11.225  17.654  0.00  0.00    +0.000 Cl
ATOM     18  C   UNL     1      -3.163  10.227  17.782  0.00  0.00    +0.000 A 
ATOM     19  C   UNL     1      -1.862  10.180  18.285  0.00  0.00    +0.000 A 
ENDBRANCH  10  13
BRANCH   3  20
ATOM     20  C   UNL     1       2.688   5.484  20.376  0.00  0.00    +0.000 C 
ATOM     21  O   UNL     1       2.177   4.744  21.206  0.00  0.00    +0.000 OA
BRANCH  20  22
ATOM     22  O   UNL     1       3.833   5.178  19.690  0.00  0.00    +0.000 OA
BRANCH  22  23
ATOM     23  C   UNL     1       4.150   3.779  19.710  0.00  0.00    +0.000 C 
BRANCH  23  24
ATOM     24  C   UNL     1       3.713   3.004  18.456  0.00  0.00    +0.000 C 
ATOM     25  C   UNL     1       3.078   1.666  18.884  0.00  0.00    +0.000 C 
ATOM     26  C   UNL     1       1.643   1.822  19.387  0.00  0.00    +0.000 C 
ATOM     27  C   UNL     1       0.774   2.454  18.309  0.00  0.00    +0.000 C 
ATOM     28  C   UNL     1       1.314   3.822  17.913  0.00  0.00    +0.000 C 
ATOM     29  C   UNL     1       2.786   3.779  17.500  0.00  0.00    +0.000 C 
ENDBRANCH  23  24
ENDBRANCH  22  23
ENDBRANCH  20  22
ENDBRANCH   3  20
TORSDOF 5
ENDMDL
MODEL 9
REMARK VINA RESULT:      -7.4      4.127      5.633
REMARK  Name = 
REMARK  6 active torsions:
REMARK  status: ('A' for Active; 'I' for Inactive)
REMARK    1  A    between atoms: C_1  and  C_2
REMARK    2  A    between atoms: C_3  and  C_4
REMARK    3  A    between atoms: C_4  and  O_6
REMARK    4  A    between atoms: O_6  and  C_7
REMARK    5  A    between atoms: C_7  and  C_8
REMARK    6  A    between atoms: C_20  and  C_21
REMARK                            x       y       z     vdW  Elec       q    Type
REMARK                         _______ _______ _______ _____ _____    ______ ____
ROOT
ATOM      1  C   UNL     1       1.978  12.057  18.578  0.00  0.00    +0.000 C 
ATOM      2  C   UNL     1       1.249  11.280  19.622  0.00  0.00    +0.000 A 
ATOM      3  C   UNL     1       1.162   9.893  19.758  0.00  0.00    +0.000 A 
ATOM      4  N   UNL     1       0.408   9.648  20.888  0.00  0.00    +0.000 N 
ATOM      5  C   UNL     1      -0.025  10.827  21.435  0.00  0.00    +0.000 A 
ATOM      6  C   UNL     1       0.474  11.858  20.676  0.00  0.00    +0.000 A 
ATOM      7  C   UNL     1       0.185  13.249  20.989  0.00  0.00    +0.000 C 
ATOM      8  O   UNL     1       0.551  14.166  20.258  0.00  0.00    +0.000 OA
ATOM      9  C   UNL     1      -0.510  13.539  22.306  0.00  0.00    +0.000 C 
ATOM     10  C   UNL     1      -1.287  12.386  22.984  0.00  0.00    +0.000 C 
ATOM     11  C   UNL     1      -0.865  10.928  22.657  0.00  0.00    +0.000 C 
ATOM     12  H   UNL     1       0.181   8.718  21.225  0.00  0.00    +0.000 HD
ENDROOT
BRANCH  10  13
ATOM     13  C   UNL     1      -2.798  12.573  22.858  0.00  0.00    +0.000 A 
ATOM     14  C   UNL     1      -3.430  12.665  21.613  0.00  0.00    +0.000 A 
ATOM     15  C   UNL     1      -4.814  12.848  21.532  0.00  0.00    +0.000 A 
ATOM     16  C   UNL     1      -5.575  12.930  22.696  0.00  0.00    +0.000 A 
ATOM     17 CL   UNL     1      -7.279  13.145  22.595  0.00  0.00    +0.000 Cl
ATOM     18  C   UNL     1      -4.965  12.838  23.943  0.00  0.00    +0.000 A 
ATOM     19  C   UNL     1      -3.583  12.663  24.025  0.00  0.00    +0.000 A 
ENDBRANCH  10  13
BRANCH   3  20
ATOM     20  C   UNL     1       1.666   8.856  18.879  0.00  0.00    +0.000 C 
ATOM     21  O   UNL     1       1.548   8.818  17.662  0.00  0.00    +0.000 OA
BRANCH  20  22
ATOM     22  O   UNL     1       2.182   7.828  19.623  0.00  0.00    +0.000 OA
BRANCH  22  23
ATOM     23  C   UNL     1       2.348   6.614  18.877  0.00  0.00    +0.000 C 
BRANCH  23  24
ATOM     24  C   UNL     1       2.979   5.457  19.668  0.00  0.00    +0.000 C 
ATOM     25  C   UNL     1       2.010   5.021  20.787  0.00  0.00    +0.000 C 
ATOM     26  C   UNL     1       0.862   4.153  20.275  0.00  0.00    +0.000 C 
ATOM     27  C   UNL     1       1.408   2.909  19.588  0.00  0.00    +0.000 C 
ATOM     28  C   UNL     1       2.305   3.289  18.417  0.00  0.00    +0.000 C 
ATOM     29  C   UNL     1       3.424   4.252  18.818  0.00  0.00    +0.000 C 
ENDBRANCH  23  24
ENDBRANCH  22  23
ENDBRANCH  20  22
ENDBRANCH   3  20
TORSDOF 5
ENDMDL
