MODEL 1
REMARK VINA RESULT:      -7.6      0.000      0.000
REMARK  Name = 
REMARK  5 active torsions:
REMARK  status: ('A' for Active; 'I' for Inactive)
REMARK    1  A    between atoms: C_1  and  O_2
REMARK    2  A    between atoms: O_2  and  C_3
REMARK    3  A    between atoms: C_5  and  O_6
REMARK    4  A    between atoms: O_6  and  C_7
REMARK    5  A    between atoms: C_15  and  C_16
REMARK                            x       y       z     vdW  Elec       q    Type
REMARK                         _______ _______ _______ _____ _____    ______ ____
ROOT
ATOM      1  C   UNL     1       1.663   4.130  20.690  0.00  0.00    +0.000 A 
ATOM      2  C   UNL     1       1.562   5.517  20.778  0.00  0.00    +0.000 A 
ATOM      3  C   UNL     1       2.213   6.353  19.853  0.00  0.00    +0.000 A 
ATOM      4  C   UNL     1       2.985   5.780  18.821  0.00  0.00    +0.000 A 
ATOM      5  C   UNL     1       3.086   4.384  18.753  0.00  0.00    +0.000 A 
ATOM      6  C   UNL     1       2.437   3.567  19.686  0.00  0.00    +0.000 A 
ATOM      7  C   UNL     1       3.874   3.720  17.696  0.00  0.00    +0.000 C 
ATOM      8  O   UNL     1       3.947   2.498  17.643  0.00  0.00    +0.000 OA
ATOM      9  C   UNL     1       4.571   4.537  16.700  0.00  0.00    +0.000 A 
ATOM     10  C   UNL     1       5.314   3.908  15.699  0.00  0.00    +0.000 A 
ATOM     11  C   UNL     1       5.968   4.696  14.766  0.00  0.00    +0.000 A 
ATOM     12  C   UNL     1       6.778   4.066  13.672  0.00  0.00    +0.000 C 
ATOM     13  N   UNL     1       5.907   6.049  14.798  0.00  0.00    +0.000 NA
ATOM     14  C   UNL     1       5.173   6.631  15.783  0.00  0.00    +0.000 A 
ATOM     15  C   UNL     1       4.488   5.917  16.753  0.00  0.00    +0.000 A 
ATOM     16  C   UNL     1       3.705   6.600  17.797  0.00  0.00    +0.000 C 
ATOM     17  O   UNL     1       3.674   7.825  17.779  0.00  0.00    +0.000 OA
ENDROOT
BRANCH   1  19
ATOM     18  C   UNL     1       1.887   2.117  21.915  0.00  0.00    +0.000 C 
ATOM     19  O   UNL     1       1.089   3.238  21.550  0.00  0.00    +0.000 OA
ENDBRANCH   1  19
BRANCH   3  20
ATOM     20  O   UNL     1       2.136   7.719  19.913  0.00  0.00    +0.000 OA
ATOM     21  C   UNL     1       1.321   8.312  20.919  0.00  0.00    +0.000 C 
ENDBRANCH   3  20
TORSDOF 2
ENDMDL
MODEL 2
REMARK VINA RESULT:      -7.1      0.999      3.483
REMARK  Name = 
REMARK  5 active torsions:
REMARK  status: ('A' for Active; 'I' for Inactive)
REMARK    1  A    between atoms: C_1  and  O_2
REMARK    2  A    between atoms: O_2  and  C_3
REMARK    3  A    between atoms: C_5  and  O_6
REMARK    4  A    between atoms: O_6  and  C_7
REMARK    5  A    between atoms: C_15  and  C_16
REMARK                            x       y       z     vdW  Elec       q    Type
REMARK                         _______ _______ _______ _____ _____    ______ ____
ROOT
ATOM      1  C   UNL     1       1.695   6.749  20.425  0.00  0.00    +0.000 A 
ATOM      2  C   UNL     1       1.451   5.410  20.723  0.00  0.00    +0.000 A 
ATOM      3  C   UNL     1       2.068   4.378  19.992  0.00  0.00    +0.000 A 
ATOM      4  C   UNL     1       2.948   4.704  18.939  0.00  0.00    +0.000 A 
ATOM      5  C   UNL     1       3.174   6.055  18.645  0.00  0.00    +0.000 A 
ATOM      6  C   UNL     1       2.545   7.068  19.377  0.00  0.00    +0.000 A 
ATOM      7  C   UNL     1       4.085   6.464  17.557  0.00  0.00    +0.000 C 
ATOM      8  O   UNL     1       4.282   7.649  17.317  0.00  0.00    +0.000 OA
ATOM      9  C   UNL     1       4.763   5.436  16.764  0.00  0.00    +0.000 A 
ATOM     10  C   UNL     1       5.627   5.824  15.738  0.00  0.00    +0.000 A 
ATOM     11  C   UNL     1       6.258   4.838  14.997  0.00  0.00    +0.000 A 
ATOM     12  C   UNL     1       7.196   5.206  13.885  0.00  0.00    +0.000 C 
ATOM     13  N   UNL     1       6.063   3.519  15.239  0.00  0.00    +0.000 NA
ATOM     14  C   UNL     1       5.218   3.175  16.246  0.00  0.00    +0.000 A 
ATOM     15  C   UNL     1       4.548   4.096  17.035  0.00  0.00    +0.000 A 
ATOM     16  C   UNL     1       3.646   3.666  18.117  0.00  0.00    +0.000 C 
ATOM     17  O   UNL     1       3.508   2.463  18.301  0.00  0.00    +0.000 OA
ENDROOT
BRANCH   1  19
ATOM     18  C   UNL     1       1.057   9.026  20.309  0.00  0.00    +0.000 C 
ATOM     19  O   UNL     1       1.128   7.817  21.059  0.00  0.00    +0.000 OA
ENDBRANCH   1  19
BRANCH   3  20
ATOM     20  O   UNL     1       1.847   3.053  20.258  0.00  0.00    +0.000 OA
ATOM     21  C   UNL     1       1.719   2.643  21.615  0.00  0.00    +0.000 C 
ENDBRANCH   3  20
TORSDOF 2
ENDMDL
MODEL 3
REMARK VINA RESULT:      -7.0      2.584      6.323
REMARK  Name = 
REMARK  5 active torsions:
REMARK  status: ('A' for Active; 'I' for Inactive)
REMARK    1  A    between atoms: C_1  and  O_2
REMARK    2  A    between atoms: O_2  and  C_3
REMARK    3  A    between atoms: C_5  and  O_6
REMARK    4  A    between atoms: O_6  and  C_7
REMARK    5  A    between atoms: C_15  and  C_16
REMARK                            x       y       z     vdW  Elec       q    Type
REMARK                         _______ _______ _______ _____ _____    ______ ____
ROOT
ATOM      1  C   UNL     1       5.181   5.343  16.490  0.00  0.00    +0.000 A 
ATOM      2  C   UNL     1       5.137   4.336  17.453  0.00  0.00    +0.000 A 
ATOM      3  C   UNL     1       4.342   4.468  18.606  0.00  0.00    +0.000 A 
ATOM      4  C   UNL     1       3.578   5.640  18.793  0.00  0.00    +0.000 A 
ATOM      5  C   UNL     1       3.643   6.647  17.822  0.00  0.00    +0.000 A 
ATOM      6  C   UNL     1       4.446   6.502  16.685  0.00  0.00    +0.000 A 
ATOM      7  C   UNL     1       2.868   7.896  17.956  0.00  0.00    +0.000 C 
ATOM      8  O   UNL     1       2.927   8.765  17.093  0.00  0.00    +0.000 OA
ATOM      9  C   UNL     1       2.016   8.090  19.131  0.00  0.00    +0.000 A 
ATOM     10  C   UNL     1       1.281   9.270  19.255  0.00  0.00    +0.000 A 
ATOM     11  C   UNL     1       0.482   9.438  20.374  0.00  0.00    +0.000 A 
ATOM     12  C   UNL     1      -0.327  10.689  20.551  0.00  0.00    +0.000 C 
ATOM     13  N   UNL     1       0.395   8.495  21.344  0.00  0.00    +0.000 NA
ATOM     14  C   UNL     1       1.121   7.356  21.192  0.00  0.00    +0.000 A 
ATOM     15  C   UNL     1       1.943   7.109  20.104  0.00  0.00    +0.000 A 
ATOM     16  C   UNL     1       2.706   5.854  19.990  0.00  0.00    +0.000 C 
ATOM     17  O   UNL     1       2.588   5.030  20.889  0.00  0.00    +0.000 OA
ENDROOT
BRANCH   1  19
ATOM     18  C   UNL     1       6.291   4.029  14.864  0.00  0.00    +0.000 C 
ATOM     19  O   UNL     1       5.938   5.318  15.353  0.00  0.00    +0.000 OA
ENDBRANCH   1  19
BRANCH   3  20
ATOM     20  O   UNL     1       4.277   3.499  19.571  0.00  0.00    +0.000 OA
ATOM     21  C   UNL     1       3.781   2.213  19.214  0.00  0.00    +0.000 C 
ENDBRANCH   3  20
TORSDOF 2
ENDMDL
MODEL 4
REMARK VINA RESULT:      -6.5      2.515      5.500
REMARK  Name = 
REMARK  5 active torsions:
REMARK  status: ('A' for Active; 'I' for Inactive)
REMARK    1  A    between atoms: C_1  and  O_2
REMARK    2  A    between atoms: O_2  and  C_3
REMARK    3  A    between atoms: C_5  and  O_6
REMARK    4  A    between atoms: O_6  and  C_7
REMARK    5  A    between atoms: C_15  and  C_16
REMARK                            x       y       z     vdW  Elec       q    Type
REMARK                         _______ _______ _______ _____ _____    ______ ____
ROOT
ATOM      1  C   UNL     1       3.155   3.929  19.917  0.00  0.00    +0.000 A 
ATOM      2  C   UNL     1       3.778   4.084  18.680  0.00  0.00    +0.000 A 
ATOM      3  C   UNL     1       3.713   5.303  17.981  0.00  0.00    +0.000 A 
ATOM      4  C   UNL     1       3.003   6.387  18.539  0.00  0.00    +0.000 A 
ATOM      5  C   UNL     1       2.373   6.211  19.778  0.00  0.00    +0.000 A 
ATOM      6  C   UNL     1       2.441   4.989  20.456  0.00  0.00    +0.000 A 
ATOM      7  C   UNL     1       1.616   7.305  20.418  0.00  0.00    +0.000 C 
ATOM      8  O   UNL     1       1.077   7.141  21.507  0.00  0.00    +0.000 OA
ATOM      9  C   UNL     1       1.517   8.601  19.743  0.00  0.00    +0.000 A 
ATOM     10  C   UNL     1       0.804   9.636  20.351  0.00  0.00    +0.000 A 
ATOM     11  C   UNL     1       0.719  10.855  19.697  0.00  0.00    +0.000 A 
ATOM     12  C   UNL     1      -0.035  11.996  20.311  0.00  0.00    +0.000 C 
ATOM     13  N   UNL     1       1.305  11.068  18.494  0.00  0.00    +0.000 NA
ATOM     14  C   UNL     1       1.994  10.041  17.930  0.00  0.00    +0.000 A 
ATOM     15  C   UNL     1       2.128   8.793  18.516  0.00  0.00    +0.000 A 
ATOM     16  C   UNL     1       2.890   7.716  17.861  0.00  0.00    +0.000 C 
ATOM     17  O   UNL     1       3.407   7.960  16.777  0.00  0.00    +0.000 OA
ENDROOT
BRANCH   1  19
ATOM     18  C   UNL     1       2.107   2.677  21.631  0.00  0.00    +0.000 C 
ATOM     19  O   UNL     1       3.141   2.782  20.658  0.00  0.00    +0.000 OA
ENDBRANCH   1  19
BRANCH   3  20
ATOM     20  O   UNL     1       4.312   5.487  16.763  0.00  0.00    +0.000 OA
ATOM     21  C   UNL     1       5.128   4.444  16.241  0.00  0.00    +0.000 C 
ENDBRANCH   3  20
TORSDOF 2
ENDMDL
MODEL 5
REMARK VINA RESULT:      -6.4      2.727      5.788
REMARK  Name = 
REMARK  5 active torsions:
REMARK  status: ('A' for Active; 'I' for Inactive)
REMARK    1  A    between atoms: C_1  and  O_2
REMARK    2  A    between atoms: O_2  and  C_3
REMARK    3  A    between atoms: C_5  and  O_6
REMARK    4  A    between atoms: O_6  and  C_7
REMARK    5  A    between atoms: C_15  and  C_16
REMARK                            x       y       z     vdW  Elec       q    Type
REMARK                         _______ _______ _______ _____ _____    ______ ____
ROOT
ATOM      1  C   UNL     1       3.775   4.361  18.007  0.00  0.00    +0.000 A 
ATOM      2  C   UNL     1       3.290   3.963  19.251  0.00  0.00    +0.000 A 
ATOM      3  C   UNL     1       2.589   4.858  20.079  0.00  0.00    +0.000 A 
ATOM      4  C   UNL     1       2.374   6.183  19.644  0.00  0.00    +0.000 A 
ATOM      5  C   UNL     1       2.877   6.571  18.395  0.00  0.00    +0.000 A 
ATOM      6  C   UNL     1       3.579   5.669  17.588  0.00  0.00    +0.000 A 
ATOM      7  C   UNL     1       2.684   7.941  17.880  0.00  0.00    +0.000 C 
ATOM      8  O   UNL     1       3.121   8.264  16.781  0.00  0.00    +0.000 OA
ATOM      9  C   UNL     1       1.956   8.918  18.692  0.00  0.00    +0.000 A 
ATOM     10  C   UNL     1       1.771  10.212  18.203  0.00  0.00    +0.000 A 
ATOM     11  C   UNL     1       1.082  11.124  18.985  0.00  0.00    +0.000 A 
ATOM     12  C   UNL     1       0.858  12.526  18.501  0.00  0.00    +0.000 C 
ATOM     13  N   UNL     1       0.586  10.797  20.203  0.00  0.00    +0.000 NA
ATOM     14  C   UNL     1       0.780   9.528  20.650  0.00  0.00    +0.000 A 
ATOM     15  C   UNL     1       1.457   8.556  19.931  0.00  0.00    +0.000 A 
ATOM     16  C   UNL     1       1.635   7.194  20.463  0.00  0.00    +0.000 C 
ATOM     17  O   UNL     1       1.161   6.945  21.566  0.00  0.00    +0.000 OA
ENDROOT
BRANCH   1  19
ATOM     18  C   UNL     1       5.535   4.218  16.431  0.00  0.00    +0.000 C 
ATOM     19  O   UNL     1       4.485   3.575  17.145  0.00  0.00    +0.000 OA
ENDBRANCH   1  19
BRANCH   3  20
ATOM     20  O   UNL     1       2.102   4.499  21.308  0.00  0.00    +0.000 OA
ATOM     21  C   UNL     1       1.909   3.117  21.586  0.00  0.00    +0.000 C 
ENDBRANCH   3  20
TORSDOF 2
ENDMDL
MODEL 6
REMARK VINA RESULT:      -6.4      2.384      5.591
REMARK  Name = 
REMARK  5 active torsions:
REMARK  status: ('A' for Active; 'I' for Inactive)
REMARK    1  A    between atoms: C_1  and  O_2
REMARK    2  A    between atoms: O_2  and  C_3
REMARK    3  A    between atoms: C_5  and  O_6
REMARK    4  A    between atoms: O_6  and  C_7
REMARK    5  A    between atoms: C_15  and  C_16
REMARK                            x       y       z     vdW  Elec       q    Type
REMARK                         _______ _______ _______ _____ _____    ______ ____
ROOT
ATOM      1  C   UNL     1       4.130   3.627  18.742  0.00  0.00    +0.000 A 
ATOM      2  C   UNL     1       4.623   4.217  17.580  0.00  0.00    +0.000 A 
ATOM      3  C   UNL     1       4.288   5.539  17.236  0.00  0.00    +0.000 A 
ATOM      4  C   UNL     1       3.436   6.281  18.082  0.00  0.00    +0.000 A 
ATOM      5  C   UNL     1       2.940   5.671  19.240  0.00  0.00    +0.000 A 
ATOM      6  C   UNL     1       3.277   4.351  19.562  0.00  0.00    +0.000 A 
ATOM      7  C   UNL     1       2.047   6.392  20.168  0.00  0.00    +0.000 C 
ATOM      8  O   UNL     1       1.627   5.849  21.184  0.00  0.00    +0.000 OA
ATOM      9  C   UNL     1       1.666   7.774  19.870  0.00  0.00    +0.000 A 
ATOM     10  C   UNL     1       0.824   8.457  20.749  0.00  0.00    +0.000 A 
ATOM     11  C   UNL     1       0.473   9.763  20.450  0.00  0.00    +0.000 A 
ATOM     12  C   UNL     1      -0.429  10.537  21.366  0.00  0.00    +0.000 C 
ATOM     13  N   UNL     1       0.920  10.392  19.336  0.00  0.00    +0.000 NA
ATOM     14  C   UNL     1       1.741   9.700  18.501  0.00  0.00    +0.000 A 
ATOM     15  C   UNL     1       2.141   8.393  18.727  0.00  0.00    +0.000 A 
ATOM     16  C   UNL     1       3.035   7.693  17.789  0.00  0.00    +0.000 C 
ATOM     17  O   UNL     1       3.419   8.306  16.800  0.00  0.00    +0.000 OA
ENDROOT
BRANCH   1  19
ATOM     18  C   UNL     1       3.607   1.330  18.517  0.00  0.00    +0.000 C 
ATOM     19  O   UNL     1       4.378   2.347  19.148  0.00  0.00    +0.000 OA
ENDBRANCH   1  19
BRANCH   3  20
ATOM     20  O   UNL     1       4.753   6.146  16.100  0.00  0.00    +0.000 OA
ATOM     21  C   UNL     1       5.625   5.415  15.246  0.00  0.00    +0.000 C 
ENDBRANCH   3  20
TORSDOF 2
ENDMDL
MODEL 7
REMARK VINA RESULT:      -6.3      2.551      4.731
REMARK  Name = 
REMARK  5 active torsions:
REMARK  status: ('A' for Active; 'I' for Inactive)
REMARK    1  A    between atoms: C_1  and  O_2
REMARK    2  A    between atoms: O_2  and  C_3
REMARK    3  A    between atoms: C_5  and  O_6
REMARK    4  A    between atoms: O_6  and  C_7
REMARK    5  A    between atoms: C_15  and  C_16
REMARK                            x       y       z     vdW  Elec       q    Type
REMARK                         _______ _______ _______ _____ _____    ______ ____
ROOT
ATOM      1  C   UNL     1      -0.147   9.623  21.752  0.00  0.00    +0.000 A 
ATOM      2  C   UNL     1      -0.020  10.610  20.776  0.00  0.00    +0.000 A 
ATOM      3  C   UNL     1       0.747  10.390  19.617  0.00  0.00    +0.000 A 
ATOM      4  C   UNL     1       1.399   9.152  19.440  0.00  0.00    +0.000 A 
ATOM      5  C   UNL     1       1.270   8.175  20.436  0.00  0.00    +0.000 A 
ATOM      6  C   UNL     1       0.510   8.414  21.587  0.00  0.00    +0.000 A 
ATOM      7  C   UNL     1       1.925   6.858  20.312  0.00  0.00    +0.000 C 
ATOM      8  O   UNL     1       1.796   6.009  21.186  0.00  0.00    +0.000 OA
ATOM      9  C   UNL     1       2.731   6.566  19.125  0.00  0.00    +0.000 A 
ATOM     10  C   UNL     1       3.347   5.319  19.006  0.00  0.00    +0.000 A 
ATOM     11  C   UNL     1       4.108   5.061  17.878  0.00  0.00    +0.000 A 
ATOM     12  C   UNL     1       4.788   3.735  17.706  0.00  0.00    +0.000 C 
ATOM     13  N   UNL     1       4.269   5.978  16.893  0.00  0.00    +0.000 NA
ATOM     14  C   UNL     1       3.654   7.181  17.037  0.00  0.00    +0.000 A 
ATOM     15  C   UNL     1       2.876   7.520  18.133  0.00  0.00    +0.000 A 
ATOM     16  C   UNL     1       2.229   8.839  18.235  0.00  0.00    +0.000 C 
ATOM     17  O   UNL     1       2.399   9.631  17.315  0.00  0.00    +0.000 OA
ENDROOT
BRANCH   1  19
ATOM     18  C   UNL     1      -1.400  11.035  23.181  0.00  0.00    +0.000 C 
ATOM     19  O   UNL     1      -0.847   9.750  22.918  0.00  0.00    +0.000 OA
ENDBRANCH   1  19
BRANCH   3  20
ATOM     20  O   UNL     1       0.894  11.339  18.640  0.00  0.00    +0.000 OA
ATOM     21  C   UNL     1       1.462  12.596  18.992  0.00  0.00    +0.000 C 
ENDBRANCH   3  20
TORSDOF 2
ENDMDL
MODEL 8
REMARK VINA RESULT:      -6.3      2.392      5.896
REMARK  Name = 
REMARK  5 active torsions:
REMARK  status: ('A' for Active; 'I' for Inactive)
REMARK    1  A    between atoms: C_1  and  O_2
REMARK    2  A    between atoms: O_2  and  C_3
REMARK    3  A    between atoms: C_5  and  O_6
REMARK    4  A    between atoms: O_6  and  C_7
REMARK    5  A    between atoms: C_15  and  C_16
REMARK                            x       y       z     vdW  Elec       q    Type
REMARK                         _______ _______ _______ _____ _____    ______ ____
ROOT
ATOM      1  C   UNL     1       6.058   3.975  14.821  0.00  0.00    +0.000 A 
ATOM      2  C   UNL     1       6.269   5.327  15.089  0.00  0.00    +0.000 A 
ATOM      3  C   UNL     1       5.713   5.937  16.228  0.00  0.00    +0.000 A 
ATOM      4  C   UNL     1       4.927   5.170  17.114  0.00  0.00    +0.000 A 
ATOM      5  C   UNL     1       4.716   3.816  16.824  0.00  0.00    +0.000 A 
ATOM      6  C   UNL     1       5.270   3.227  15.682  0.00  0.00    +0.000 A 
ATOM      7  C   UNL     1       3.907   2.957  17.711  0.00  0.00    +0.000 C 
ATOM      8  O   UNL     1       3.738   1.771  17.451  0.00  0.00    +0.000 OA
ATOM      9  C   UNL     1       3.306   3.533  18.917  0.00  0.00    +0.000 A 
ATOM     10  C   UNL     1       2.544   2.719  19.756  0.00  0.00    +0.000 A 
ATOM     11  C   UNL     1       1.982   3.281  20.891  0.00  0.00    +0.000 A 
ATOM     12  C   UNL     1       1.155   2.445  21.823  0.00  0.00    +0.000 C 
ATOM     13  N   UNL     1       2.151   4.587  21.206  0.00  0.00    +0.000 NA
ATOM     14  C   UNL     1       2.902   5.352  20.370  0.00  0.00    +0.000 A 
ATOM     15  C   UNL     1       3.499   4.870  19.216  0.00  0.00    +0.000 A 
ATOM     16  C   UNL     1       4.305   5.744  18.347  0.00  0.00    +0.000 C 
ATOM     17  O   UNL     1       4.435   6.917  18.679  0.00  0.00    +0.000 OA
ENDROOT
BRANCH   1  19
ATOM     18  C   UNL     1       5.834   3.508  12.512  0.00  0.00    +0.000 C 
ATOM     19  O   UNL     1       6.534   3.300  13.734  0.00  0.00    +0.000 OA
ENDBRANCH   1  19
BRANCH   3  20
ATOM     20  O   UNL     1       5.899   7.263  16.518  0.00  0.00    +0.000 OA
ATOM     21  C   UNL     1       7.121   7.662  17.128  0.00  0.00    +0.000 C 
ENDBRANCH   3  20
TORSDOF 2
ENDMDL
MODEL 9
REMARK VINA RESULT:      -6.3      3.209      6.687
REMARK  Name = 
REMARK  5 active torsions:
REMARK  status: ('A' for Active; 'I' for Inactive)
REMARK    1  A    between atoms: C_1  and  O_2
REMARK    2  A    between atoms: O_2  and  C_3
REMARK    3  A    between atoms: C_5  and  O_6
REMARK    4  A    between atoms: O_6  and  C_7
REMARK    5  A    between atoms: C_15  and  C_16
REMARK                            x       y       z     vdW  Elec       q    Type
REMARK                         _______ _______ _______ _____ _____    ______ ____
ROOT
ATOM      1  C   UNL     1       3.712   5.872  17.813  0.00  0.00    +0.000 A 
ATOM      2  C   UNL     1       3.388   5.243  19.014  0.00  0.00    +0.000 A 
ATOM      3  C   UNL     1       2.597   5.889  19.982  0.00  0.00    +0.000 A 
ATOM      4  C   UNL     1       2.124   7.195  19.734  0.00  0.00    +0.000 A 
ATOM      5  C   UNL     1       2.468   7.817  18.527  0.00  0.00    +0.000 A 
ATOM      6  C   UNL     1       3.263   7.163  17.579  0.00  0.00    +0.000 A 
ATOM      7  C   UNL     1       2.004   9.181  18.205  0.00  0.00    +0.000 C 
ATOM      8  O   UNL     1       2.304   9.709  17.140  0.00  0.00    +0.000 OA
ATOM      9  C   UNL     1       1.171   9.903  19.169  0.00  0.00    +0.000 A 
ATOM     10  C   UNL     1       0.731  11.191  18.862  0.00  0.00    +0.000 A 
ATOM     11  C   UNL     1      -0.054  11.860  19.786  0.00  0.00    +0.000 A 
ATOM     12  C   UNL     1      -0.552  13.246  19.500  0.00  0.00    +0.000 C 
ATOM     13  N   UNL     1      -0.404  11.303  20.971  0.00  0.00    +0.000 NA
ATOM     14  C   UNL     1       0.039  10.046  21.239  0.00  0.00    +0.000 A 
ATOM     15  C   UNL     1       0.826   9.308  20.370  0.00  0.00    +0.000 A 
ATOM     16  C   UNL     1       1.275   7.947  20.710  0.00  0.00    +0.000 C 
ATOM     17  O   UNL     1       0.926   7.484  21.790  0.00  0.00    +0.000 OA
ENDROOT
BRANCH   1  19
ATOM     18  C   UNL     1       5.435   6.220  16.229  0.00  0.00    +0.000 C 
ATOM     19  O   UNL     1       4.490   5.339  16.826  0.00  0.00    +0.000 OA
ENDBRANCH   1  19
BRANCH   3  20
ATOM     20  O   UNL     1       2.263   5.301  21.173  0.00  0.00    +0.000 OA
ATOM     21  C   UNL     1       2.063   3.892  21.204  0.00  0.00    +0.000 C 
ENDBRANCH   3  20
TORSDOF 2
ENDMDL
