MODEL 1
REMARK VINA RESULT:      -6.3      0.000      0.000
REMARK  Name = 
REMARK  5 active torsions:
REMARK  status: ('A' for Active; 'I' for Inactive)
REMARK    1  A    between atoms: N_7  and  C_8
REMARK    2  A    between atoms: C_8  and  C_9
REMARK    3  A    between atoms: C_9  and  C_10
REMARK    4  A    between atoms: C_10  and  C_11
REMARK    5  A    between atoms: C_11  and  N_12
REMARK                            x       y       z     vdW  Elec       q    Type
REMARK                         _______ _______ _______ _____ _____    ______ ____
ROOT
ATOM      1  C   UNL     1       2.439   2.276  17.429  0.00  0.00    +0.000 C 
ENDROOT
BRANCH   1   2
ATOM      2  C   UNL     1       1.408   2.772  18.448  0.00  0.00    +0.000 C 
BRANCH   2   9
ATOM      3 BR   UNL     1       1.846   3.128  21.616  0.00  0.00    +0.000 Br
ATOM      4  C   UNL     1       1.989   4.417  20.223  0.00  0.00    +0.000 A 
ATOM      5  C   UNL     1       2.374   5.708  20.602  0.00  0.00    +0.000 A 
ATOM      6  C   UNL     1       2.495   6.706  19.646  0.00  0.00    +0.000 A 
ATOM      7  C   UNL     1       2.224   6.410  18.322  0.00  0.00    +0.000 A 
ATOM      8  C   UNL     1       1.845   5.122  17.978  0.00  0.00    +0.000 A 
ATOM      9  N   UNL     1       1.735   4.144  18.911  0.00  0.00    +0.000 N 
ENDBRANCH   2   9
ENDBRANCH   1   2
BRANCH   1  10
ATOM     10  C   UNL     1       3.900   2.596  17.815  0.00  0.00    +0.000 C 
BRANCH  10  11
ATOM     11  C   UNL     1       4.634   3.422  16.758  0.00  0.00    +0.000 C 
BRANCH  11  12
ATOM     12  N   UNL     1       5.658   4.314  17.360  0.00  0.00    +0.000 N 
ATOM     13  C   UNL     1       5.614   4.520  18.701  0.00  0.00    +0.000 A 
ATOM     14  C   UNL     1       6.424   5.467  19.311  0.00  0.00    +0.000 A 
ATOM     15  C   UNL     1       7.303   6.209  18.539  0.00  0.00    +0.000 A 
ATOM     16  C   UNL     1       7.375   5.969  17.175  0.00  0.00    +0.000 A 
ATOM     17  C   UNL     1       6.545   5.009  16.590  0.00  0.00    +0.000 A 
ATOM     18 BR   UNL     1       6.719   4.749  14.711  0.00  0.00    +0.000 Br
ENDBRANCH  11  12
ENDBRANCH  10  11
ENDBRANCH   1  10
TORSDOF 5
ENDMDL
MODEL 2
REMARK VINA RESULT:      -6.3      0.255      5.132
REMARK  Name = 
REMARK  5 active torsions:
REMARK  status: ('A' for Active; 'I' for Inactive)
REMARK    1  A    between atoms: N_7  and  C_8
REMARK    2  A    between atoms: C_8  and  C_9
REMARK    3  A    between atoms: C_9  and  C_10
REMARK    4  A    between atoms: C_10  and  C_11
REMARK    5  A    between atoms: C_11  and  N_12
REMARK                            x       y       z     vdW  Elec       q    Type
REMARK                         _______ _______ _______ _____ _____    ______ ____
ROOT
ATOM      1  C   UNL     1       3.924   2.704  18.211  0.00  0.00    +0.000 C 
ENDROOT
BRANCH   1   2
ATOM      2  C   UNL     1       4.593   3.361  16.999  0.00  0.00    +0.000 C 
BRANCH   2   9
ATOM      3 BR   UNL     1       6.279   4.758  14.642  0.00  0.00    +0.000 Br
ATOM      4  C   UNL     1       6.365   5.041  16.522  0.00  0.00    +0.000 A 
ATOM      5  C   UNL     1       7.260   6.021  16.967  0.00  0.00    +0.000 A 
ATOM      6  C   UNL     1       7.385   6.282  18.324  0.00  0.00    +0.000 A 
ATOM      7  C   UNL     1       6.623   5.561  19.225  0.00  0.00    +0.000 A 
ATOM      8  C   UNL     1       5.745   4.597  18.753  0.00  0.00    +0.000 A 
ATOM      9  N   UNL     1       5.616   4.347  17.426  0.00  0.00    +0.000 N 
ENDBRANCH   2   9
ENDBRANCH   1   2
BRANCH   1  10
ATOM     10  C   UNL     1       2.613   1.961  17.872  0.00  0.00    +0.000 C 
BRANCH  10  11
ATOM     11  C   UNL     1       1.362   2.702  18.345  0.00  0.00    +0.000 C 
BRANCH  11  12
ATOM     12  N   UNL     1       1.677   4.066  18.840  0.00  0.00    +0.000 N 
ATOM     13  C   UNL     1       1.825   5.058  17.924  0.00  0.00    +0.000 A 
ATOM     14  C   UNL     1       2.285   6.314  18.292  0.00  0.00    +0.000 A 
ATOM     15  C   UNL     1       2.589   6.567  19.619  0.00  0.00    +0.000 A 
ATOM     16  C   UNL     1       2.400   5.564  20.560  0.00  0.00    +0.000 A 
ATOM     17  C   UNL     1       1.935   4.309  20.158  0.00  0.00    +0.000 A 
ATOM     18 BR   UNL     1       1.704   2.999  21.522  0.00  0.00    +0.000 Br
ENDBRANCH  11  12
ENDBRANCH  10  11
ENDBRANCH   1  10
TORSDOF 5
ENDMDL
MODEL 3
REMARK VINA RESULT:      -6.2      2.164      3.638
REMARK  Name = 
REMARK  5 active torsions:
REMARK  status: ('A' for Active; 'I' for Inactive)
REMARK    1  A    between atoms: N_7  and  C_8
REMARK    2  A    between atoms: C_8  and  C_9
REMARK    3  A    between atoms: C_9  and  C_10
REMARK    4  A    between atoms: C_10  and  C_11
REMARK    5  A    between atoms: C_11  and  N_12
REMARK                            x       y       z     vdW  Elec       q    Type
REMARK                         _______ _______ _______ _____ _____    ______ ____
ROOT
ATOM      1  C   UNL     1       2.872   6.383  18.100  0.00  0.00    +0.000 C 
ENDROOT
BRANCH   1   2
ATOM      2  C   UNL     1       3.612   5.743  19.279  0.00  0.00    +0.000 C 
BRANCH   2   9
ATOM      3 BR   UNL     1       3.797   3.096  17.459  0.00  0.00    +0.000 Br
ATOM      4  C   UNL     1       2.919   3.358  19.127  0.00  0.00    +0.000 A 
ATOM      5  C   UNL     1       2.284   2.241  19.683  0.00  0.00    +0.000 A 
ATOM      6  C   UNL     1       1.616   2.352  20.894  0.00  0.00    +0.000 A 
ATOM      7  C   UNL     1       1.583   3.576  21.538  0.00  0.00    +0.000 A 
ATOM      8  C   UNL     1       2.222   4.663  20.964  0.00  0.00    +0.000 A 
ATOM      9  N   UNL     1       2.882   4.554  19.783  0.00  0.00    +0.000 N 
ENDBRANCH   2   9
ENDBRANCH   1   2
BRANCH   1  10
ATOM     10  C   UNL     1       3.696   7.457  17.356  0.00  0.00    +0.000 C 
BRANCH  10  11
ATOM     11  C   UNL     1       5.200   7.340  17.608  0.00  0.00    +0.000 C 
BRANCH  11  12
ATOM     12  N   UNL     1       5.829   6.306  16.748  0.00  0.00    +0.000 N 
ATOM     13  C   UNL     1       5.291   6.081  15.523  0.00  0.00    +0.000 A 
ATOM     14  C   UNL     1       5.713   5.020  14.734  0.00  0.00    +0.000 A 
ATOM     15  C   UNL     1       6.710   4.179  15.200  0.00  0.00    +0.000 A 
ATOM     16  C   UNL     1       7.286   4.434  16.436  0.00  0.00    +0.000 A 
ATOM     17  C   UNL     1       6.840   5.510  17.207  0.00  0.00    +0.000 A 
ATOM     18 BR   UNL     1       7.695   5.780  18.888  0.00  0.00    +0.000 Br
ENDBRANCH  11  12
ENDBRANCH  10  11
ENDBRANCH   1  10
TORSDOF 5
ENDMDL
MODEL 4
REMARK VINA RESULT:      -6.2      2.140      5.314
REMARK  Name = 
REMARK  5 active torsions:
REMARK  status: ('A' for Active; 'I' for Inactive)
REMARK    1  A    between atoms: N_7  and  C_8
REMARK    2  A    between atoms: C_8  and  C_9
REMARK    3  A    between atoms: C_9  and  C_10
REMARK    4  A    between atoms: C_10  and  C_11
REMARK    5  A    between atoms: C_11  and  N_12
REMARK                            x       y       z     vdW  Elec       q    Type
REMARK                         _______ _______ _______ _____ _____    ______ ____
ROOT
ATOM      1  C   UNL     1       3.786   6.156  18.535  0.00  0.00    +0.000 C 
ENDROOT
BRANCH   1   2
ATOM      2  C   UNL     1       4.760   6.936  17.645  0.00  0.00    +0.000 C 
BRANCH   2   9
ATOM      3 BR   UNL     1       7.503   5.798  18.885  0.00  0.00    +0.000 Br
ATOM      4  C   UNL     1       6.693   5.433  17.201  0.00  0.00    +0.000 A 
ATOM      5  C   UNL     1       7.349   4.510  16.378  0.00  0.00    +0.000 A 
ATOM      6  C   UNL     1       6.825   4.195  15.133  0.00  0.00    +0.000 A 
ATOM      7  C   UNL     1       5.656   4.807  14.716  0.00  0.00    +0.000 A 
ATOM      8  C   UNL     1       5.029   5.716  15.554  0.00  0.00    +0.000 A 
ATOM      9  N   UNL     1       5.536   6.018  16.775  0.00  0.00    +0.000 N 
ENDBRANCH   2   9
ENDBRANCH   1   2
BRANCH   1  10
ATOM     10  C   UNL     1       2.337   6.131  17.999  0.00  0.00    +0.000 C 
BRANCH  10  11
ATOM     11  C   UNL     1       1.786   4.715  17.825  0.00  0.00    +0.000 C 
BRANCH  11  12
ATOM     12  N   UNL     1       1.974   3.891  19.046  0.00  0.00    +0.000 N 
ATOM     13  C   UNL     1       1.181   4.148  20.117  0.00  0.00    +0.000 A 
ATOM     14  C   UNL     1       1.409   3.541  21.344  0.00  0.00    +0.000 A 
ATOM     15  C   UNL     1       2.458   2.647  21.477  0.00  0.00    +0.000 A 
ATOM     16  C   UNL     1       3.243   2.355  20.370  0.00  0.00    +0.000 A 
ATOM     17  C   UNL     1       2.988   2.983  19.149  0.00  0.00    +0.000 A 
ATOM     18 BR   UNL     1       4.118   2.515  17.687  0.00  0.00    +0.000 Br
ENDBRANCH  11  12
ENDBRANCH  10  11
ENDBRANCH   1  10
TORSDOF 5
ENDMDL
MODEL 5
REMARK VINA RESULT:      -6.1      2.181      5.526
REMARK  Name = 
REMARK  5 active torsions:
REMARK  status: ('A' for Active; 'I' for Inactive)
REMARK    1  A    between atoms: N_7  and  C_8
REMARK    2  A    between atoms: C_8  and  C_9
REMARK    3  A    between atoms: C_9  and  C_10
REMARK    4  A    between atoms: C_10  and  C_11
REMARK    5  A    between atoms: C_11  and  N_12
REMARK                            x       y       z     vdW  Elec       q    Type
REMARK                         _______ _______ _______ _____ _____    ______ ____
ROOT
ATOM      1  C   UNL     1       3.494   6.884  17.504  0.00  0.00    +0.000 C 
ENDROOT
BRANCH   1   2
ATOM      2  C   UNL     1       4.962   7.269  17.295  0.00  0.00    +0.000 C 
BRANCH   2   9
ATOM      3 BR   UNL     1       7.480   5.894  18.752  0.00  0.00    +0.000 Br
ATOM      4  C   UNL     1       6.734   5.541  17.038  0.00  0.00    +0.000 A 
ATOM      5  C   UNL     1       7.327   4.512  16.297  0.00  0.00    +0.000 A 
ATOM      6  C   UNL     1       6.845   4.197  15.034  0.00  0.00    +0.000 A 
ATOM      7  C   UNL     1       5.781   4.914  14.519  0.00  0.00    +0.000 A 
ATOM      8  C   UNL     1       5.213   5.927  15.277  0.00  0.00    +0.000 A 
ATOM      9  N   UNL     1       5.679   6.230  16.515  0.00  0.00    +0.000 N 
ENDBRANCH   2   9
ENDBRANCH   1   2
BRANCH   1  10
ATOM     10  C   UNL     1       3.108   6.687  18.986  0.00  0.00    +0.000 C 
BRANCH  10  11
ATOM     11  C   UNL     1       3.736   5.440  19.610  0.00  0.00    +0.000 C 
BRANCH  11  12
ATOM     12  N   UNL     1       2.757   4.331  19.745  0.00  0.00    +0.000 N 
ATOM     13  C   UNL     1       1.914   4.352  20.809  0.00  0.00    +0.000 A 
ATOM     14  C   UNL     1       1.092   3.271  21.097  0.00  0.00    +0.000 A 
ATOM     15  C   UNL     1       1.124   2.154  20.279  0.00  0.00    +0.000 A 
ATOM     16  C   UNL     1       1.958   2.151  19.169  0.00  0.00    +0.000 A 
ATOM     17  C   UNL     1       2.773   3.254  18.906  0.00  0.00    +0.000 A 
ATOM     18 BR   UNL     1       3.881   3.157  17.359  0.00  0.00    +0.000 Br
ENDBRANCH  11  12
ENDBRANCH  10  11
ENDBRANCH   1  10
TORSDOF 5
ENDMDL
MODEL 6
REMARK VINA RESULT:      -6.0      1.729      5.385
REMARK  Name = 
REMARK  5 active torsions:
REMARK  status: ('A' for Active; 'I' for Inactive)
REMARK    1  A    between atoms: N_7  and  C_8
REMARK    2  A    between atoms: C_8  and  C_9
REMARK    3  A    between atoms: C_9  and  C_10
REMARK    4  A    between atoms: C_10  and  C_11
REMARK    5  A    between atoms: C_11  and  N_12
REMARK                            x       y       z     vdW  Elec       q    Type
REMARK                         _______ _______ _______ _____ _____    ______ ____
ROOT
ATOM      1  C   UNL     1       4.308   3.602  17.531  0.00  0.00    +0.000 C 
ENDROOT
BRANCH   1   2
ATOM      2  C   UNL     1       5.511   3.885  16.624  0.00  0.00    +0.000 C 
BRANCH   2   9
ATOM      3 BR   UNL     1       5.004   6.835  15.442  0.00  0.00    +0.000 Br
ATOM      4  C   UNL     1       6.209   6.267  16.802  0.00  0.00    +0.000 A 
ATOM      5  C   UNL     1       6.973   7.265  17.419  0.00  0.00    +0.000 A 
ATOM      6  C   UNL     1       7.879   6.931  18.414  0.00  0.00    +0.000 A 
ATOM      7  C   UNL     1       8.021   5.605  18.783  0.00  0.00    +0.000 A 
ATOM      8  C   UNL     1       7.250   4.639  18.154  0.00  0.00    +0.000 A 
ATOM      9  N   UNL     1       6.358   4.966  17.186  0.00  0.00    +0.000 N 
ENDBRANCH   2   9
ENDBRANCH   1   2
BRANCH   1  10
ATOM     10  C   UNL     1       2.967   3.500  16.772  0.00  0.00    +0.000 C 
BRANCH  10  11
ATOM     11  C   UNL     1       1.784   4.056  17.566  0.00  0.00    +0.000 C 
BRANCH  11  12
ATOM     12  N   UNL     1       1.939   3.832  19.026  0.00  0.00    +0.000 N 
ATOM     13  C   UNL     1       1.660   2.597  19.514  0.00  0.00    +0.000 A 
ATOM     14  C   UNL     1       1.615   2.356  20.880  0.00  0.00    +0.000 A 
ATOM     15  C   UNL     1       1.870   3.391  21.763  0.00  0.00    +0.000 A 
ATOM     16  C   UNL     1       2.194   4.644  21.262  0.00  0.00    +0.000 A 
ATOM     17  C   UNL     1       2.231   4.855  19.881  0.00  0.00    +0.000 A 
ATOM     18 BR   UNL     1       2.688   6.608  19.289  0.00  0.00    +0.000 Br
ENDBRANCH  11  12
ENDBRANCH  10  11
ENDBRANCH   1  10
TORSDOF 5
ENDMDL
MODEL 7
REMARK VINA RESULT:      -6.0      1.762      2.278
REMARK  Name = 
REMARK  5 active torsions:
REMARK  status: ('A' for Active; 'I' for Inactive)
REMARK    1  A    between atoms: N_7  and  C_8
REMARK    2  A    between atoms: C_8  and  C_9
REMARK    3  A    between atoms: C_9  and  C_10
REMARK    4  A    between atoms: C_10  and  C_11
REMARK    5  A    between atoms: C_11  and  N_12
REMARK                            x       y       z     vdW  Elec       q    Type
REMARK                         _______ _______ _______ _____ _____    ______ ____
ROOT
ATOM      1  C   UNL     1       3.071   2.987  16.805  0.00  0.00    +0.000 C 
ENDROOT
BRANCH   1   2
ATOM      2  C   UNL     1       1.942   3.820  17.419  0.00  0.00    +0.000 C 
BRANCH   2   9
ATOM      3 BR   UNL     1       2.811   6.533  18.915  0.00  0.00    +0.000 Br
ATOM      4  C   UNL     1       2.293   4.857  19.654  0.00  0.00    +0.000 A 
ATOM      5  C   UNL     1       2.240   4.777  21.051  0.00  0.00    +0.000 A 
ATOM      6  C   UNL     1       1.877   3.588  21.666  0.00  0.00    +0.000 A 
ATOM      7  C   UNL     1       1.577   2.487  20.885  0.00  0.00    +0.000 A 
ATOM      8  C   UNL     1       1.637   2.597  19.504  0.00  0.00    +0.000 A 
ATOM      9  N   UNL     1       1.984   3.762  18.901  0.00  0.00    +0.000 N 
ENDBRANCH   2   9
ENDBRANCH   1   2
BRANCH   1  10
ATOM     10  C   UNL     1       4.467   3.306  17.385  0.00  0.00    +0.000 C 
BRANCH  10  11
ATOM     11  C   UNL     1       5.418   3.920  16.357  0.00  0.00    +0.000 C 
BRANCH  11  12
ATOM     12  N   UNL     1       6.311   4.940  16.964  0.00  0.00    +0.000 N 
ATOM     13  C   UNL     1       7.251   4.518  17.849  0.00  0.00    +0.000 A 
ATOM     14  C   UNL     1       8.005   5.422  18.584  0.00  0.00    +0.000 A 
ATOM     15  C   UNL     1       7.804   6.781  18.405  0.00  0.00    +0.000 A 
ATOM     16  C   UNL     1       6.871   7.210  17.471  0.00  0.00    +0.000 A 
ATOM     17  C   UNL     1       6.128   6.275  16.747  0.00  0.00    +0.000 A 
ATOM     18 BR   UNL     1       4.874   6.960  15.487  0.00  0.00    +0.000 Br
ENDBRANCH  11  12
ENDBRANCH  10  11
ENDBRANCH   1  10
TORSDOF 5
ENDMDL
MODEL 8
REMARK VINA RESULT:      -6.0      1.821      3.550
REMARK  Name = 
REMARK  5 active torsions:
REMARK  status: ('A' for Active; 'I' for Inactive)
REMARK    1  A    between atoms: N_7  and  C_8
REMARK    2  A    between atoms: C_8  and  C_9
REMARK    3  A    between atoms: C_9  and  C_10
REMARK    4  A    between atoms: C_10  and  C_11
REMARK    5  A    between atoms: C_11  and  N_12
REMARK                            x       y       z     vdW  Elec       q    Type
REMARK                         _______ _______ _______ _____ _____    ______ ____
ROOT
ATOM      1  C   UNL     1       2.709   6.463  18.389  0.00  0.00    +0.000 C 
ENDROOT
BRANCH   1   2
ATOM      2  C   UNL     1       3.533   5.580  19.332  0.00  0.00    +0.000 C 
BRANCH   2   9
ATOM      3 BR   UNL     1       1.054   4.094  20.748  0.00  0.00    +0.000 Br
ATOM      4  C   UNL     1       2.321   3.413  19.502  0.00  0.00    +0.000 A 
ATOM      5  C   UNL     1       2.150   2.083  19.098  0.00  0.00    +0.000 A 
ATOM      6  C   UNL     1       3.036   1.511  18.197  0.00  0.00    +0.000 A 
ATOM      7  C   UNL     1       4.088   2.266  17.711  0.00  0.00    +0.000 A 
ATOM      8  C   UNL     1       4.230   3.581  18.128  0.00  0.00    +0.000 A 
ATOM      9  N   UNL     1       3.360   4.144  19.003  0.00  0.00    +0.000 N 
ENDBRANCH   2   9
ENDBRANCH   1   2
BRANCH   1  10
ATOM     10  C   UNL     1       3.566   7.333  17.444  0.00  0.00    +0.000 C 
BRANCH  10  11
ATOM     11  C   UNL     1       5.063   7.250  17.744  0.00  0.00    +0.000 C 
BRANCH  11  12
ATOM     12  N   UNL     1       5.764   6.313  16.829  0.00  0.00    +0.000 N 
ATOM     13  C   UNL     1       5.224   6.098  15.602  0.00  0.00    +0.000 A 
ATOM     14  C   UNL     1       5.721   5.114  14.759  0.00  0.00    +0.000 A 
ATOM     15  C   UNL     1       6.795   4.343  15.171  0.00  0.00    +0.000 A 
ATOM     16  C   UNL     1       7.370   4.590  16.410  0.00  0.00    +0.000 A 
ATOM     17  C   UNL     1       6.847   5.589  17.236  0.00  0.00    +0.000 A 
ATOM     18 BR   UNL     1       7.706   5.856  18.915  0.00  0.00    +0.000 Br
ENDBRANCH  11  12
ENDBRANCH  10  11
ENDBRANCH   1  10
TORSDOF 5
ENDMDL
MODEL 9
REMARK VINA RESULT:      -5.9      1.811      5.531
REMARK  Name = 
REMARK  5 active torsions:
REMARK  status: ('A' for Active; 'I' for Inactive)
REMARK    1  A    between atoms: N_7  and  C_8
REMARK    2  A    between atoms: C_8  and  C_9
REMARK    3  A    between atoms: C_9  and  C_10
REMARK    4  A    between atoms: C_10  and  C_11
REMARK    5  A    between atoms: C_11  and  N_12
REMARK                            x       y       z     vdW  Elec       q    Type
REMARK                         _______ _______ _______ _____ _____    ______ ____
ROOT
ATOM      1  C   UNL     1       3.630   7.314  17.425  0.00  0.00    +0.000 C 
ENDROOT
BRANCH   1   2
ATOM      2  C   UNL     1       5.150   7.310  17.615  0.00  0.00    +0.000 C 
BRANCH   2   9
ATOM      3 BR   UNL     1       7.726   5.835  18.858  0.00  0.00    +0.000 Br
ATOM      4  C   UNL     1       6.861   5.554  17.186  0.00  0.00    +0.000 A 
ATOM      5  C   UNL     1       7.381   4.538  16.375  0.00  0.00    +0.000 A 
ATOM      6  C   UNL     1       6.810   4.276  15.139  0.00  0.00    +0.000 A 
ATOM      7  C   UNL     1       5.731   5.031  14.718  0.00  0.00    +0.000 A 
ATOM      8  C   UNL     1       5.238   6.030  15.544  0.00  0.00    +0.000 A 
ATOM      9  N   UNL     1       5.790   6.282  16.757  0.00  0.00    +0.000 N 
ENDBRANCH   2   9
ENDBRANCH   1   2
BRANCH   1  10
ATOM     10  C   UNL     1       2.854   6.683  18.602  0.00  0.00    +0.000 C 
BRANCH  10  11
ATOM     11  C   UNL     1       3.678   5.659  19.384  0.00  0.00    +0.000 C 
BRANCH  11  12
ATOM     12  N   UNL     1       3.358   4.265  18.985  0.00  0.00    +0.000 N 
ATOM     13  C   UNL     1       4.200   3.641  18.121  0.00  0.00    +0.000 A 
ATOM     14  C   UNL     1       3.881   2.408  17.570  0.00  0.00    +0.000 A 
ATOM     15  C   UNL     1       2.688   1.795  17.915  0.00  0.00    +0.000 A 
ATOM     16  C   UNL     1       1.848   2.416  18.828  0.00  0.00    +0.000 A 
ATOM     17  C   UNL     1       2.196   3.658  19.366  0.00  0.00    +0.000 A 
ATOM     18 BR   UNL     1       0.980   4.429  20.613  0.00  0.00    +0.000 Br
ENDBRANCH  11  12
ENDBRANCH  10  11
ENDBRANCH   1  10
TORSDOF 5
ENDMDL
