MODEL 1
REMARK VINA RESULT:      -8.9      0.000      0.000
REMARK  Name = 
REMARK  6 active torsions:
REMARK  status: ('A' for Active; 'I' for Inactive)
REMARK    1  A    between atoms: C_1  and  C_2
REMARK    2  A    between atoms: N_6  and  C_7
REMARK    3  A    between atoms: C_7  and  C_8
REMARK    4  A    between atoms: C_8  and  C_9
REMARK    5  A    between atoms: C_13  and  C_14
REMARK    6  A    between atoms: C_14  and  N_15
REMARK                            x       y       z     vdW  Elec       q    Type
REMARK                         _______ _______ _______ _____ _____    ______ ____
ROOT
ATOM      1  C   UNL     1       4.297   4.568  17.383  0.00  0.00    +0.000 A 
ATOM      2  C   UNL     1       4.423   5.864  16.939  0.00  0.00    +0.000 A 
ATOM      3  C   UNL     1       5.647   6.349  17.462  0.00  0.00    +0.000 A 
ATOM      4  C   UNL     1       6.358   7.554  17.377  0.00  0.00    +0.000 A 
ATOM      5  C   UNL     1       7.611   7.660  18.013  0.00  0.00    +0.000 A 
ATOM      6  C   UNL     1       8.112   6.582  18.764  0.00  0.00    +0.000 A 
ATOM      7  C   UNL     1       7.406   5.376  18.873  0.00  0.00    +0.000 A 
ATOM      8  C   UNL     1       6.190   5.305  18.199  0.00  0.00    +0.000 A 
ATOM      9  O   UNL     1       5.364   4.222  18.157  0.00  0.00    +0.000 OA
ENDROOT
BRANCH   1  10
ATOM     10  C   UNL     1       3.249   3.535  17.187  0.00  0.00    +0.000 C 
BRANCH  10  11
ATOM     11  C   UNL     1       1.909   4.005  17.776  0.00  0.00    +0.000 C 
BRANCH  11  17
ATOM     12  C   UNL     1       1.775   5.417  20.300  0.00  0.00    +0.000 C 
ATOM     13  C   UNL     1       1.102   4.049  20.134  0.00  0.00    +0.000 C 
ATOM     14  C   UNL     1       1.431   3.137  21.314  0.00  0.00    +0.000 C 
ATOM     15  C   UNL     1       2.700   2.445  20.871  0.00  0.00    +0.000 C 
ATOM     16  C   UNL     1       2.486   2.238  19.384  0.00  0.00    +0.000 C 
ATOM     17  N   UNL     1       1.507   3.248  18.964  0.00  0.00    +0.000 NA
ENDBRANCH  11  17
ENDBRANCH  10  11
ENDBRANCH   1  10
BRANCH   5  18
ATOM     18  C   UNL     1       8.413   8.931  17.851  0.00  0.00    +0.000 C 
BRANCH  18  19
ATOM     19  N   UNL     1       8.910   9.371  19.148  0.00  0.00    +0.000 N 
ATOM     20  C   UNL     1       9.576  10.608  19.073  0.00  0.00    +0.000 A 
ATOM     21  C   UNL     1      10.130  11.149  20.231  0.00  0.00    +0.000 A 
ATOM     22  C   UNL     1      10.762  12.389  20.177  0.00  0.00    +0.000 A 
ATOM     23  C   UNL     1      10.810  13.040  18.963  0.00  0.00    +0.000 A 
ATOM     24 CL   UNL     1      11.573  14.559  18.783  0.00  0.00    +0.000 Cl
ATOM     25  N   UNL     1      10.268  12.525  17.849  0.00  0.00    +0.000 NA
ATOM     26  N   UNL     1       9.640  11.307  17.914  0.00  0.00    +0.000 NA
ATOM     27  H   UNL     1       9.512   8.677  19.581  0.00  0.00    +0.000 HD
ENDBRANCH  18  19
ENDBRANCH   5  18
TORSDOF 5
ENDMDL
MODEL 2
REMARK VINA RESULT:      -8.3      3.555      9.679
REMARK  Name = 
REMARK  6 active torsions:
REMARK  status: ('A' for Active; 'I' for Inactive)
REMARK    1  A    between atoms: C_1  and  C_2
REMARK    2  A    between atoms: N_6  and  C_7
REMARK    3  A    between atoms: C_7  and  C_8
REMARK    4  A    between atoms: C_8  and  C_9
REMARK    5  A    between atoms: C_13  and  C_14
REMARK    6  A    between atoms: C_14  and  N_15
REMARK                            x       y       z     vdW  Elec       q    Type
REMARK                         _______ _______ _______ _____ _____    ______ ____
ROOT
ATOM      1  C   UNL     1       8.083   9.049  17.987  0.00  0.00    +0.000 A 
ATOM      2  C   UNL     1       7.073   8.637  17.147  0.00  0.00    +0.000 A 
ATOM      3  C   UNL     1       6.915   7.246  17.362  0.00  0.00    +0.000 A 
ATOM      4  C   UNL     1       6.070   6.250  16.853  0.00  0.00    +0.000 A 
ATOM      5  C   UNL     1       6.174   4.938  17.356  0.00  0.00    +0.000 A 
ATOM      6  C   UNL     1       7.149   4.629  18.321  0.00  0.00    +0.000 A 
ATOM      7  C   UNL     1       8.012   5.609  18.828  0.00  0.00    +0.000 A 
ATOM      8  C   UNL     1       7.850   6.899  18.328  0.00  0.00    +0.000 A 
ATOM      9  O   UNL     1       8.566   7.995  18.703  0.00  0.00    +0.000 OA
ENDROOT
BRANCH   1  10
ATOM     10  C   UNL     1       8.714  10.369  18.228  0.00  0.00    +0.000 C 
BRANCH  10  11
ATOM     11  C   UNL     1       9.615  10.319  19.474  0.00  0.00    +0.000 C 
BRANCH  11  17
ATOM     12  C   UNL     1       9.756  12.595  21.258  0.00  0.00    +0.000 C 
ATOM     13  C   UNL     1      11.003  12.111  20.509  0.00  0.00    +0.000 C 
ATOM     14  C   UNL     1      11.744  13.286  19.874  0.00  0.00    +0.000 C 
ATOM     15  C   UNL     1      11.102  13.400  18.509  0.00  0.00    +0.000 C 
ATOM     16  C   UNL     1      10.849  11.957  18.120  0.00  0.00    +0.000 C 
ATOM     17  N   UNL     1      10.783  11.196  19.373  0.00  0.00    +0.000 NA
ENDBRANCH  11  17
ENDBRANCH  10  11
ENDBRANCH   1  10
BRANCH   5  18
ATOM     18  C   UNL     1       5.208   3.884  16.866  0.00  0.00    +0.000 C 
BRANCH  18  19
ATOM     19  N   UNL     1       3.842   4.378  16.969  0.00  0.00    +0.000 N 
ATOM     20  C   UNL     1       3.192   3.918  18.129  0.00  0.00    +0.000 A 
ATOM     21  C   UNL     1       1.868   4.287  18.355  0.00  0.00    +0.000 A 
ATOM     22  C   UNL     1       1.225   3.866  19.516  0.00  0.00    +0.000 A 
ATOM     23  C   UNL     1       1.937   3.094  20.408  0.00  0.00    +0.000 A 
ATOM     24 CL   UNL     1       1.241   2.513  21.857  0.00  0.00    +0.000 Cl
ATOM     25  N   UNL     1       3.216   2.746  20.197  0.00  0.00    +0.000 NA
ATOM     26  N   UNL     1       3.843   3.173  19.054  0.00  0.00    +0.000 NA
ATOM     27  H   UNL     1       3.290   4.149  16.147  0.00  0.00    +0.000 HD
ENDBRANCH  18  19
ENDBRANCH   5  18
TORSDOF 5
ENDMDL
MODEL 3
REMARK VINA RESULT:      -8.3      3.582      9.728
REMARK  Name = 
REMARK  6 active torsions:
REMARK  status: ('A' for Active; 'I' for Inactive)
REMARK    1  A    between atoms: C_1  and  C_2
REMARK    2  A    between atoms: N_6  and  C_7
REMARK    3  A    between atoms: C_7  and  C_8
REMARK    4  A    between atoms: C_8  and  C_9
REMARK    5  A    between atoms: C_13  and  C_14
REMARK    6  A    between atoms: C_14  and  N_15
REMARK                            x       y       z     vdW  Elec       q    Type
REMARK                         _______ _______ _______ _____ _____    ______ ____
ROOT
ATOM      1  C   UNL     1       8.582   9.193  18.385  0.00  0.00    +0.000 A 
ATOM      2  C   UNL     1       7.618   8.931  17.438  0.00  0.00    +0.000 A 
ATOM      3  C   UNL     1       7.285   7.561  17.573  0.00  0.00    +0.000 A 
ATOM      4  C   UNL     1       6.386   6.689  16.942  0.00  0.00    +0.000 A 
ATOM      5  C   UNL     1       6.293   5.357  17.391  0.00  0.00    +0.000 A 
ATOM      6  C   UNL     1       7.128   4.903  18.427  0.00  0.00    +0.000 A 
ATOM      7  C   UNL     1       8.043   5.757  19.056  0.00  0.00    +0.000 A 
ATOM      8  C   UNL     1       8.077   7.073  18.604  0.00  0.00    +0.000 A 
ATOM      9  O   UNL     1       8.872   8.065  19.094  0.00  0.00    +0.000 OA
ENDROOT
BRANCH   1  10
ATOM     10  C   UNL     1       9.332  10.421  18.745  0.00  0.00    +0.000 C 
BRANCH  10  11
ATOM     11  C   UNL     1       8.871  11.609  17.884  0.00  0.00    +0.000 C 
BRANCH  11  17
ATOM     12  C   UNL     1      11.223  13.072  17.042  0.00  0.00    +0.000 C 
ATOM     13  C   UNL     1      10.104  13.774  17.821  0.00  0.00    +0.000 C 
ATOM     14  C   UNL     1      10.682  14.622  18.952  0.00  0.00    +0.000 C 
ATOM     15  C   UNL     1      10.735  13.655  20.114  0.00  0.00    +0.000 C 
ATOM     16  C   UNL     1       9.482  12.820  19.933  0.00  0.00    +0.000 C 
ATOM     17  N   UNL     1       9.130  12.907  18.511  0.00  0.00    +0.000 NA
ENDBRANCH  11  17
ENDBRANCH  10  11
ENDBRANCH   1  10
BRANCH   5  18
ATOM     18  C   UNL     1       5.266   4.441  16.766  0.00  0.00    +0.000 C 
BRANCH  18  19
ATOM     19  N   UNL     1       3.926   4.960  17.006  0.00  0.00    +0.000 N 
ATOM     20  C   UNL     1       3.317   4.369  18.128  0.00  0.00    +0.000 A 
ATOM     21  C   UNL     1       2.021   4.747  18.471  0.00  0.00    +0.000 A 
ATOM     22  C   UNL     1       1.419   4.194  19.599  0.00  0.00    +0.000 A 
ATOM     23  C   UNL     1       2.143   3.286  20.341  0.00  0.00    +0.000 A 
ATOM     24 CL   UNL     1       1.496   2.538  21.735  0.00  0.00    +0.000 Cl
ATOM     25  N   UNL     1       3.396   2.929  20.017  0.00  0.00    +0.000 NA
ATOM     26  N   UNL     1       3.983   3.485  18.910  0.00  0.00    +0.000 NA
ATOM     27  H   UNL     1       3.327   4.862  16.193  0.00  0.00    +0.000 HD
ENDBRANCH  18  19
ENDBRANCH   5  18
TORSDOF 5
ENDMDL
MODEL 4
REMARK VINA RESULT:      -8.3      0.825      1.053
REMARK  Name = 
REMARK  6 active torsions:
REMARK  status: ('A' for Active; 'I' for Inactive)
REMARK    1  A    between atoms: C_1  and  C_2
REMARK    2  A    between atoms: N_6  and  C_7
REMARK    3  A    between atoms: C_7  and  C_8
REMARK    4  A    between atoms: C_8  and  C_9
REMARK    5  A    between atoms: C_13  and  C_14
REMARK    6  A    between atoms: C_14  and  N_15
REMARK                            x       y       z     vdW  Elec       q    Type
REMARK                         _______ _______ _______ _____ _____    ______ ____
ROOT
ATOM      1  C   UNL     1       4.899   4.464  16.899  0.00  0.00    +0.000 A 
ATOM      2  C   UNL     1       4.963   5.767  16.459  0.00  0.00    +0.000 A 
ATOM      3  C   UNL     1       6.038   6.372  17.155  0.00  0.00    +0.000 A 
ATOM      4  C   UNL     1       6.630   7.643  17.160  0.00  0.00    +0.000 A 
ATOM      5  C   UNL     1       7.754   7.874  17.978  0.00  0.00    +0.000 A 
ATOM      6  C   UNL     1       8.239   6.851  18.813  0.00  0.00    +0.000 A 
ATOM      7  C   UNL     1       7.648   5.581  18.832  0.00  0.00    +0.000 A 
ATOM      8  C   UNL     1       6.562   5.388  17.982  0.00  0.00    +0.000 A 
ATOM      9  O   UNL     1       5.864   4.228  17.832  0.00  0.00    +0.000 OA
ENDROOT
BRANCH   1  10
ATOM     10  C   UNL     1       4.001   3.332  16.562  0.00  0.00    +0.000 C 
BRANCH  10  11
ATOM     11  C   UNL     1       3.407   2.714  17.839  0.00  0.00    +0.000 C 
BRANCH  11  17
ATOM     12  C   UNL     1       3.675   3.765  20.523  0.00  0.00    +0.000 C 
ATOM     13  C   UNL     1       2.592   4.300  19.580  0.00  0.00    +0.000 C 
ATOM     14  C   UNL     1       1.245   4.385  20.295  0.00  0.00    +0.000 C 
ATOM     15  C   UNL     1       0.636   3.024  20.044  0.00  0.00    +0.000 C 
ATOM     16  C   UNL     1       1.081   2.696  18.632  0.00  0.00    +0.000 C 
ATOM     17  N   UNL     1       2.291   3.489  18.385  0.00  0.00    +0.000 NA
ENDBRANCH  11  17
ENDBRANCH  10  11
ENDBRANCH   1  10
BRANCH   5  18
ATOM     18  C   UNL     1       8.441   9.219  17.920  0.00  0.00    +0.000 C 
BRANCH  18  19
ATOM     19  N   UNL     1       8.941   9.577  19.241  0.00  0.00    +0.000 N 
ATOM     20  C   UNL     1       9.660  10.786  19.231  0.00  0.00    +0.000 A 
ATOM     21  C   UNL     1      10.222  11.248  20.419  0.00  0.00    +0.000 A 
ATOM     22  C   UNL     1      10.908  12.460  20.430  0.00  0.00    +0.000 A 
ATOM     23  C   UNL     1      11.000  13.164  19.248  0.00  0.00    +0.000 A 
ATOM     24 CL   UNL     1      11.830  14.655  19.146  0.00  0.00    +0.000 Cl
ATOM     25  N   UNL     1      10.450  12.724  18.105  0.00  0.00    +0.000 NA
ATOM     26  N   UNL     1       9.769  11.534  18.107  0.00  0.00    +0.000 NA
ATOM     27  H   UNL     1       9.506   8.838  19.648  0.00  0.00    +0.000 HD
ENDBRANCH  18  19
ENDBRANCH   5  18
TORSDOF 5
ENDMDL
MODEL 5
REMARK VINA RESULT:      -8.2      6.189      8.339
REMARK  Name = 
REMARK  6 active torsions:
REMARK  status: ('A' for Active; 'I' for Inactive)
REMARK    1  A    between atoms: C_1  and  C_2
REMARK    2  A    between atoms: N_6  and  C_7
REMARK    3  A    between atoms: C_7  and  C_8
REMARK    4  A    between atoms: C_8  and  C_9
REMARK    5  A    between atoms: C_13  and  C_14
REMARK    6  A    between atoms: C_14  and  N_15
REMARK                            x       y       z     vdW  Elec       q    Type
REMARK                         _______ _______ _______ _____ _____    ______ ____
ROOT
ATOM      1  C   UNL     1       4.081   6.058  18.311  0.00  0.00    +0.000 A 
ATOM      2  C   UNL     1       3.726   7.062  17.439  0.00  0.00    +0.000 A 
ATOM      3  C   UNL     1       2.766   7.856  18.112  0.00  0.00    +0.000 A 
ATOM      4  C   UNL     1       2.035   9.012  17.801  0.00  0.00    +0.000 A 
ATOM      5  C   UNL     1       1.179   9.566  18.773  0.00  0.00    +0.000 A 
ATOM      6  C   UNL     1       1.027   8.933  20.020  0.00  0.00    +0.000 A 
ATOM      7  C   UNL     1       1.737   7.769  20.341  0.00  0.00    +0.000 A 
ATOM      8  C   UNL     1       2.598   7.277  19.363  0.00  0.00    +0.000 A 
ATOM      9  O   UNL     1       3.393   6.178  19.481  0.00  0.00    +0.000 OA
ENDROOT
BRANCH   1  10
ATOM     10  C   UNL     1       5.025   4.918  18.202  0.00  0.00    +0.000 C 
BRANCH  10  11
ATOM     11  C   UNL     1       4.421   3.795  17.344  0.00  0.00    +0.000 C 
BRANCH  11  17
ATOM     12  C   UNL     1       1.554   3.850  17.746  0.00  0.00    +0.000 C 
ATOM     13  C   UNL     1       2.357   2.575  18.027  0.00  0.00    +0.000 C 
ATOM     14  C   UNL     1       1.960   1.970  19.372  0.00  0.00    +0.000 C 
ATOM     15  C   UNL     1       2.900   2.647  20.345  0.00  0.00    +0.000 C 
ATOM     16  C   UNL     1       4.193   2.759  19.561  0.00  0.00    +0.000 C 
ATOM     17  N   UNL     1       3.820   2.723  18.142  0.00  0.00    +0.000 NA
ENDBRANCH  11  17
ENDBRANCH  10  11
ENDBRANCH   1  10
BRANCH   5  18
ATOM     18  C   UNL     1       0.455  10.856  18.465  0.00  0.00    +0.000 C 
BRANCH  18  19
ATOM     19  N   UNL     1      -0.685  10.590  17.598  0.00  0.00    +0.000 N 
ATOM     20  C   UNL     1      -1.889  11.086  18.131  0.00  0.00    +0.000 A 
ATOM     21  C   UNL     1      -3.073  10.886  17.425  0.00  0.00    +0.000 A 
ATOM     22  C   UNL     1      -4.267  11.402  17.925  0.00  0.00    +0.000 A 
ATOM     23  C   UNL     1      -4.225  12.102  19.111  0.00  0.00    +0.000 A 
ATOM     24 CL   UNL     1      -5.632  12.765  19.820  0.00  0.00    +0.000 Cl
ATOM     25  N   UNL     1      -3.083  12.304  19.786  0.00  0.00    +0.000 NA
ATOM     26  N   UNL     1      -1.911  11.800  19.282  0.00  0.00    +0.000 NA
ATOM     27  H   UNL     1      -0.780   9.602  17.385  0.00  0.00    +0.000 HD
ENDBRANCH  18  19
ENDBRANCH   5  18
TORSDOF 5
ENDMDL
MODEL 6
REMARK VINA RESULT:      -8.2      3.630      9.510
REMARK  Name = 
REMARK  6 active torsions:
REMARK  status: ('A' for Active; 'I' for Inactive)
REMARK    1  A    between atoms: C_1  and  C_2
REMARK    2  A    between atoms: N_6  and  C_7
REMARK    3  A    between atoms: C_7  and  C_8
REMARK    4  A    between atoms: C_8  and  C_9
REMARK    5  A    between atoms: C_13  and  C_14
REMARK    6  A    between atoms: C_14  and  N_15
REMARK                            x       y       z     vdW  Elec       q    Type
REMARK                         _______ _______ _______ _____ _____    ______ ____
ROOT
ATOM      1  C   UNL     1       8.344   9.050  18.086  0.00  0.00    +0.000 A 
ATOM      2  C   UNL     1       7.368   8.684  17.186  0.00  0.00    +0.000 A 
ATOM      3  C   UNL     1       7.091   7.317  17.429  0.00  0.00    +0.000 A 
ATOM      4  C   UNL     1       6.212   6.368  16.887  0.00  0.00    +0.000 A 
ATOM      5  C   UNL     1       6.180   5.070  17.434  0.00  0.00    +0.000 A 
ATOM      6  C   UNL     1       7.057   4.724  18.478  0.00  0.00    +0.000 A 
ATOM      7  C   UNL     1       7.953   5.655  19.019  0.00  0.00    +0.000 A 
ATOM      8  C   UNL     1       7.926   6.935  18.471  0.00  0.00    +0.000 A 
ATOM      9  O   UNL     1       8.694   7.988  18.867  0.00  0.00    +0.000 OA
ENDROOT
BRANCH   1  10
ATOM     10  C   UNL     1       9.054  10.328  18.336  0.00  0.00    +0.000 C 
BRANCH  10  11
ATOM     11  C   UNL     1       9.329  10.510  19.838  0.00  0.00    +0.000 C 
BRANCH  11  17
ATOM     12  C   UNL     1      11.671  12.165  20.237  0.00  0.00    +0.000 C 
ATOM     13  C   UNL     1      10.276  12.795  20.143  0.00  0.00    +0.000 C 
ATOM     14  C   UNL     1      10.067  13.817  21.258  0.00  0.00    +0.000 C 
ATOM     15  C   UNL     1       9.495  12.985  22.384  0.00  0.00    +0.000 C 
ATOM     16  C   UNL     1       8.609  11.986  21.666  0.00  0.00    +0.000 C 
ATOM     17  N   UNL     1       9.125  11.886  20.296  0.00  0.00    +0.000 NA
ENDBRANCH  11  17
ENDBRANCH  10  11
ENDBRANCH   1  10
BRANCH   5  18
ATOM     18  C   UNL     1       5.175   4.074  16.904  0.00  0.00    +0.000 C 
BRANCH  18  19
ATOM     19  N   UNL     1       3.825   4.595  17.072  0.00  0.00    +0.000 N 
ATOM     20  C   UNL     1       3.188   4.074  18.213  0.00  0.00    +0.000 A 
ATOM     21  C   UNL     1       1.880   4.462  18.493  0.00  0.00    +0.000 A 
ATOM     22  C   UNL     1       1.250   3.979  19.638  0.00  0.00    +0.000 A 
ATOM     23  C   UNL     1       1.959   3.130  20.459  0.00  0.00    +0.000 A 
ATOM     24 CL   UNL     1       1.278   2.471  21.881  0.00  0.00    +0.000 Cl
ATOM     25  N   UNL     1       3.223   2.764  20.196  0.00  0.00    +0.000 NA
ATOM     26  N   UNL     1       3.838   3.251  19.071  0.00  0.00    +0.000 NA
ATOM     27  H   UNL     1       3.250   4.437  16.249  0.00  0.00    +0.000 HD
ENDBRANCH  18  19
ENDBRANCH   5  18
TORSDOF 5
ENDMDL
MODEL 7
REMARK VINA RESULT:      -8.2      3.614      9.867
REMARK  Name = 
REMARK  6 active torsions:
REMARK  status: ('A' for Active; 'I' for Inactive)
REMARK    1  A    between atoms: C_1  and  C_2
REMARK    2  A    between atoms: N_6  and  C_7
REMARK    3  A    between atoms: C_7  and  C_8
REMARK    4  A    between atoms: C_8  and  C_9
REMARK    5  A    between atoms: C_13  and  C_14
REMARK    6  A    between atoms: C_14  and  N_15
REMARK                            x       y       z     vdW  Elec       q    Type
REMARK                         _______ _______ _______ _____ _____    ______ ____
ROOT
ATOM      1  C   UNL     1       8.543   8.990  18.546  0.00  0.00    +0.000 A 
ATOM      2  C   UNL     1       7.657   8.871  17.498  0.00  0.00    +0.000 A 
ATOM      3  C   UNL     1       7.294   7.504  17.433  0.00  0.00    +0.000 A 
ATOM      4  C   UNL     1       6.439   6.739  16.627  0.00  0.00    +0.000 A 
ATOM      5  C   UNL     1       6.289   5.364  16.897  0.00  0.00    +0.000 A 
ATOM      6  C   UNL     1       7.029   4.764  17.931  0.00  0.00    +0.000 A 
ATOM      7  C   UNL     1       7.901   5.511  18.735  0.00  0.00    +0.000 A 
ATOM      8  C   UNL     1       7.991   6.873  18.455  0.00  0.00    +0.000 A 
ATOM      9  O   UNL     1       8.756   7.776  19.128  0.00  0.00    +0.000 OA
ENDROOT
BRANCH   1  10
ATOM     10  C   UNL     1       9.278  10.145  19.116  0.00  0.00    +0.000 C 
BRANCH  10  11
ATOM     11  C   UNL     1       9.377  11.285  18.089  0.00  0.00    +0.000 C 
BRANCH  11  17
ATOM     12  C   UNL     1       8.387  13.948  18.648  0.00  0.00    +0.000 C 
ATOM     13  C   UNL     1       9.797  13.531  19.083  0.00  0.00    +0.000 C 
ATOM     14  C   UNL     1      10.818  14.606  18.713  0.00  0.00    +0.000 C 
ATOM     15  C   UNL     1      11.248  14.207  17.320  0.00  0.00    +0.000 C 
ATOM     16  C   UNL     1      11.261  12.692  17.377  0.00  0.00    +0.000 C 
ATOM     17  N   UNL     1      10.351  12.312  18.463  0.00  0.00    +0.000 NA
ENDBRANCH  11  17
ENDBRANCH  10  11
ENDBRANCH   1  10
BRANCH   5  18
ATOM     18  C   UNL     1       5.305   4.558  16.080  0.00  0.00    +0.000 C 
BRANCH  18  19
ATOM     19  N   UNL     1       5.100   3.254  16.697  0.00  0.00    +0.000 N 
ATOM     20  C   UNL     1       3.982   3.237  17.551  0.00  0.00    +0.000 A 
ATOM     21  C   UNL     1       3.671   2.063  18.234  0.00  0.00    +0.000 A 
ATOM     22  C   UNL     1       2.548   2.023  19.057  0.00  0.00    +0.000 A 
ATOM     23  C   UNL     1       1.777   3.161  19.158  0.00  0.00    +0.000 A 
ATOM     24 CL   UNL     1       0.386   3.225  20.149  0.00  0.00    +0.000 Cl
ATOM     25  N   UNL     1       2.070   4.289  18.492  0.00  0.00    +0.000 NA
ATOM     26  N   UNL     1       3.173   4.316  17.678  0.00  0.00    +0.000 NA
ATOM     27  H   UNL     1       5.924   2.934  17.196  0.00  0.00    +0.000 HD
ENDBRANCH  18  19
ENDBRANCH   5  18
TORSDOF 5
ENDMDL
MODEL 8
REMARK VINA RESULT:      -8.0      3.665      9.721
REMARK  Name = 
REMARK  6 active torsions:
REMARK  status: ('A' for Active; 'I' for Inactive)
REMARK    1  A    between atoms: C_1  and  C_2
REMARK    2  A    between atoms: N_6  and  C_7
REMARK    3  A    between atoms: C_7  and  C_8
REMARK    4  A    between atoms: C_8  and  C_9
REMARK    5  A    between atoms: C_13  and  C_14
REMARK    6  A    between atoms: C_14  and  N_15
REMARK                            x       y       z     vdW  Elec       q    Type
REMARK                         _______ _______ _______ _____ _____    ______ ____
ROOT
ATOM      1  C   UNL     1       8.577   9.089  18.513  0.00  0.00    +0.000 A 
ATOM      2  C   UNL     1       7.642   8.864  17.528  0.00  0.00    +0.000 A 
ATOM      3  C   UNL     1       7.311   7.489  17.596  0.00  0.00    +0.000 A 
ATOM      4  C   UNL     1       6.435   6.640  16.905  0.00  0.00    +0.000 A 
ATOM      5  C   UNL     1       6.335   5.290  17.295  0.00  0.00    +0.000 A 
ATOM      6  C   UNL     1       7.143   4.796  18.334  0.00  0.00    +0.000 A 
ATOM      7  C   UNL     1       8.036   5.626  19.024  0.00  0.00    +0.000 A 
ATOM      8  C   UNL     1       8.076   6.961  18.628  0.00  0.00    +0.000 A 
ATOM      9  O   UNL     1       8.852   7.934  19.182  0.00  0.00    +0.000 OA
ENDROOT
BRANCH   1  10
ATOM     10  C   UNL     1       9.311  10.304  18.945  0.00  0.00    +0.000 C 
BRANCH  10  11
ATOM     11  C   UNL     1       8.981  11.492  18.026  0.00  0.00    +0.000 C 
BRANCH  11  17
ATOM     12  C   UNL     1       7.601  14.017  17.704  0.00  0.00    +0.000 C 
ATOM     13  C   UNL     1       8.871  13.924  18.559  0.00  0.00    +0.000 C 
ATOM     14  C   UNL     1       9.835  15.060  18.222  0.00  0.00    +0.000 C 
ATOM     15  C   UNL     1      10.674  14.479  17.106  0.00  0.00    +0.000 C 
ATOM     16  C   UNL     1      10.830  13.025  17.506  0.00  0.00    +0.000 C 
ATOM     17  N   UNL     1       9.699  12.715  18.389  0.00  0.00    +0.000 NA
ENDBRANCH  11  17
ENDBRANCH  10  11
ENDBRANCH   1  10
BRANCH   5  18
ATOM     18  C   UNL     1       5.331   4.398  16.602  0.00  0.00    +0.000 C 
BRANCH  18  19
ATOM     19  N   UNL     1       3.984   4.909  16.816  0.00  0.00    +0.000 N 
ATOM     20  C   UNL     1       3.363   4.331  17.938  0.00  0.00    +0.000 A 
ATOM     21  C   UNL     1       2.059   4.703  18.257  0.00  0.00    +0.000 A 
ATOM     22  C   UNL     1       1.446   4.163  19.385  0.00  0.00    +0.000 A 
ATOM     23  C   UNL     1       2.168   3.273  20.152  0.00  0.00    +0.000 A 
ATOM     24 CL   UNL     1       1.507   2.542  21.549  0.00  0.00    +0.000 Cl
ATOM     25  N   UNL     1       3.428   2.922  19.852  0.00  0.00    +0.000 NA
ATOM     26  N   UNL     1       4.026   3.466  18.744  0.00  0.00    +0.000 NA
ATOM     27  H   UNL     1       3.397   4.792  15.995  0.00  0.00    +0.000 HD
ENDBRANCH  18  19
ENDBRANCH   5  18
TORSDOF 5
ENDMDL
MODEL 9
REMARK VINA RESULT:      -8.0      5.230      7.381
REMARK  Name = 
REMARK  6 active torsions:
REMARK  status: ('A' for Active; 'I' for Inactive)
REMARK    1  A    between atoms: C_1  and  C_2
REMARK    2  A    between atoms: N_6  and  C_7
REMARK    3  A    between atoms: C_7  and  C_8
REMARK    4  A    between atoms: C_8  and  C_9
REMARK    5  A    between atoms: C_13  and  C_14
REMARK    6  A    between atoms: C_14  and  N_15
REMARK                            x       y       z     vdW  Elec       q    Type
REMARK                         _______ _______ _______ _____ _____    ______ ____
ROOT
ATOM      1  C   UNL     1       1.615   8.782  18.564  0.00  0.00    +0.000 A 
ATOM      2  C   UNL     1       2.685   8.479  17.752  0.00  0.00    +0.000 A 
ATOM      3  C   UNL     1       3.240   7.276  18.253  0.00  0.00    +0.000 A 
ATOM      4  C   UNL     1       4.305   6.443  17.884  0.00  0.00    +0.000 A 
ATOM      5  C   UNL     1       4.538   5.261  18.616  0.00  0.00    +0.000 A 
ATOM      6  C   UNL     1       3.738   4.954  19.730  0.00  0.00    +0.000 A 
ATOM      7  C   UNL     1       2.680   5.784  20.122  0.00  0.00    +0.000 A 
ATOM      8  C   UNL     1       2.464   6.923  19.349  0.00  0.00    +0.000 A 
ATOM      9  O   UNL     1       1.480   7.843  19.543  0.00  0.00    +0.000 OA
ENDROOT
BRANCH   1  10
ATOM     10  C   UNL     1       0.640   9.900  18.568  0.00  0.00    +0.000 C 
BRANCH  10  11
ATOM     11  C   UNL     1       0.790  10.744  19.845  0.00  0.00    +0.000 C 
BRANCH  11  17
ATOM     12  C   UNL     1       0.229  13.051  21.502  0.00  0.00    +0.000 C 
ATOM     13  C   UNL     1      -0.849  11.990  21.250  0.00  0.00    +0.000 C 
ATOM     14  C   UNL     1      -1.540  11.598  22.555  0.00  0.00    +0.000 C 
ATOM     15  C   UNL     1      -0.689  10.456  23.065  0.00  0.00    +0.000 C 
ATOM     16  C   UNL     1      -0.295   9.721  21.799  0.00  0.00    +0.000 C 
ATOM     17  N   UNL     1      -0.393  10.696  20.707  0.00  0.00    +0.000 NA
ENDBRANCH  11  17
ENDBRANCH  10  11
ENDBRANCH   1  10
BRANCH   5  18
ATOM     18  C   UNL     1       5.635   4.323  18.167  0.00  0.00    +0.000 C 
BRANCH  18  19
ATOM     19  N   UNL     1       5.254   3.675  16.919  0.00  0.00    +0.000 N 
ATOM     20  C   UNL     1       5.978   4.167  15.818  0.00  0.00    +0.000 A 
ATOM     21  C   UNL     1       5.706   3.660  14.549  0.00  0.00    +0.000 A 
ATOM     22  C   UNL     1       6.439   4.114  13.455  0.00  0.00    +0.000 A 
ATOM     23  C   UNL     1       7.420   5.057  13.678  0.00  0.00    +0.000 A 
ATOM     24 CL   UNL     1       8.369   5.691  12.406  0.00  0.00    +0.000 Cl
ATOM     25  N   UNL     1       7.689   5.538  14.902  0.00  0.00    +0.000 NA
ATOM     26  N   UNL     1       6.968   5.078  15.973  0.00  0.00    +0.000 NA
ATOM     27  H   UNL     1       4.257   3.748  16.741  0.00  0.00    +0.000 HD
ENDBRANCH  18  19
ENDBRANCH   5  18
TORSDOF 5
ENDMDL
