MODEL 1
REMARK VINA RESULT:      -8.3      0.000      0.000
REMARK  Name = 
REMARK  7 active torsions:
REMARK  status: ('A' for Active; 'I' for Inactive)
REMARK    1  A    between atoms: N_7  and  C_8
REMARK    2  A    between atoms: C_8  and  C_9
REMARK    3  A    between atoms: C_9  and  C_10
REMARK    4  A    between atoms: C_10  and  C_11
REMARK    5  A    between atoms: C_11  and  C_12
REMARK    6  A    between atoms: C_12  and  N_13
REMARK    7  A    between atoms: C_14  and  C_15
REMARK                            x       y       z     vdW  Elec       q    Type
REMARK                         _______ _______ _______ _____ _____    ______ ____
ROOT
ATOM      1  N   UNL     1       2.797   5.693  19.079  0.00  0.00    +0.000 N 
ATOM      2  C   UNL     1       2.387   4.970  20.197  0.00  0.00    +0.000 A 
ATOM      3  N   UNL     1       1.765   5.776  21.047  0.00  0.00    +0.000 NA
ATOM      4  C   UNL     1       1.684   6.995  20.471  0.00  0.00    +0.000 A 
ATOM      5  C   UNL     1       1.061   8.149  20.968  0.00  0.00    +0.000 A 
ATOM      6  C   UNL     1       1.083   9.306  20.191  0.00  0.00    +0.000 A 
ATOM      7 CL   UNL     1       0.269  10.699  20.819  0.00  0.00    +0.000 Cl
ATOM      8  C   UNL     1       1.734   9.312  18.949  0.00  0.00    +0.000 A 
ATOM      9 CL   UNL     1       1.779  10.726  17.952  0.00  0.00    +0.000 Cl
ATOM     10  C   UNL     1       2.372   8.157  18.454  0.00  0.00    +0.000 A 
ATOM     11  C   UNL     1       2.319   6.997  19.240  0.00  0.00    +0.000 A 
ENDROOT
BRANCH   2  12
ATOM     12  C   UNL     1       2.469   3.510  20.591  0.00  0.00    +0.000 C 
ATOM     13  C   UNL     1       3.649   2.635  20.204  0.00  0.00    +0.000 C 
ATOM     14  C   UNL     1       3.527   1.978  18.833  0.00  0.00    +0.000 C 
ATOM     15  N   UNL     1       2.216   1.424  18.512  0.00  0.00    +0.000 NA
ATOM     16  C   UNL     1       1.114   2.337  18.809  0.00  0.00    +0.000 C 
ATOM     17  C   UNL     1       1.146   2.799  20.258  0.00  0.00    +0.000 C 
ATOM     18  H   UNL     1       2.075   0.551  19.020  0.00  0.00    +0.000 HD
ENDBRANCH   2  12
BRANCH   1  19
ATOM     19  C   UNL     1       3.646   5.312  17.952  0.00  0.00    +0.000 C 
BRANCH  19  20
ATOM     20  C   UNL     1       5.139   5.615  18.161  0.00  0.00    +0.000 C 
BRANCH  20  21
ATOM     21  C   UNL     1       5.724   6.793  17.347  0.00  0.00    +0.000 C 
BRANCH  21  22
ATOM     22  C   UNL     1       7.132   6.583  16.773  0.00  0.00    +0.000 C 
BRANCH  22  23
ATOM     23  C   UNL     1       7.450   5.103  16.488  0.00  0.00    +0.000 C 
BRANCH  23  30
ATOM     24  O   UNL     1       8.488   5.806  13.799  0.00  0.00    +0.000 OA
ATOM     25  C   UNL     1       7.533   5.072  13.995  0.00  0.00    +0.000 C 
ATOM     26  C   UNL     1       6.773   4.420  12.923  0.00  0.00    +0.000 C 
ATOM     27  C   UNL     1       5.824   3.680  13.496  0.00  0.00    +0.000 C 
ATOM     28  C   UNL     1       5.955   3.831  14.953  0.00  0.00    +0.000 C 
ATOM     29  O   UNL     1       5.245   3.263  15.760  0.00  0.00    +0.000 OA
ATOM     30  N   UNL     1       6.980   4.691  15.171  0.00  0.00    +0.000 N 
ENDBRANCH  23  30
ENDBRANCH  22  23
ENDBRANCH  21  22
ENDBRANCH  20  21
ENDBRANCH  19  20
ENDBRANCH   1  19
TORSDOF 7
ENDMDL
MODEL 2
REMARK VINA RESULT:      -7.9      0.596      1.542
REMARK  Name = 
REMARK  7 active torsions:
REMARK  status: ('A' for Active; 'I' for Inactive)
REMARK    1  A    between atoms: N_7  and  C_8
REMARK    2  A    between atoms: C_8  and  C_9
REMARK    3  A    between atoms: C_9  and  C_10
REMARK    4  A    between atoms: C_10  and  C_11
REMARK    5  A    between atoms: C_11  and  C_12
REMARK    6  A    between atoms: C_12  and  N_13
REMARK    7  A    between atoms: C_14  and  C_15
REMARK                            x       y       z     vdW  Elec       q    Type
REMARK                         _______ _______ _______ _____ _____    ______ ____
ROOT
ATOM      1  N   UNL     1       2.558   5.637  18.947  0.00  0.00    +0.000 N 
ATOM      2  C   UNL     1       2.200   4.948  20.102  0.00  0.00    +0.000 A 
ATOM      3  N   UNL     1       1.691   5.793  20.988  0.00  0.00    +0.000 NA
ATOM      4  C   UNL     1       1.630   7.011  20.404  0.00  0.00    +0.000 A 
ATOM      5  C   UNL     1       1.111   8.200  20.933  0.00  0.00    +0.000 A 
ATOM      6  C   UNL     1       1.133   9.348  20.141  0.00  0.00    +0.000 A 
ATOM      7 CL   UNL     1       0.447  10.788  20.813  0.00  0.00    +0.000 Cl
ATOM      8  C   UNL     1       1.683   9.307  18.852  0.00  0.00    +0.000 A 
ATOM      9 CL   UNL     1       1.726  10.708  17.837  0.00  0.00    +0.000 Cl
ATOM     10  C   UNL     1       2.218   8.115  18.325  0.00  0.00    +0.000 A 
ATOM     11  C   UNL     1       2.165   6.967  19.127  0.00  0.00    +0.000 A 
ENDROOT
BRANCH   2  12
ATOM     12  C   UNL     1       2.235   3.489  20.507  0.00  0.00    +0.000 C 
ATOM     13  C   UNL     1       3.503   2.658  20.421  0.00  0.00    +0.000 C 
ATOM     14  C   UNL     1       3.741   2.006  19.063  0.00  0.00    +0.000 C 
ATOM     15  N   UNL     1       2.568   1.409  18.435  0.00  0.00    +0.000 NA
ATOM     16  C   UNL     1       1.395   2.282  18.453  0.00  0.00    +0.000 C 
ATOM     17  C   UNL     1       1.058   2.735  19.865  0.00  0.00    +0.000 C 
ATOM     18  H   UNL     1       2.338   0.528  18.894  0.00  0.00    +0.000 HD
ENDBRANCH   2  12
BRANCH   1  19
ATOM     19  C   UNL     1       3.294   5.201  17.761  0.00  0.00    +0.000 C 
BRANCH  19  20
ATOM     20  C   UNL     1       4.750   5.693  17.711  0.00  0.00    +0.000 C 
BRANCH  20  21
ATOM     21  C   UNL     1       5.849   4.611  17.835  0.00  0.00    +0.000 C 
BRANCH  21  22
ATOM     22  C   UNL     1       7.095   4.813  16.962  0.00  0.00    +0.000 C 
BRANCH  22  23
ATOM     23  C   UNL     1       6.851   5.764  15.776  0.00  0.00    +0.000 C 
BRANCH  23  30
ATOM     24  O   UNL     1       4.739   3.906  14.832  0.00  0.00    +0.000 OA
ATOM     25  C   UNL     1       5.725   4.212  14.181  0.00  0.00    +0.000 C 
ATOM     26  C   UNL     1       5.993   3.713  12.827  0.00  0.00    +0.000 C 
ATOM     27  C   UNL     1       7.133   4.267  12.414  0.00  0.00    +0.000 C 
ATOM     28  C   UNL     1       7.622   5.144  13.489  0.00  0.00    +0.000 C 
ATOM     29  O   UNL     1       8.635   5.812  13.410  0.00  0.00    +0.000 OA
ATOM     30  N   UNL     1       6.742   5.042  14.514  0.00  0.00    +0.000 N 
ENDBRANCH  23  30
ENDBRANCH  22  23
ENDBRANCH  21  22
ENDBRANCH  20  21
ENDBRANCH  19  20
ENDBRANCH   1  19
TORSDOF 7
ENDMDL
MODEL 3
REMARK VINA RESULT:      -7.8      1.073      1.686
REMARK  Name = 
REMARK  7 active torsions:
REMARK  status: ('A' for Active; 'I' for Inactive)
REMARK    1  A    between atoms: N_7  and  C_8
REMARK    2  A    between atoms: C_8  and  C_9
REMARK    3  A    between atoms: C_9  and  C_10
REMARK    4  A    between atoms: C_10  and  C_11
REMARK    5  A    between atoms: C_11  and  C_12
REMARK    6  A    between atoms: C_12  and  N_13
REMARK    7  A    between atoms: C_14  and  C_15
REMARK                            x       y       z     vdW  Elec       q    Type
REMARK                         _______ _______ _______ _____ _____    ______ ____
ROOT
ATOM      1  N   UNL     1       2.546   6.202  19.015  0.00  0.00    +0.000 N 
ATOM      2  C   UNL     1       2.394   5.360  20.113  0.00  0.00    +0.000 A 
ATOM      3  N   UNL     1       1.878   6.038  21.128  0.00  0.00    +0.000 NA
ATOM      4  C   UNL     1       1.608   7.288  20.691  0.00  0.00    +0.000 A 
ATOM      5  C   UNL     1       1.003   8.340  21.394  0.00  0.00    +0.000 A 
ATOM      6  C   UNL     1       0.803   9.553  20.736  0.00  0.00    +0.000 A 
ATOM      7 CL   UNL     1       0.017  10.815  21.622  0.00  0.00    +0.000 Cl
ATOM      8  C   UNL     1       1.220   9.714  19.407  0.00  0.00    +0.000 A 
ATOM      9 CL   UNL     1       0.987  11.202  18.554  0.00  0.00    +0.000 Cl
ATOM     10  C   UNL     1       1.842   8.662  18.705  0.00  0.00    +0.000 A 
ATOM     11  C   UNL     1       2.013   7.443  19.376  0.00  0.00    +0.000 A 
ENDROOT
BRANCH   2  12
ATOM     12  C   UNL     1       2.649   3.886  20.349  0.00  0.00    +0.000 C 
ATOM     13  C   UNL     1       3.680   3.108  19.550  0.00  0.00    +0.000 C 
ATOM     14  C   UNL     1       3.159   2.530  18.238  0.00  0.00    +0.000 C 
ATOM     15  N   UNL     1       1.836   1.920  18.297  0.00  0.00    +0.000 NA
ATOM     16  C   UNL     1       0.849   2.747  18.990  0.00  0.00    +0.000 C 
ATOM     17  C   UNL     1       1.316   3.119  20.388  0.00  0.00    +0.000 C 
ATOM     18  H   UNL     1       1.892   1.011  18.754  0.00  0.00    +0.000 HD
ENDBRANCH   2  12
BRANCH   1  19
ATOM     19  C   UNL     1       3.206   5.987  17.727  0.00  0.00    +0.000 C 
BRANCH  19  20
ATOM     20  C   UNL     1       4.682   6.417  17.701  0.00  0.00    +0.000 C 
BRANCH  20  21
ATOM     21  C   UNL     1       5.659   5.481  16.952  0.00  0.00    +0.000 C 
BRANCH  21  22
ATOM     22  C   UNL     1       5.046   4.617  15.840  0.00  0.00    +0.000 C 
BRANCH  22  23
ATOM     23  C   UNL     1       6.043   3.606  15.245  0.00  0.00    +0.000 C 
BRANCH  23  30
ATOM     24  O   UNL     1       5.452   2.731  12.473  0.00  0.00    +0.000 OA
ATOM     25  C   UNL     1       6.257   3.603  12.760  0.00  0.00    +0.000 C 
ATOM     26  C   UNL     1       7.034   4.353  11.767  0.00  0.00    +0.000 C 
ATOM     27  C   UNL     1       7.788   5.232  12.428  0.00  0.00    +0.000 C 
ATOM     28  C   UNL     1       7.506   5.075  13.863  0.00  0.00    +0.000 C 
ATOM     29  O   UNL     1       8.022   5.751  14.732  0.00  0.00    +0.000 OA
ATOM     30  N   UNL     1       6.602   4.073  13.982  0.00  0.00    +0.000 N 
ENDBRANCH  23  30
ENDBRANCH  22  23
ENDBRANCH  21  22
ENDBRANCH  20  21
ENDBRANCH  19  20
ENDBRANCH   1  19
TORSDOF 7
ENDMDL
MODEL 4
REMARK VINA RESULT:      -7.8      1.051      1.331
REMARK  Name = 
REMARK  7 active torsions:
REMARK  status: ('A' for Active; 'I' for Inactive)
REMARK    1  A    between atoms: N_7  and  C_8
REMARK    2  A    between atoms: C_8  and  C_9
REMARK    3  A    between atoms: C_9  and  C_10
REMARK    4  A    between atoms: C_10  and  C_11
REMARK    5  A    between atoms: C_11  and  C_12
REMARK    6  A    between atoms: C_12  and  N_13
REMARK    7  A    between atoms: C_14  and  C_15
REMARK                            x       y       z     vdW  Elec       q    Type
REMARK                         _______ _______ _______ _____ _____    ______ ____
ROOT
ATOM      1  N   UNL     1       2.591   5.683  19.015  0.00  0.00    +0.000 N 
ATOM      2  C   UNL     1       2.280   4.968  20.170  0.00  0.00    +0.000 A 
ATOM      3  N   UNL     1       1.779   5.789  21.082  0.00  0.00    +0.000 NA
ATOM      4  C   UNL     1       1.675   7.014  20.519  0.00  0.00    +0.000 A 
ATOM      5  C   UNL     1       1.146   8.183  21.082  0.00  0.00    +0.000 A 
ATOM      6  C   UNL     1       1.121   9.343  20.308  0.00  0.00    +0.000 A 
ATOM      7 CL   UNL     1       0.423  10.758  21.022  0.00  0.00    +0.000 Cl
ATOM      8  C   UNL     1       1.635   9.334  19.004  0.00  0.00    +0.000 A 
ATOM      9 CL   UNL     1       1.618  10.750  18.010  0.00  0.00    +0.000 Cl
ATOM     10  C   UNL     1       2.180   8.162  18.443  0.00  0.00    +0.000 A 
ATOM     11  C   UNL     1       2.175   7.001  19.228  0.00  0.00    +0.000 A 
ENDROOT
BRANCH   2  12
ATOM     12  C   UNL     1       2.358   3.505  20.550  0.00  0.00    +0.000 C 
ATOM     13  C   UNL     1       3.569   2.649  20.223  0.00  0.00    +0.000 C 
ATOM     14  C   UNL     1       3.535   2.008  18.839  0.00  0.00    +0.000 C 
ATOM     15  N   UNL     1       2.252   1.442  18.437  0.00  0.00    +0.000 NA
ATOM     16  C   UNL     1       1.123   2.338  18.680  0.00  0.00    +0.000 C 
ATOM     17  C   UNL     1       1.066   2.782  20.134  0.00  0.00    +0.000 C 
ATOM     18  H   UNL     1       2.092   0.561  18.925  0.00  0.00    +0.000 HD
ENDBRANCH   2  12
BRANCH   1  19
ATOM     19  C   UNL     1       3.302   5.281  17.803  0.00  0.00    +0.000 C 
BRANCH  19  20
ATOM     20  C   UNL     1       4.783   5.694  17.779  0.00  0.00    +0.000 C 
BRANCH  20  21
ATOM     21  C   UNL     1       5.803   4.584  17.430  0.00  0.00    +0.000 C 
BRANCH  21  22
ATOM     22  C   UNL     1       5.470   3.725  16.202  0.00  0.00    +0.000 C 
BRANCH  22  23
ATOM     23  C   UNL     1       5.044   4.560  14.981  0.00  0.00    +0.000 C 
BRANCH  23  30
ATOM     24  O   UNL     1       7.784   5.684  14.808  0.00  0.00    +0.000 OA
ATOM     25  C   UNL     1       7.254   5.030  13.925  0.00  0.00    +0.000 C 
ATOM     26  C   UNL     1       7.909   4.694  12.656  0.00  0.00    +0.000 C 
ATOM     27  C   UNL     1       7.055   3.956  11.946  0.00  0.00    +0.000 C 
ATOM     28  C   UNL     1       5.831   3.793  12.745  0.00  0.00    +0.000 C 
ATOM     29  O   UNL     1       4.866   3.149  12.382  0.00  0.00    +0.000 OA
ATOM     30  N   UNL     1       6.018   4.477  13.900  0.00  0.00    +0.000 N 
ENDBRANCH  23  30
ENDBRANCH  22  23
ENDBRANCH  21  22
ENDBRANCH  20  21
ENDBRANCH  19  20
ENDBRANCH   1  19
TORSDOF 7
ENDMDL
MODEL 5
REMARK VINA RESULT:      -7.8      1.489      2.671
REMARK  Name = 
REMARK  7 active torsions:
REMARK  status: ('A' for Active; 'I' for Inactive)
REMARK    1  A    between atoms: N_7  and  C_8
REMARK    2  A    between atoms: C_8  and  C_9
REMARK    3  A    between atoms: C_9  and  C_10
REMARK    4  A    between atoms: C_10  and  C_11
REMARK    5  A    between atoms: C_11  and  C_12
REMARK    6  A    between atoms: C_12  and  N_13
REMARK    7  A    between atoms: C_14  and  C_15
REMARK                            x       y       z     vdW  Elec       q    Type
REMARK                         _______ _______ _______ _____ _____    ______ ____
ROOT
ATOM      1  N   UNL     1       2.485   6.055  19.038  0.00  0.00    +0.000 N 
ATOM      2  C   UNL     1       2.270   5.236  20.143  0.00  0.00    +0.000 A 
ATOM      3  N   UNL     1       1.747   5.948  21.132  0.00  0.00    +0.000 NA
ATOM      4  C   UNL     1       1.535   7.200  20.668  0.00  0.00    +0.000 A 
ATOM      5  C   UNL     1       0.945   8.282  21.335  0.00  0.00    +0.000 A 
ATOM      6  C   UNL     1       0.809   9.491  20.653  0.00  0.00    +0.000 A 
ATOM      7 CL   UNL     1       0.040  10.794  21.495  0.00  0.00    +0.000 Cl
ATOM      8  C   UNL     1       1.272   9.616  19.336  0.00  0.00    +0.000 A 
ATOM      9 CL   UNL     1       1.117  11.097  18.454  0.00  0.00    +0.000 Cl
ATOM     10  C   UNL     1       1.878   8.533  18.669  0.00  0.00    +0.000 A 
ATOM     11  C   UNL     1       1.985   7.319  19.363  0.00  0.00    +0.000 A 
ENDROOT
BRANCH   2  12
ATOM     12  C   UNL     1       2.467   3.759  20.408  0.00  0.00    +0.000 C 
ATOM     13  C   UNL     1       3.643   2.985  19.838  0.00  0.00    +0.000 C 
ATOM     14  C   UNL     1       3.413   2.426  18.438  0.00  0.00    +0.000 C 
ATOM     15  N   UNL     1       2.107   1.822  18.205  0.00  0.00    +0.000 NA
ATOM     16  C   UNL     1       0.996   2.645  18.682  0.00  0.00    +0.000 C 
ATOM     17  C   UNL     1       1.154   2.997  20.152  0.00  0.00    +0.000 C 
ATOM     18  H   UNL     1       2.063   0.907  18.652  0.00  0.00    +0.000 HD
ENDBRANCH   2  12
BRANCH   1  19
ATOM     19  C   UNL     1       3.177   5.797  17.775  0.00  0.00    +0.000 C 
BRANCH  19  20
ATOM     20  C   UNL     1       4.174   6.896  17.371  0.00  0.00    +0.000 C 
BRANCH  20  21
ATOM     21  C   UNL     1       4.754   6.808  15.940  0.00  0.00    +0.000 C 
BRANCH  21  22
ATOM     22  C   UNL     1       5.375   5.460  15.546  0.00  0.00    +0.000 C 
BRANCH  22  23
ATOM     23  C   UNL     1       6.899   5.414  15.762  0.00  0.00    +0.000 C 
BRANCH  23  30
ATOM     24  O   UNL     1       6.831   3.807  18.255  0.00  0.00    +0.000 OA
ATOM     25  C   UNL     1       7.198   4.969  18.198  0.00  0.00    +0.000 C 
ATOM     26  C   UNL     1       7.675   5.730  19.359  0.00  0.00    +0.000 C 
ATOM     27  C   UNL     1       8.013   6.946  18.930  0.00  0.00    +0.000 C 
ATOM     28  C   UNL     1       7.770   6.995  17.480  0.00  0.00    +0.000 C 
ATOM     29  O   UNL     1       8.000   7.967  16.787  0.00  0.00    +0.000 OA
ATOM     30  N   UNL     1       7.266   5.789  17.122  0.00  0.00    +0.000 N 
ENDBRANCH  23  30
ENDBRANCH  22  23
ENDBRANCH  21  22
ENDBRANCH  20  21
ENDBRANCH  19  20
ENDBRANCH   1  19
TORSDOF 7
ENDMDL
MODEL 6
REMARK VINA RESULT:      -7.8      1.511      2.374
REMARK  Name = 
REMARK  7 active torsions:
REMARK  status: ('A' for Active; 'I' for Inactive)
REMARK    1  A    between atoms: N_7  and  C_8
REMARK    2  A    between atoms: C_8  and  C_9
REMARK    3  A    between atoms: C_9  and  C_10
REMARK    4  A    between atoms: C_10  and  C_11
REMARK    5  A    between atoms: C_11  and  C_12
REMARK    6  A    between atoms: C_12  and  N_13
REMARK    7  A    between atoms: C_14  and  C_15
REMARK                            x       y       z     vdW  Elec       q    Type
REMARK                         _______ _______ _______ _____ _____    ______ ____
ROOT
ATOM      1  N   UNL     1       2.637   5.842  19.377  0.00  0.00    +0.000 N 
ATOM      2  C   UNL     1       2.072   5.215  20.485  0.00  0.00    +0.000 A 
ATOM      3  N   UNL     1       1.407   6.104  21.210  0.00  0.00    +0.000 NA
ATOM      4  C   UNL     1       1.454   7.285  20.555  0.00  0.00    +0.000 A 
ATOM      5  C   UNL     1       0.844   8.497  20.910  0.00  0.00    +0.000 A 
ATOM      6  C   UNL     1       1.011   9.597  20.070  0.00  0.00    +0.000 A 
ATOM      7 CL   UNL     1       0.211  11.066  20.519  0.00  0.00    +0.000 Cl
ATOM      8  C   UNL     1       1.790   9.490  18.910  0.00  0.00    +0.000 A 
ATOM      9 CL   UNL     1       2.018  10.831  17.839  0.00  0.00    +0.000 Cl
ATOM     10  C   UNL     1       2.414   8.277  18.560  0.00  0.00    +0.000 A 
ATOM     11  C   UNL     1       2.216   7.175  19.404  0.00  0.00    +0.000 A 
ENDROOT
BRANCH   2  12
ATOM     12  C   UNL     1       2.033   3.783  20.974  0.00  0.00    +0.000 C 
ATOM     13  C   UNL     1       3.215   2.843  20.814  0.00  0.00    +0.000 C 
ATOM     14  C   UNL     1       3.258   2.102  19.481  0.00  0.00    +0.000 C 
ATOM     15  N   UNL     1       1.983   1.574  19.010  0.00  0.00    +0.000 NA
ATOM     16  C   UNL     1       0.891   2.543  19.091  0.00  0.00    +0.000 C 
ATOM     17  C   UNL     1       0.740   3.098  20.499  0.00  0.00    +0.000 C 
ATOM     18  H   UNL     1       1.733   0.742  19.544  0.00  0.00    +0.000 HD
ENDBRANCH   2  12
BRANCH   1  19
ATOM     19  C   UNL     1       3.580   5.347  18.375  0.00  0.00    +0.000 C 
BRANCH  19  20
ATOM     20  C   UNL     1       2.915   4.619  17.195  0.00  0.00    +0.000 C 
BRANCH  20  21
ATOM     21  C   UNL     1       3.862   3.888  16.214  0.00  0.00    +0.000 C 
BRANCH  21  22
ATOM     22  C   UNL     1       5.212   3.439  16.790  0.00  0.00    +0.000 C 
BRANCH  22  23
ATOM     23  C   UNL     1       6.413   4.125  16.113  0.00  0.00    +0.000 C 
BRANCH  23  30
ATOM     24  O   UNL     1       5.642   6.948  15.624  0.00  0.00    +0.000 OA
ATOM     25  C   UNL     1       6.398   6.587  16.511  0.00  0.00    +0.000 C 
ATOM     26  C   UNL     1       7.020   7.504  17.474  0.00  0.00    +0.000 C 
ATOM     27  C   UNL     1       7.758   6.770  18.307  0.00  0.00    +0.000 C 
ATOM     28  C   UNL     1       7.622   5.362  17.906  0.00  0.00    +0.000 C 
ATOM     29  O   UNL     1       8.160   4.438  18.485  0.00  0.00    +0.000 OA
ATOM     30  N   UNL     1       6.815   5.336  16.818  0.00  0.00    +0.000 N 
ENDBRANCH  23  30
ENDBRANCH  22  23
ENDBRANCH  21  22
ENDBRANCH  20  21
ENDBRANCH  19  20
ENDBRANCH   1  19
TORSDOF 7
ENDMDL
MODEL 7
REMARK VINA RESULT:      -7.7      1.394      2.466
REMARK  Name = 
REMARK  7 active torsions:
REMARK  status: ('A' for Active; 'I' for Inactive)
REMARK    1  A    between atoms: N_7  and  C_8
REMARK    2  A    between atoms: C_8  and  C_9
REMARK    3  A    between atoms: C_9  and  C_10
REMARK    4  A    between atoms: C_10  and  C_11
REMARK    5  A    between atoms: C_11  and  C_12
REMARK    6  A    between atoms: C_12  and  N_13
REMARK    7  A    between atoms: C_14  and  C_15
REMARK                            x       y       z     vdW  Elec       q    Type
REMARK                         _______ _______ _______ _____ _____    ______ ____
ROOT
ATOM      1  N   UNL     1       3.035   5.590  19.238  0.00  0.00    +0.000 N 
ATOM      2  C   UNL     1       2.501   4.878  20.310  0.00  0.00    +0.000 A 
ATOM      3  N   UNL     1       1.735   5.677  21.040  0.00  0.00    +0.000 NA
ATOM      4  C   UNL     1       1.689   6.878  20.421  0.00  0.00    +0.000 A 
ATOM      5  C   UNL     1       0.957   8.015  20.791  0.00  0.00    +0.000 A 
ATOM      6  C   UNL     1       1.043   9.153  19.989  0.00  0.00    +0.000 A 
ATOM      7 CL   UNL     1       0.096  10.525  20.456  0.00  0.00    +0.000 Cl
ATOM      8  C   UNL     1       1.861   9.155  18.850  0.00  0.00    +0.000 A 
ATOM      9 CL   UNL     1       1.991  10.545  17.826  0.00  0.00    +0.000 Cl
ATOM     10  C   UNL     1       2.607   8.017  18.485  0.00  0.00    +0.000 A 
ATOM     11  C   UNL     1       2.489   6.876  19.291  0.00  0.00    +0.000 A 
ENDROOT
BRANCH   2  12
ATOM     12  C   UNL     1       2.584   3.434  20.756  0.00  0.00    +0.000 C 
ATOM     13  C   UNL     1       3.760   2.544  20.396  0.00  0.00    +0.000 C 
ATOM     14  C   UNL     1       3.631   1.838  19.050  0.00  0.00    +0.000 C 
ATOM     15  N   UNL     1       2.319   1.273  18.756  0.00  0.00    +0.000 NA
ATOM     16  C   UNL     1       1.218   2.198  19.025  0.00  0.00    +0.000 C 
ATOM     17  C   UNL     1       1.258   2.712  20.456  0.00  0.00    +0.000 C 
ATOM     18  H   UNL     1       2.179   0.420  19.295  0.00  0.00    +0.000 HD
ENDBRANCH   2  12
BRANCH   1  19
ATOM     19  C   UNL     1       4.048   5.217  18.252  0.00  0.00    +0.000 C 
BRANCH  19  20
ATOM     20  C   UNL     1       3.502   4.391  17.075  0.00  0.00    +0.000 C 
BRANCH  20  21
ATOM     21  C   UNL     1       4.344   4.399  15.778  0.00  0.00    +0.000 C 
BRANCH  21  22
ATOM     22  C   UNL     1       5.696   3.674  15.847  0.00  0.00    +0.000 C 
BRANCH  22  23
ATOM     23  C   UNL     1       6.895   4.613  15.623  0.00  0.00    +0.000 C 
BRANCH  23  30
ATOM     24  O   UNL     1       8.525   3.921  18.003  0.00  0.00    +0.000 OA
ATOM     25  C   UNL     1       7.958   4.990  17.847  0.00  0.00    +0.000 C 
ATOM     26  C   UNL     1       8.018   6.092  18.814  0.00  0.00    +0.000 C 
ATOM     27  C   UNL     1       7.309   7.104  18.314  0.00  0.00    +0.000 C 
ATOM     28  C   UNL     1       6.782   6.681  17.008  0.00  0.00    +0.000 C 
ATOM     29  O   UNL     1       6.109   7.392  16.287  0.00  0.00    +0.000 OA
ATOM     30  N   UNL     1       7.193   5.405  16.810  0.00  0.00    +0.000 N 
ENDBRANCH  23  30
ENDBRANCH  22  23
ENDBRANCH  21  22
ENDBRANCH  20  21
ENDBRANCH  19  20
ENDBRANCH   1  19
TORSDOF 7
ENDMDL
MODEL 8
REMARK VINA RESULT:      -7.6      1.177      1.405
REMARK  Name = 
REMARK  7 active torsions:
REMARK  status: ('A' for Active; 'I' for Inactive)
REMARK    1  A    between atoms: N_7  and  C_8
REMARK    2  A    between atoms: C_8  and  C_9
REMARK    3  A    between atoms: C_9  and  C_10
REMARK    4  A    between atoms: C_10  and  C_11
REMARK    5  A    between atoms: C_11  and  C_12
REMARK    6  A    between atoms: C_12  and  N_13
REMARK    7  A    between atoms: C_14  and  C_15
REMARK                            x       y       z     vdW  Elec       q    Type
REMARK                         _______ _______ _______ _____ _____    ______ ____
ROOT
ATOM      1  N   UNL     1       2.972   5.720  19.309  0.00  0.00    +0.000 N 
ATOM      2  C   UNL     1       2.347   5.007  20.329  0.00  0.00    +0.000 A 
ATOM      3  N   UNL     1       1.544   5.812  21.011  0.00  0.00    +0.000 NA
ATOM      4  C   UNL     1       1.565   7.020  20.405  0.00  0.00    +0.000 A 
ATOM      5  C   UNL     1       0.829   8.167  20.733  0.00  0.00    +0.000 A 
ATOM      6  C   UNL     1       0.995   9.311  19.954  0.00  0.00    +0.000 A 
ATOM      7 CL   UNL     1       0.040  10.696  20.366  0.00  0.00    +0.000 Cl
ATOM      8  C   UNL     1       1.894   9.311  18.879  0.00  0.00    +0.000 A 
ATOM      9 CL   UNL     1       2.125  10.709  17.885  0.00  0.00    +0.000 Cl
ATOM     10  C   UNL     1       2.645   8.163  18.556  0.00  0.00    +0.000 A 
ATOM     11  C   UNL     1       2.447   7.015  19.337  0.00  0.00    +0.000 A 
ENDROOT
BRANCH   2  12
ATOM     12  C   UNL     1       2.371   3.556  20.763  0.00  0.00    +0.000 C 
ATOM     13  C   UNL     1       3.447   2.592  20.296  0.00  0.00    +0.000 C 
ATOM     14  C   UNL     1       3.150   1.907  18.966  0.00  0.00    +0.000 C 
ATOM     15  N   UNL     1       1.781   1.436  18.789  0.00  0.00    +0.000 NA
ATOM     16  C   UNL     1       0.775   2.431  19.158  0.00  0.00    +0.000 C 
ATOM     17  C   UNL     1       0.977   2.928  20.581  0.00  0.00    +0.000 C 
ATOM     18  H   UNL     1       1.632   0.589  19.336  0.00  0.00    +0.000 HD
ENDBRANCH   2  12
BRANCH   1  19
ATOM     19  C   UNL     1       4.048   5.339  18.396  0.00  0.00    +0.000 C 
BRANCH  19  20
ATOM     20  C   UNL     1       5.306   4.801  19.099  0.00  0.00    +0.000 C 
BRANCH  20  21
ATOM     21  C   UNL     1       6.539   5.735  19.116  0.00  0.00    +0.000 C 
BRANCH  21  22
ATOM     22  C   UNL     1       6.449   6.985  18.230  0.00  0.00    +0.000 C 
BRANCH  22  23
ATOM     23  C   UNL     1       7.228   6.843  16.909  0.00  0.00    +0.000 C 
BRANCH  23  30
ATOM     24  O   UNL     1       4.981   6.918  14.973  0.00  0.00    +0.000 OA
ATOM     25  C   UNL     1       5.648   5.924  15.212  0.00  0.00    +0.000 C 
ATOM     26  C   UNL     1       5.439   4.627  14.558  0.00  0.00    +0.000 C 
ATOM     27  C   UNL     1       6.354   3.784  15.038  0.00  0.00    +0.000 C 
ATOM     28  C   UNL     1       7.179   4.520  16.007  0.00  0.00    +0.000 C 
ATOM     29  O   UNL     1       8.118   4.033  16.606  0.00  0.00    +0.000 OA
ATOM     30  N   UNL     1       6.685   5.781  16.071  0.00  0.00    +0.000 N 
ENDBRANCH  23  30
ENDBRANCH  22  23
ENDBRANCH  21  22
ENDBRANCH  20  21
ENDBRANCH  19  20
ENDBRANCH   1  19
TORSDOF 7
ENDMDL
MODEL 9
REMARK VINA RESULT:      -7.6      4.541      7.399
REMARK  Name = 
REMARK  7 active torsions:
REMARK  status: ('A' for Active; 'I' for Inactive)
REMARK    1  A    between atoms: N_7  and  C_8
REMARK    2  A    between atoms: C_8  and  C_9
REMARK    3  A    between atoms: C_9  and  C_10
REMARK    4  A    between atoms: C_10  and  C_11
REMARK    5  A    between atoms: C_11  and  C_12
REMARK    6  A    between atoms: C_12  and  N_13
REMARK    7  A    between atoms: C_14  and  C_15
REMARK                            x       y       z     vdW  Elec       q    Type
REMARK                         _______ _______ _______ _____ _____    ______ ____
ROOT
ATOM      1  N   UNL     1       0.140  10.788  18.587  0.00  0.00    +0.000 N 
ATOM      2  C   UNL     1      -1.140  10.951  18.063  0.00  0.00    +0.000 A 
ATOM      3  N   UNL     1      -1.468  12.235  18.077  0.00  0.00    +0.000 NA
ATOM      4  C   UNL     1      -0.396  12.927  18.523  0.00  0.00    +0.000 A 
ATOM      5  C   UNL     1      -0.255  14.316  18.651  0.00  0.00    +0.000 A 
ATOM      6  C   UNL     1       0.957  14.822  19.119  0.00  0.00    +0.000 A 
ATOM      7 CL   UNL     1       1.109  16.543  19.227  0.00  0.00    +0.000 Cl
ATOM      8  C   UNL     1       1.999  13.952  19.470  0.00  0.00    +0.000 A 
ATOM      9 CL   UNL     1       3.520  14.539  20.050  0.00  0.00    +0.000 Cl
ATOM     10  C   UNL     1       1.852  12.555  19.354  0.00  0.00    +0.000 A 
ATOM     11  C   UNL     1       0.635  12.067  18.860  0.00  0.00    +0.000 A 
ENDROOT
BRANCH   2  12
ATOM     12  C   UNL     1      -2.159  10.002  17.469  0.00  0.00    +0.000 C 
ATOM     13  C   UNL     1      -2.312   9.816  15.970  0.00  0.00    +0.000 C 
ATOM     14  C   UNL     1      -3.252  10.813  15.301  0.00  0.00    +0.000 C 
ATOM     15  N   UNL     1      -4.492  11.091  16.017  0.00  0.00    +0.000 NA
ATOM     16  C   UNL     1      -4.289  11.361  17.440  0.00  0.00    +0.000 C 
ATOM     17  C   UNL     1      -3.534  10.230  18.121  0.00  0.00    +0.000 C 
ATOM     18  H   UNL     1      -5.136  10.309  15.913  0.00  0.00    +0.000 HD
ENDBRANCH   2  12
BRANCH   1  19
ATOM     19  C   UNL     1       0.886   9.578  18.933  0.00  0.00    +0.000 C 
BRANCH  19  20
ATOM     20  C   UNL     1       1.881   9.126  17.851  0.00  0.00    +0.000 C 
BRANCH  20  21
ATOM     21  C   UNL     1       2.286   7.633  17.868  0.00  0.00    +0.000 C 
BRANCH  21  22
ATOM     22  C   UNL     1       2.440   6.993  19.255  0.00  0.00    +0.000 C 
BRANCH  22  23
ATOM     23  C   UNL     1       3.173   5.640  19.214  0.00  0.00    +0.000 C 
BRANCH  23  30
ATOM     24  O   UNL     1       2.459   4.299  21.763  0.00  0.00    +0.000 OA
ATOM     25  C   UNL     1       2.008   3.985  20.673  0.00  0.00    +0.000 C 
ATOM     26  C   UNL     1       1.033   2.907  20.475  0.00  0.00    +0.000 C 
ATOM     27  C   UNL     1       0.748   2.858  19.173  0.00  0.00    +0.000 C 
ATOM     28  C   UNL     1       1.526   3.910  18.503  0.00  0.00    +0.000 C 
ATOM     29  O   UNL     1       1.470   4.139  17.310  0.00  0.00    +0.000 OA
ATOM     30  N   UNL     1       2.267   4.524  19.458  0.00  0.00    +0.000 N 
ENDBRANCH  23  30
ENDBRANCH  22  23
ENDBRANCH  21  22
ENDBRANCH  20  21
ENDBRANCH  19  20
ENDBRANCH   1  19
TORSDOF 7
ENDMDL
