MODEL 1
REMARK VINA RESULT:      -6.7      0.000      0.000
REMARK  Name = 
REMARK  2 active torsions:
REMARK  status: ('A' for Active; 'I' for Inactive)
REMARK    1  A    between atoms: C_1  and  N_2
REMARK    2  A    between atoms: C_5  and  C_6
REMARK                            x       y       z     vdW  Elec       q    Type
REMARK                         _______ _______ _______ _____ _____    ______ ____
ROOT
ATOM      1  C   UNL     1       7.641   7.739  17.549  0.00  0.00    +0.000 C 
ATOM      2  N   UNL     1       7.596   6.287  17.536  0.00  0.00    +0.000 NA
ATOM      3  C   UNL     1       7.256   5.697  18.826  0.00  0.00    +0.000 C 
ATOM      4  C   UNL     1       5.925   5.020  18.943  0.00  0.00    +0.000 C 
ATOM      5  C   UNL     1       5.122   4.770  17.901  0.00  0.00    +0.000 C 
ATOM      6  C   UNL     1       5.500   5.165  16.508  0.00  0.00    +0.000 C 
ATOM      7  C   UNL     1       6.934   5.717  16.363  0.00  0.00    +0.000 C 
ENDROOT
BRANCH   5   8
ATOM      8  C   UNL     1       3.847   4.069  18.096  0.00  0.00    +0.000 A 
ATOM      9  C   UNL     1       3.828   2.737  18.527  0.00  0.00    +0.000 A 
ATOM     10  C   UNL     1       2.614   2.067  18.699  0.00  0.00    +0.000 A 
ATOM     11  C   UNL     1       1.421   2.732  18.438  0.00  0.00    +0.000 A 
ATOM     12  F   UNL     1       0.254   2.090  18.600  0.00  0.00    +0.000 F 
ATOM     13  C   UNL     1       1.418   4.052  18.003  0.00  0.00    +0.000 A 
ATOM     14  C   UNL     1       2.636   4.723  17.831  0.00  0.00    +0.000 A 
ENDBRANCH   5   8
TORSDOF 1
ENDMDL
MODEL 2
REMARK VINA RESULT:      -6.6      3.363      5.890
REMARK  Name = 
REMARK  2 active torsions:
REMARK  status: ('A' for Active; 'I' for Inactive)
REMARK    1  A    between atoms: C_1  and  N_2
REMARK    2  A    between atoms: C_5  and  C_6
REMARK                            x       y       z     vdW  Elec       q    Type
REMARK                         _______ _______ _______ _____ _____    ______ ____
ROOT
ATOM      1  C   UNL     1       0.786   2.468  19.154  0.00  0.00    +0.000 C 
ATOM      2  N   UNL     1       1.483   2.881  17.949  0.00  0.00    +0.000 NA
ATOM      3  C   UNL     1       1.448   4.320  17.712  0.00  0.00    +0.000 C 
ATOM      4  C   UNL     1       2.736   5.071  17.852  0.00  0.00    +0.000 C 
ATOM      5  C   UNL     1       3.931   4.483  17.999  0.00  0.00    +0.000 C 
ATOM      6  C   UNL     1       4.069   2.993  18.043  0.00  0.00    +0.000 C 
ATOM      7  C   UNL     1       2.770   2.217  17.742  0.00  0.00    +0.000 C 
ENDROOT
BRANCH   5   8
ATOM      8  C   UNL     1       5.152   5.291  18.094  0.00  0.00    +0.000 A 
ATOM      9  C   UNL     1       5.364   6.362  17.217  0.00  0.00    +0.000 A 
ATOM     10  C   UNL     1       6.533   7.121  17.299  0.00  0.00    +0.000 A 
ATOM     11  C   UNL     1       7.489   6.808  18.259  0.00  0.00    +0.000 A 
ATOM     12  F   UNL     1       8.613   7.535  18.340  0.00  0.00    +0.000 F 
ATOM     13  C   UNL     1       7.300   5.746  19.136  0.00  0.00    +0.000 A 
ATOM     14  C   UNL     1       6.127   4.984  19.052  0.00  0.00    +0.000 A 
ENDBRANCH   5   8
TORSDOF 1
ENDMDL
MODEL 3
REMARK VINA RESULT:      -6.6      3.361      5.776
REMARK  Name = 
REMARK  2 active torsions:
REMARK  status: ('A' for Active; 'I' for Inactive)
REMARK    1  A    between atoms: C_1  and  N_2
REMARK    2  A    between atoms: C_5  and  C_6
REMARK                            x       y       z     vdW  Elec       q    Type
REMARK                         _______ _______ _______ _____ _____    ______ ____
ROOT
ATOM      1  C   UNL     1       0.728   2.602  19.261  0.00  0.00    +0.000 C 
ATOM      2  N   UNL     1       1.471   2.896  18.048  0.00  0.00    +0.000 NA
ATOM      3  C   UNL     1       1.470   4.309  17.685  0.00  0.00    +0.000 C 
ATOM      4  C   UNL     1       2.766   5.050  17.802  0.00  0.00    +0.000 C 
ATOM      5  C   UNL     1       3.944   4.458  18.039  0.00  0.00    +0.000 C 
ATOM      6  C   UNL     1       4.054   2.976  18.218  0.00  0.00    +0.000 C 
ATOM      7  C   UNL     1       2.752   2.197  17.943  0.00  0.00    +0.000 C 
ENDROOT
BRANCH   5   8
ATOM      8  C   UNL     1       5.177   5.253  18.103  0.00  0.00    +0.000 A 
ATOM      9  C   UNL     1       6.173   4.943  19.036  0.00  0.00    +0.000 A 
ATOM     10  C   UNL     1       7.339   5.709  19.106  0.00  0.00    +0.000 A 
ATOM     11  C   UNL     1       7.506   6.784  18.240  0.00  0.00    +0.000 A 
ATOM     12  F   UNL     1       8.625   7.522  18.306  0.00  0.00    +0.000 F 
ATOM     13  C   UNL     1       6.527   7.112  17.310  0.00  0.00    +0.000 A 
ATOM     14  C   UNL     1       5.357   6.343  17.242  0.00  0.00    +0.000 A 
ENDBRANCH   5   8
TORSDOF 1
ENDMDL
MODEL 4
REMARK VINA RESULT:      -6.5      0.524      1.354
REMARK  Name = 
REMARK  2 active torsions:
REMARK  status: ('A' for Active; 'I' for Inactive)
REMARK    1  A    between atoms: C_1  and  N_2
REMARK    2  A    between atoms: C_5  and  C_6
REMARK                            x       y       z     vdW  Elec       q    Type
REMARK                         _______ _______ _______ _____ _____    ______ ____
ROOT
ATOM      1  C   UNL     1       7.656   7.680  17.474  0.00  0.00    +0.000 C 
ATOM      2  N   UNL     1       7.471   6.317  17.006  0.00  0.00    +0.000 NA
ATOM      3  C   UNL     1       7.402   5.331  18.079  0.00  0.00    +0.000 C 
ATOM      4  C   UNL     1       6.081   4.665  18.316  0.00  0.00    +0.000 C 
ATOM      5  C   UNL     1       5.027   4.786  17.498  0.00  0.00    +0.000 C 
ATOM      6  C   UNL     1       5.090   5.623  16.259  0.00  0.00    +0.000 C 
ATOM      7  C   UNL     1       6.491   6.179  15.929  0.00  0.00    +0.000 C 
ENDROOT
BRANCH   5   8
ATOM      8  C   UNL     1       3.778   4.071  17.784  0.00  0.00    +0.000 A 
ATOM      9  C   UNL     1       2.594   4.780  18.025  0.00  0.00    +0.000 A 
ATOM     10  C   UNL     1       1.409   4.099  18.311  0.00  0.00    +0.000 A 
ATOM     11  C   UNL     1       1.409   2.709  18.355  0.00  0.00    +0.000 A 
ATOM     12  F   UNL     1       0.272   2.053  18.631  0.00  0.00    +0.000 F 
ATOM     13  C   UNL     1       2.575   1.987  18.124  0.00  0.00    +0.000 A 
ATOM     14  C   UNL     1       3.764   2.671  17.838  0.00  0.00    +0.000 A 
ENDBRANCH   5   8
TORSDOF 1
ENDMDL
MODEL 5
REMARK VINA RESULT:      -6.5      3.504      5.590
REMARK  Name = 
REMARK  2 active torsions:
REMARK  status: ('A' for Active; 'I' for Inactive)
REMARK    1  A    between atoms: C_1  and  N_2
REMARK    2  A    between atoms: C_5  and  C_6
REMARK                            x       y       z     vdW  Elec       q    Type
REMARK                         _______ _______ _______ _____ _____    ______ ____
ROOT
ATOM      1  C   UNL     1       1.402   2.849  21.630  0.00  0.00    +0.000 C 
ATOM      2  N   UNL     1       1.066   3.695  20.498  0.00  0.00    +0.000 NA
ATOM      3  C   UNL     1       1.763   4.976  20.492  0.00  0.00    +0.000 C 
ATOM      4  C   UNL     1       2.795   5.192  19.428  0.00  0.00    +0.000 C 
ATOM      5  C   UNL     1       2.981   4.366  18.391  0.00  0.00    +0.000 C 
ATOM      6  C   UNL     1       2.156   3.129  18.217  0.00  0.00    +0.000 C 
ATOM      7  C   UNL     1       0.992   2.987  19.220  0.00  0.00    +0.000 C 
ENDROOT
BRANCH   5   8
ATOM      8  C   UNL     1       3.991   4.669  17.370  0.00  0.00    +0.000 A 
ATOM      9  C   UNL     1       4.284   5.995  17.033  0.00  0.00    +0.000 A 
ATOM     10  C   UNL     1       5.236   6.282  16.051  0.00  0.00    +0.000 A 
ATOM     11  C   UNL     1       5.892   5.239  15.408  0.00  0.00    +0.000 A 
ATOM     12  F   UNL     1       6.806   5.511  14.463  0.00  0.00    +0.000 F 
ATOM     13  C   UNL     1       5.612   3.914  15.724  0.00  0.00    +0.000 A 
ATOM     14  C   UNL     1       4.656   3.628  16.708  0.00  0.00    +0.000 A 
ENDBRANCH   5   8
TORSDOF 1
ENDMDL
MODEL 6
REMARK VINA RESULT:      -6.4      3.513      5.510
REMARK  Name = 
REMARK  2 active torsions:
REMARK  status: ('A' for Active; 'I' for Inactive)
REMARK    1  A    between atoms: C_1  and  N_2
REMARK    2  A    between atoms: C_5  and  C_6
REMARK                            x       y       z     vdW  Elec       q    Type
REMARK                         _______ _______ _______ _____ _____    ______ ____
ROOT
ATOM      1  C   UNL     1       1.326   2.738  21.660  0.00  0.00    +0.000 C 
ATOM      2  N   UNL     1       0.949   3.503  20.483  0.00  0.00    +0.000 NA
ATOM      3  C   UNL     1       1.528   4.841  20.441  0.00  0.00    +0.000 C 
ATOM      4  C   UNL     1       2.568   5.106  19.396  0.00  0.00    +0.000 C 
ATOM      5  C   UNL     1       2.858   4.259  18.400  0.00  0.00    +0.000 C 
ATOM      6  C   UNL     1       2.153   2.946  18.259  0.00  0.00    +0.000 C 
ATOM      7  C   UNL     1       0.977   2.739  19.236  0.00  0.00    +0.000 C 
ENDROOT
BRANCH   5   8
ATOM      8  C   UNL     1       3.868   4.610  17.394  0.00  0.00    +0.000 A 
ATOM      9  C   UNL     1       4.543   3.609  16.687  0.00  0.00    +0.000 A 
ATOM     10  C   UNL     1       5.514   3.944  15.740  0.00  0.00    +0.000 A 
ATOM     11  C   UNL     1       5.806   5.282  15.502  0.00  0.00    +0.000 A 
ATOM     12  F   UNL     1       6.739   5.607  14.594  0.00  0.00    +0.000 F 
ATOM     13  C   UNL     1       5.151   6.292  16.198  0.00  0.00    +0.000 A 
ATOM     14  C   UNL     1       4.178   5.954  17.148  0.00  0.00    +0.000 A 
ENDBRANCH   5   8
TORSDOF 1
ENDMDL
MODEL 7
REMARK VINA RESULT:      -6.3      2.018      2.824
REMARK  Name = 
REMARK  2 active torsions:
REMARK  status: ('A' for Active; 'I' for Inactive)
REMARK    1  A    between atoms: C_1  and  N_2
REMARK    2  A    between atoms: C_5  and  C_6
REMARK                            x       y       z     vdW  Elec       q    Type
REMARK                         _______ _______ _______ _____ _____    ______ ____
ROOT
ATOM      1  C   UNL     1       7.141   5.380  16.014  0.00  0.00    +0.000 C 
ATOM      2  N   UNL     1       5.694   5.492  15.952  0.00  0.00    +0.000 NA
ATOM      3  C   UNL     1       5.009   4.211  15.814  0.00  0.00    +0.000 C 
ATOM      4  C   UNL     1       4.203   3.734  16.982  0.00  0.00    +0.000 C 
ATOM      5  C   UNL     1       3.929   4.486  18.057  0.00  0.00    +0.000 C 
ATOM      6  C   UNL     1       4.429   5.892  18.176  0.00  0.00    +0.000 C 
ATOM      7  C   UNL     1       5.123   6.437  16.911  0.00  0.00    +0.000 C 
ENDROOT
BRANCH   5   8
ATOM      8  C   UNL     1       3.100   3.955  19.145  0.00  0.00    +0.000 A 
ATOM      9  C   UNL     1       1.751   4.312  19.249  0.00  0.00    +0.000 A 
ATOM     10  C   UNL     1       0.966   3.817  20.293  0.00  0.00    +0.000 A 
ATOM     11  C   UNL     1       1.535   2.965  21.233  0.00  0.00    +0.000 A 
ATOM     12  F   UNL     1       0.784   2.489  22.238  0.00  0.00    +0.000 F 
ATOM     13  C   UNL     1       2.874   2.602  21.151  0.00  0.00    +0.000 A 
ATOM     14  C   UNL     1       3.660   3.100  20.104  0.00  0.00    +0.000 A 
ENDBRANCH   5   8
TORSDOF 1
ENDMDL
MODEL 8
REMARK VINA RESULT:      -6.3      3.595      5.896
REMARK  Name = 
REMARK  2 active torsions:
REMARK  status: ('A' for Active; 'I' for Inactive)
REMARK    1  A    between atoms: C_1  and  N_2
REMARK    2  A    between atoms: C_5  and  C_6
REMARK                            x       y       z     vdW  Elec       q    Type
REMARK                         _______ _______ _______ _____ _____    ______ ____
ROOT
ATOM      1  C   UNL     1       1.461   2.567  21.619  0.00  0.00    +0.000 C 
ATOM      2  N   UNL     1       1.344   3.305  20.373  0.00  0.00    +0.000 NA
ATOM      3  C   UNL     1       1.491   4.749  20.528  0.00  0.00    +0.000 C 
ATOM      4  C   UNL     1       2.720   5.380  19.951  0.00  0.00    +0.000 C 
ATOM      5  C   UNL     1       3.587   4.738  19.158  0.00  0.00    +0.000 C 
ATOM      6  C   UNL     1       3.390   3.301  18.785  0.00  0.00    +0.000 C 
ATOM      7  C   UNL     1       2.048   2.695  19.245  0.00  0.00    +0.000 C 
ENDROOT
BRANCH   5   8
ATOM      8  C   UNL     1       4.750   5.440  18.604  0.00  0.00    +0.000 A 
ATOM      9  C   UNL     1       4.614   6.262  17.479  0.00  0.00    +0.000 A 
ATOM     10  C   UNL     1       5.725   6.919  16.945  0.00  0.00    +0.000 A 
ATOM     11  C   UNL     1       6.972   6.750  17.537  0.00  0.00    +0.000 A 
ATOM     12  F   UNL     1       8.041   7.378  17.025  0.00  0.00    +0.000 F 
ATOM     13  C   UNL     1       7.130   5.934  18.651  0.00  0.00    +0.000 A 
ATOM     14  C   UNL     1       6.014   5.275  19.186  0.00  0.00    +0.000 A 
ENDBRANCH   5   8
TORSDOF 1
ENDMDL
MODEL 9
REMARK VINA RESULT:      -6.3      1.859      2.249
REMARK  Name = 
REMARK  2 active torsions:
REMARK  status: ('A' for Active; 'I' for Inactive)
REMARK    1  A    between atoms: C_1  and  N_2
REMARK    2  A    between atoms: C_5  and  C_6
REMARK                            x       y       z     vdW  Elec       q    Type
REMARK                         _______ _______ _______ _____ _____    ______ ____
ROOT
ATOM      1  C   UNL     1       7.700   7.874  17.661  0.00  0.00    +0.000 C 
ATOM      2  N   UNL     1       7.033   6.684  17.163  0.00  0.00    +0.000 NA
ATOM      3  C   UNL     1       7.332   5.477  17.926  0.00  0.00    +0.000 C 
ATOM      4  C   UNL     1       6.222   4.885  18.738  0.00  0.00    +0.000 C 
ATOM      5  C   UNL     1       4.946   5.285  18.661  0.00  0.00    +0.000 C 
ATOM      6  C   UNL     1       4.526   6.388  17.740  0.00  0.00    +0.000 C 
ATOM      7  C   UNL     1       5.633   6.890  16.791  0.00  0.00    +0.000 C 
ENDROOT
BRANCH   5   8
ATOM      8  C   UNL     1       3.910   4.628  19.466  0.00  0.00    +0.000 A 
ATOM      9  C   UNL     1       2.864   5.374  20.023  0.00  0.00    +0.000 A 
ATOM     10  C   UNL     1       1.887   4.749  20.801  0.00  0.00    +0.000 A 
ATOM     11  C   UNL     1       1.957   3.378  21.021  0.00  0.00    +0.000 A 
ATOM     12  F   UNL     1       1.021   2.776  21.769  0.00  0.00    +0.000 F 
ATOM     13  C   UNL     1       2.990   2.620  20.481  0.00  0.00    +0.000 A 
ATOM     14  C   UNL     1       3.971   3.248  19.702  0.00  0.00    +0.000 A 
ENDBRANCH   5   8
TORSDOF 1
ENDMDL
