MODEL 1
REMARK VINA RESULT:      -7.5      0.000      0.000
REMARK  Name = 
REMARK  8 active torsions:
REMARK  status: ('A' for Active; 'I' for Inactive)
REMARK    1  A    between atoms: C_1  and  C_2
REMARK    2  A    between atoms: C_2  and  C_3
REMARK    3  A    between atoms: C_3  and  C_4
REMARK    4  A    between atoms: C_3  and  N_11
REMARK    5  A    between atoms: C_4  and  C_5
REMARK    6  A    between atoms: N_11  and  S_12
REMARK    7  A    between atoms: S_12  and  C_15
REMARK    8  A    between atoms: C_24  and  C_25
REMARK                            x       y       z     vdW  Elec       q    Type
REMARK                         _______ _______ _______ _____ _____    ______ ____
ROOT
ATOM      1  S   UNL     1       4.907   6.713  17.174  0.00  0.00    +0.000 S 
ATOM      2  O   UNL     1       6.056   7.316  17.812  0.00  0.00    +0.000 OA
ATOM      3  O   UNL     1       4.663   6.950  15.759  0.00  0.00    +0.000 OA
ENDROOT
BRANCH   1   4
ATOM      4  C   UNL     1       3.460   7.199  18.074  0.00  0.00    +0.000 A 
ATOM      5  C   UNL     1       3.046   6.577  19.264  0.00  0.00    +0.000 A 
ATOM      6  C   UNL     1       2.087   7.216  20.086  0.00  0.00    +0.000 A 
ATOM      7  C   UNL     1       1.510   8.421  19.657  0.00  0.00    +0.000 A 
ATOM      8  C   UNL     1       1.726   8.798  18.325  0.00  0.00    +0.000 A 
ATOM      9  C   UNL     1       2.754   8.272  17.571  0.00  0.00    +0.000 A 
ATOM     10  N   UNL     1       1.034   9.887  17.772  0.00  0.00    +0.000 N 
ATOM     11  C   UNL     1       1.380  11.009  18.498  0.00  0.00    +0.000 C 
ATOM     12  O   UNL     1       2.440  11.603  18.337  0.00  0.00    +0.000 OA
ATOM     13  C   UNL     1       0.459  11.160  19.690  0.00  0.00    +0.000 C 
ATOM     14  C   UNL     1       0.566  12.611  20.160  0.00  0.00    +0.000 C 
ATOM     15  S   UNL     1       0.809   9.667  20.830  0.00  0.00    +0.000 S 
ATOM     16  H   UNL     1       0.040   9.709  17.896  0.00  0.00    +0.000 HD
ENDBRANCH   1   4
BRANCH   1  17
ATOM     17  N   UNL     1       5.017   5.064  17.488  0.00  0.00    +0.000 NA
ATOM     18  H   UNL     1       5.541   4.818  18.328  0.00  0.00    +0.000 HD
BRANCH  17  19
ATOM     19  C   UNL     1       4.615   4.001  16.543  0.00  0.00    +0.000 C 
BRANCH  19  21
ATOM     20  C   UNL     1       5.764   4.077  14.232  0.00  0.00    +0.000 C 
ATOM     21  C   UNL     1       5.839   3.649  15.682  0.00  0.00    +0.000 C 
ENDBRANCH  19  21
BRANCH  19  22
ATOM     22  C   UNL     1       4.075   2.751  17.312  0.00  0.00    +0.000 C 
BRANCH  22  23
ATOM     23  C   UNL     1       3.136   2.965  18.489  0.00  0.00    +0.000 A 
ATOM     24  C   UNL     1       3.560   2.888  19.820  0.00  0.00    +0.000 A 
ATOM     25  C   UNL     1       2.646   3.054  20.868  0.00  0.00    +0.000 A 
ATOM     26  C   UNL     1       1.304   3.311  20.611  0.00  0.00    +0.000 A 
ATOM     27  C   UNL     1       0.883   3.467  19.299  0.00  0.00    +0.000 A 
ATOM     28  C   UNL     1       1.794   3.313  18.245  0.00  0.00    +0.000 A 
ENDBRANCH  22  23
ENDBRANCH  19  22
ENDBRANCH  17  19
ENDBRANCH   1  17
TORSDOF 6
ENDMDL
MODEL 2
REMARK VINA RESULT:      -7.4      1.133      1.342
REMARK  Name = 
REMARK  8 active torsions:
REMARK  status: ('A' for Active; 'I' for Inactive)
REMARK    1  A    between atoms: C_1  and  C_2
REMARK    2  A    between atoms: C_2  and  C_3
REMARK    3  A    between atoms: C_3  and  C_4
REMARK    4  A    between atoms: C_3  and  N_11
REMARK    5  A    between atoms: C_4  and  C_5
REMARK    6  A    between atoms: N_11  and  S_12
REMARK    7  A    between atoms: S_12  and  C_15
REMARK    8  A    between atoms: C_24  and  C_25
REMARK                            x       y       z     vdW  Elec       q    Type
REMARK                         _______ _______ _______ _____ _____    ______ ____
ROOT
ATOM      1  S   UNL     1       6.171   6.259  17.546  0.00  0.00    +0.000 S 
ATOM      2  O   UNL     1       7.135   6.153  18.618  0.00  0.00    +0.000 OA
ATOM      3  O   UNL     1       6.330   7.294  16.535  0.00  0.00    +0.000 OA
ENDROOT
BRANCH   1   4
ATOM      4  C   UNL     1       4.563   6.433  18.268  0.00  0.00    +0.000 A 
ATOM      5  C   UNL     1       4.169   5.777  19.447  0.00  0.00    +0.000 A 
ATOM      6  C   UNL     1       3.007   6.209  20.130  0.00  0.00    +0.000 A 
ATOM      7  C   UNL     1       2.226   7.234  19.574  0.00  0.00    +0.000 A 
ATOM      8  C   UNL     1       2.498   7.601  18.249  0.00  0.00    +0.000 A 
ATOM      9  C   UNL     1       3.694   7.297  17.634  0.00  0.00    +0.000 A 
ATOM     10  N   UNL     1       1.645   8.482  17.566  0.00  0.00    +0.000 N 
ATOM     11  C   UNL     1       1.649   9.679  18.253  0.00  0.00    +0.000 C 
ATOM     12  O   UNL     1       2.561  10.493  18.162  0.00  0.00    +0.000 OA
ATOM     13  C   UNL     1       0.593   9.659  19.338  0.00  0.00    +0.000 C 
ATOM     14  C   UNL     1       0.320  11.112  19.726  0.00  0.00    +0.000 C 
ATOM     15  S   UNL     1       1.141   8.328  20.594  0.00  0.00    +0.000 S 
ATOM     16  H   UNL     1       0.709   8.086  17.602  0.00  0.00    +0.000 HD
ENDBRANCH   1   4
BRANCH   1  17
ATOM     17  N   UNL     1       6.106   4.737  16.832  0.00  0.00    +0.000 NA
ATOM     18  H   UNL     1       6.979   4.210  16.858  0.00  0.00    +0.000 HD
BRANCH  17  19
ATOM     19  C   UNL     1       4.982   4.243  16.010  0.00  0.00    +0.000 C 
BRANCH  19  21
ATOM     20  C   UNL     1       6.875   4.622  14.296  0.00  0.00    +0.000 C 
ATOM     21  C   UNL     1       5.486   4.084  14.567  0.00  0.00    +0.000 C 
ENDBRANCH  19  21
BRANCH  19  22
ATOM     22  C   UNL     1       4.432   2.893  16.578  0.00  0.00    +0.000 C 
BRANCH  22  23
ATOM     23  C   UNL     1       3.302   2.933  17.595  0.00  0.00    +0.000 A 
ATOM     24  C   UNL     1       3.355   2.247  18.813  0.00  0.00    +0.000 A 
ATOM     25  C   UNL     1       2.271   2.285  19.699  0.00  0.00    +0.000 A 
ATOM     26  C   UNL     1       1.126   3.012  19.395  0.00  0.00    +0.000 A 
ATOM     27  C   UNL     1       1.089   3.760  18.227  0.00  0.00    +0.000 A 
ATOM     28  C   UNL     1       2.175   3.737  17.341  0.00  0.00    +0.000 A 
ENDBRANCH  22  23
ENDBRANCH  19  22
ENDBRANCH  17  19
ENDBRANCH   1  17
TORSDOF 6
ENDMDL
MODEL 3
REMARK VINA RESULT:      -7.2      3.224      6.295
REMARK  Name = 
REMARK  8 active torsions:
REMARK  status: ('A' for Active; 'I' for Inactive)
REMARK    1  A    between atoms: C_1  and  C_2
REMARK    2  A    between atoms: C_2  and  C_3
REMARK    3  A    between atoms: C_3  and  C_4
REMARK    4  A    between atoms: C_3  and  N_11
REMARK    5  A    between atoms: C_4  and  C_5
REMARK    6  A    between atoms: N_11  and  S_12
REMARK    7  A    between atoms: S_12  and  C_15
REMARK    8  A    between atoms: C_24  and  C_25
REMARK                            x       y       z     vdW  Elec       q    Type
REMARK                         _______ _______ _______ _____ _____    ______ ____
ROOT
ATOM      1  S   UNL     1       3.289   2.199  18.153  0.00  0.00    +0.000 S 
ATOM      2  O   UNL     1       4.072   1.037  18.504  0.00  0.00    +0.000 OA
ATOM      3  O   UNL     1       2.115   2.047  17.306  0.00  0.00    +0.000 OA
ENDROOT
BRANCH   1   4
ATOM      4  C   UNL     1       4.368   3.382  17.396  0.00  0.00    +0.000 A 
ATOM      5  C   UNL     1       3.981   4.206  16.325  0.00  0.00    +0.000 A 
ATOM      6  C   UNL     1       4.772   5.333  15.993  0.00  0.00    +0.000 A 
ATOM      7  C   UNL     1       5.969   5.560  16.689  0.00  0.00    +0.000 A 
ATOM      8  C   UNL     1       6.446   4.523  17.503  0.00  0.00    +0.000 A 
ATOM      9  C   UNL     1       5.631   3.499  17.939  0.00  0.00    +0.000 A 
ATOM     10  N   UNL     1       7.722   4.601  18.081  0.00  0.00    +0.000 N 
ATOM     11  C   UNL     1       7.735   5.708  18.907  0.00  0.00    +0.000 C 
ATOM     12  O   UNL     1       7.230   5.708  20.024  0.00  0.00    +0.000 OA
ATOM     13  C   UNL     1       8.128   6.939  18.119  0.00  0.00    +0.000 C 
ATOM     14  C   UNL     1       8.582   7.993  19.128  0.00  0.00    +0.000 C 
ATOM     15  S   UNL     1       6.724   7.239  16.858  0.00  0.00    +0.000 S 
ATOM     16  H   UNL     1       8.388   4.747  17.327  0.00  0.00    +0.000 HD
ENDBRANCH   1   4
BRANCH   1  17
ATOM     17  N   UNL     1       2.877   2.934  19.609  0.00  0.00    +0.000 NA
ATOM     18  H   UNL     1       3.087   2.387  20.444  0.00  0.00    +0.000 HD
BRANCH  17  19
ATOM     19  C   UNL     1       2.063   4.162  19.729  0.00  0.00    +0.000 C 
BRANCH  19  21
ATOM     20  C   UNL     1       1.295   2.721  21.729  0.00  0.00    +0.000 C 
ATOM     21  C   UNL     1       1.076   3.962  20.890  0.00  0.00    +0.000 C 
ENDBRANCH  19  21
BRANCH  19  22
ATOM     22  C   UNL     1       2.975   5.411  19.959  0.00  0.00    +0.000 C 
BRANCH  22  23
ATOM     23  C   UNL     1       2.464   6.778  19.532  0.00  0.00    +0.000 A 
ATOM     24  C   UNL     1       1.760   7.627  20.393  0.00  0.00    +0.000 A 
ATOM     25  C   UNL     1       1.276   8.861  19.938  0.00  0.00    +0.000 A 
ATOM     26  C   UNL     1       1.495   9.273  18.629  0.00  0.00    +0.000 A 
ATOM     27  C   UNL     1       2.256   8.478  17.785  0.00  0.00    +0.000 A 
ATOM     28  C   UNL     1       2.753   7.248  18.236  0.00  0.00    +0.000 A 
ENDBRANCH  22  23
ENDBRANCH  19  22
ENDBRANCH  17  19
ENDBRANCH   1  17
TORSDOF 6
ENDMDL
MODEL 4
REMARK VINA RESULT:      -7.2      0.519      1.158
REMARK  Name = 
REMARK  8 active torsions:
REMARK  status: ('A' for Active; 'I' for Inactive)
REMARK    1  A    between atoms: C_1  and  C_2
REMARK    2  A    between atoms: C_2  and  C_3
REMARK    3  A    between atoms: C_3  and  C_4
REMARK    4  A    between atoms: C_3  and  N_11
REMARK    5  A    between atoms: C_4  and  C_5
REMARK    6  A    between atoms: N_11  and  S_12
REMARK    7  A    between atoms: S_12  and  C_15
REMARK    8  A    between atoms: C_24  and  C_25
REMARK                            x       y       z     vdW  Elec       q    Type
REMARK                         _______ _______ _______ _____ _____    ______ ____
ROOT
ATOM      1  S   UNL     1       4.558   6.871  17.311  0.00  0.00    +0.000 S 
ATOM      2  O   UNL     1       5.741   7.485  17.868  0.00  0.00    +0.000 OA
ATOM      3  O   UNL     1       4.258   7.040  15.896  0.00  0.00    +0.000 OA
ENDROOT
BRANCH   1   4
ATOM      4  C   UNL     1       3.158   7.427  18.243  0.00  0.00    +0.000 A 
ATOM      5  C   UNL     1       2.751   6.837  19.452  0.00  0.00    +0.000 A 
ATOM      6  C   UNL     1       1.842   7.525  20.291  0.00  0.00    +0.000 A 
ATOM      7  C   UNL     1       1.303   8.747  19.861  0.00  0.00    +0.000 A 
ATOM      8  C   UNL     1       1.497   9.099  18.518  0.00  0.00    +0.000 A 
ATOM      9  C   UNL     1       2.482   8.521  17.744  0.00  0.00    +0.000 A 
ATOM     10  N   UNL     1       0.835  10.208  17.970  0.00  0.00    +0.000 N 
ATOM     11  C   UNL     1       1.246  11.324  18.671  0.00  0.00    +0.000 C 
ATOM     12  O   UNL     1       2.325  11.872  18.474  0.00  0.00    +0.000 OA
ATOM     13  C   UNL     1       0.365  11.527  19.886  0.00  0.00    +0.000 C 
ATOM     14  C   UNL     1       0.544  12.978  20.332  0.00  0.00    +0.000 C 
ATOM     15  S   UNL     1       0.686  10.035  21.035  0.00  0.00    +0.000 S 
ATOM     16  H   UNL     1      -0.161  10.073  18.123  0.00  0.00    +0.000 HD
ENDBRANCH   1   4
BRANCH   1  17
ATOM     17  N   UNL     1       4.656   5.239  17.704  0.00  0.00    +0.000 NA
ATOM     18  H   UNL     1       5.020   5.040  18.637  0.00  0.00    +0.000 HD
BRANCH  17  19
ATOM     19  C   UNL     1       4.471   4.131  16.744  0.00  0.00    +0.000 C 
BRANCH  19  21
ATOM     20  C   UNL     1       7.037   4.405  16.805  0.00  0.00    +0.000 C 
ATOM     21  C   UNL     1       5.829   3.847  16.084  0.00  0.00    +0.000 C 
ENDBRANCH  19  21
BRANCH  19  22
ATOM     22  C   UNL     1       3.906   2.862  17.463  0.00  0.00    +0.000 C 
BRANCH  22  23
ATOM     23  C   UNL     1       2.955   3.047  18.635  0.00  0.00    +0.000 A 
ATOM     24  C   UNL     1       1.596   3.333  18.469  0.00  0.00    +0.000 A 
ATOM     25  C   UNL     1       0.769   3.534  19.582  0.00  0.00    +0.000 A 
ATOM     26  C   UNL     1       1.277   3.442  20.873  0.00  0.00    +0.000 A 
ATOM     27  C   UNL     1       2.605   3.083  21.055  0.00  0.00    +0.000 A 
ATOM     28  C   UNL     1       3.435   2.870  19.946  0.00  0.00    +0.000 A 
ENDBRANCH  22  23
ENDBRANCH  19  22
ENDBRANCH  17  19
ENDBRANCH   1  17
TORSDOF 6
ENDMDL
MODEL 5
REMARK VINA RESULT:      -7.1      0.972      1.401
REMARK  Name = 
REMARK  8 active torsions:
REMARK  status: ('A' for Active; 'I' for Inactive)
REMARK    1  A    between atoms: C_1  and  C_2
REMARK    2  A    between atoms: C_2  and  C_3
REMARK    3  A    between atoms: C_3  and  C_4
REMARK    4  A    between atoms: C_3  and  N_11
REMARK    5  A    between atoms: C_4  and  C_5
REMARK    6  A    between atoms: N_11  and  S_12
REMARK    7  A    between atoms: S_12  and  C_15
REMARK    8  A    between atoms: C_24  and  C_25
REMARK                            x       y       z     vdW  Elec       q    Type
REMARK                         _______ _______ _______ _____ _____    ______ ____
ROOT
ATOM      1  S   UNL     1       5.922   6.384  17.436  0.00  0.00    +0.000 S 
ATOM      2  O   UNL     1       6.941   6.634  18.428  0.00  0.00    +0.000 OA
ATOM      3  O   UNL     1       5.936   7.129  16.185  0.00  0.00    +0.000 OA
ENDROOT
BRANCH   1   4
ATOM      4  C   UNL     1       4.340   6.618  18.201  0.00  0.00    +0.000 A 
ATOM      5  C   UNL     1       3.956   5.978  19.391  0.00  0.00    +0.000 A 
ATOM      6  C   UNL     1       2.829   6.453  20.105  0.00  0.00    +0.000 A 
ATOM      7  C   UNL     1       2.071   7.505  19.568  0.00  0.00    +0.000 A 
ATOM      8  C   UNL     1       2.320   7.861  18.235  0.00  0.00    +0.000 A 
ATOM      9  C   UNL     1       3.487   7.512  17.588  0.00  0.00    +0.000 A 
ATOM     10  N   UNL     1       1.482   8.772  17.573  0.00  0.00    +0.000 N 
ATOM     11  C   UNL     1       1.548   9.969  18.257  0.00  0.00    +0.000 C 
ATOM     12  O   UNL     1       2.486  10.749  18.140  0.00  0.00    +0.000 OA
ATOM     13  C   UNL     1       0.521   9.989  19.370  0.00  0.00    +0.000 C 
ATOM     14  C   UNL     1       0.313  11.450  19.763  0.00  0.00    +0.000 C 
ATOM     15  S   UNL     1       1.054   8.640  20.614  0.00  0.00    +0.000 S 
ATOM     16  H   UNL     1       0.533   8.410  17.635  0.00  0.00    +0.000 HD
ENDBRANCH   1   4
BRANCH   1  17
ATOM     17  N   UNL     1       5.961   4.729  17.140  0.00  0.00    +0.000 NA
ATOM     18  H   UNL     1       6.679   4.215  17.652  0.00  0.00    +0.000 HD
BRANCH  17  19
ATOM     19  C   UNL     1       5.208   4.049  16.066  0.00  0.00    +0.000 C 
BRANCH  19  21
ATOM     20  C   UNL     1       5.625   3.827  13.527  0.00  0.00    +0.000 C 
ATOM     21  C   UNL     1       6.191   3.732  14.928  0.00  0.00    +0.000 C 
ENDBRANCH  19  21
BRANCH  19  22
ATOM     22  C   UNL     1       4.517   2.755  16.606  0.00  0.00    +0.000 C 
BRANCH  22  23
ATOM     23  C   UNL     1       3.387   2.894  17.614  0.00  0.00    +0.000 A 
ATOM     24  C   UNL     1       2.188   3.553  17.322  0.00  0.00    +0.000 A 
ATOM     25  C   UNL     1       1.194   3.688  18.299  0.00  0.00    +0.000 A 
ATOM     26  C   UNL     1       1.370   3.161  19.573  0.00  0.00    +0.000 A 
ATOM     27  C   UNL     1       2.520   2.438  19.855  0.00  0.00    +0.000 A 
ATOM     28  C   UNL     1       3.514   2.289  18.879  0.00  0.00    +0.000 A 
ENDBRANCH  22  23
ENDBRANCH  19  22
ENDBRANCH  17  19
ENDBRANCH   1  17
TORSDOF 6
ENDMDL
MODEL 6
REMARK VINA RESULT:      -7.1      2.844      4.299
REMARK  Name = 
REMARK  8 active torsions:
REMARK  status: ('A' for Active; 'I' for Inactive)
REMARK    1  A    between atoms: C_1  and  C_2
REMARK    2  A    between atoms: C_2  and  C_3
REMARK    3  A    between atoms: C_3  and  C_4
REMARK    4  A    between atoms: C_3  and  N_11
REMARK    5  A    between atoms: C_4  and  C_5
REMARK    6  A    between atoms: N_11  and  S_12
REMARK    7  A    between atoms: S_12  and  C_15
REMARK    8  A    between atoms: C_24  and  C_25
REMARK                            x       y       z     vdW  Elec       q    Type
REMARK                         _______ _______ _______ _____ _____    ______ ____
ROOT
ATOM      1  S   UNL     1       1.612   4.130  18.969  0.00  0.00    +0.000 S 
ATOM      2  O   UNL     1       0.798   3.901  17.797  0.00  0.00    +0.000 OA
ATOM      3  O   UNL     1       1.165   3.636  20.264  0.00  0.00    +0.000 OA
ENDROOT
BRANCH   1   4
ATOM      4  C   UNL     1       1.896   5.873  19.110  0.00  0.00    +0.000 A 
ATOM      5  C   UNL     1       2.252   6.688  18.023  0.00  0.00    +0.000 A 
ATOM      6  C   UNL     1       2.144   8.095  18.142  0.00  0.00    +0.000 A 
ATOM      7  C   UNL     1       1.758   8.651  19.371  0.00  0.00    +0.000 A 
ATOM      8  C   UNL     1       1.744   7.801  20.485  0.00  0.00    +0.000 A 
ATOM      9  C   UNL     1       1.708   6.427  20.359  0.00  0.00    +0.000 A 
ATOM     10  N   UNL     1       1.551   8.320  21.775  0.00  0.00    +0.000 N 
ATOM     11  C   UNL     1       0.308   8.921  21.797  0.00  0.00    +0.000 C 
ATOM     12  O   UNL     1      -0.735   8.285  21.898  0.00  0.00    +0.000 OA
ATOM     13  C   UNL     1       0.420  10.361  21.344  0.00  0.00    +0.000 C 
ATOM     14  C   UNL     1      -0.835  11.084  21.831  0.00  0.00    +0.000 C 
ATOM     15  S   UNL     1       0.945  10.306  19.508  0.00  0.00    +0.000 S 
ATOM     16  H   UNL     1       2.262   9.031  21.925  0.00  0.00    +0.000 HD
ENDBRANCH   1   4
BRANCH   1  17
ATOM     17  N   UNL     1       3.136   3.523  18.598  0.00  0.00    +0.000 NA
ATOM     18  H   UNL     1       3.208   3.057  17.693  0.00  0.00    +0.000 HD
BRANCH  17  19
ATOM     19  C   UNL     1       4.259   3.431  19.555  0.00  0.00    +0.000 C 
BRANCH  19  21
ATOM     20  C   UNL     1       3.978   0.980  18.792  0.00  0.00    +0.000 C 
ATOM     21  C   UNL     1       4.528   1.942  19.824  0.00  0.00    +0.000 C 
ENDBRANCH  19  21
BRANCH  19  22
ATOM     22  C   UNL     1       5.528   4.151  18.993  0.00  0.00    +0.000 C 
BRANCH  22  23
ATOM     23  C   UNL     1       5.501   4.674  17.565  0.00  0.00    +0.000 A 
ATOM     24  C   UNL     1       5.490   3.830  16.449  0.00  0.00    +0.000 A 
ATOM     25  C   UNL     1       5.505   4.363  15.154  0.00  0.00    +0.000 A 
ATOM     26  C   UNL     1       5.518   5.737  14.948  0.00  0.00    +0.000 A 
ATOM     27  C   UNL     1       5.451   6.587  16.042  0.00  0.00    +0.000 A 
ATOM     28  C   UNL     1       5.425   6.062  17.341  0.00  0.00    +0.000 A 
ENDBRANCH  22  23
ENDBRANCH  19  22
ENDBRANCH  17  19
ENDBRANCH   1  17
TORSDOF 6
ENDMDL
MODEL 7
REMARK VINA RESULT:      -7.1      2.367      4.332
REMARK  Name = 
REMARK  8 active torsions:
REMARK  status: ('A' for Active; 'I' for Inactive)
REMARK    1  A    between atoms: C_1  and  C_2
REMARK    2  A    between atoms: C_2  and  C_3
REMARK    3  A    between atoms: C_3  and  C_4
REMARK    4  A    between atoms: C_3  and  N_11
REMARK    5  A    between atoms: C_4  and  C_5
REMARK    6  A    between atoms: N_11  and  S_12
REMARK    7  A    between atoms: S_12  and  C_15
REMARK    8  A    between atoms: C_24  and  C_25
REMARK                            x       y       z     vdW  Elec       q    Type
REMARK                         _______ _______ _______ _____ _____    ______ ____
ROOT
ATOM      1  S   UNL     1       3.620   5.968  18.325  0.00  0.00    +0.000 S 
ATOM      2  O   UNL     1       2.895   4.982  17.558  0.00  0.00    +0.000 OA
ATOM      3  O   UNL     1       4.524   5.537  19.382  0.00  0.00    +0.000 OA
ENDROOT
BRANCH   1   4
ATOM      4  C   UNL     1       2.444   7.093  19.028  0.00  0.00    +0.000 A 
ATOM      5  C   UNL     1       1.969   6.989  20.346  0.00  0.00    +0.000 A 
ATOM      6  C   UNL     1       1.296   8.088  20.932  0.00  0.00    +0.000 A 
ATOM      7  C   UNL     1       1.048   9.232  20.158  0.00  0.00    +0.000 A 
ATOM      8  C   UNL     1       1.254   9.129  18.775  0.00  0.00    +0.000 A 
ATOM      9  C   UNL     1       2.030   8.132  18.221  0.00  0.00    +0.000 A 
ATOM     10  N   UNL     1       0.854  10.165  17.917  0.00  0.00    +0.000 N 
ATOM     11  C   UNL     1       1.557  11.297  18.277  0.00  0.00    +0.000 C 
ATOM     12  O   UNL     1       2.725  11.483  17.955  0.00  0.00    +0.000 OA
ATOM     13  C   UNL     1       0.814  12.046  19.363  0.00  0.00    +0.000 C 
ATOM     14  C   UNL     1       1.360  13.473  19.378  0.00  0.00    +0.000 C 
ATOM     15  S   UNL     1       0.821  10.910  20.899  0.00  0.00    +0.000 S 
ATOM     16  H   UNL     1      -0.137  10.328  18.081  0.00  0.00    +0.000 HD
ENDBRANCH   1   4
BRANCH   1  17
ATOM     17  N   UNL     1       4.435   6.920  17.202  0.00  0.00    +0.000 NA
ATOM     18  H   UNL     1       3.928   7.748  16.889  0.00  0.00    +0.000 HD
BRANCH  17  19
ATOM     19  C   UNL     1       5.679   6.523  16.510  0.00  0.00    +0.000 C 
BRANCH  19  21
ATOM     20  C   UNL     1       7.551   5.413  17.899  0.00  0.00    +0.000 C 
ATOM     21  C   UNL     1       6.843   6.690  17.500  0.00  0.00    +0.000 C 
ENDBRANCH  19  21
BRANCH  19  22
ATOM     22  C   UNL     1       5.577   5.053  15.987  0.00  0.00    +0.000 C 
BRANCH  22  23
ATOM     23  C   UNL     1       6.130   4.728  14.608  0.00  0.00    +0.000 A 
ATOM     24  C   UNL     1       7.294   5.313  14.101  0.00  0.00    +0.000 A 
ATOM     25  C   UNL     1       7.740   5.008  12.808  0.00  0.00    +0.000 A 
ATOM     26  C   UNL     1       7.043   4.111  12.007  0.00  0.00    +0.000 A 
ATOM     27  C   UNL     1       5.930   3.464  12.523  0.00  0.00    +0.000 A 
ATOM     28  C   UNL     1       5.485   3.755  13.820  0.00  0.00    +0.000 A 
ENDBRANCH  22  23
ENDBRANCH  19  22
ENDBRANCH  17  19
ENDBRANCH   1  17
TORSDOF 6
ENDMDL
MODEL 8
REMARK VINA RESULT:      -7.0      3.194      4.620
REMARK  Name = 
REMARK  8 active torsions:
REMARK  status: ('A' for Active; 'I' for Inactive)
REMARK    1  A    between atoms: C_1  and  C_2
REMARK    2  A    between atoms: C_2  and  C_3
REMARK    3  A    between atoms: C_3  and  C_4
REMARK    4  A    between atoms: C_3  and  N_11
REMARK    5  A    between atoms: C_4  and  C_5
REMARK    6  A    between atoms: N_11  and  S_12
REMARK    7  A    between atoms: S_12  and  C_15
REMARK    8  A    between atoms: C_24  and  C_25
REMARK                            x       y       z     vdW  Elec       q    Type
REMARK                         _______ _______ _______ _____ _____    ______ ____
ROOT
ATOM      1  S   UNL     1       1.637   4.050  18.674  0.00  0.00    +0.000 S 
ATOM      2  O   UNL     1       0.894   3.879  17.447  0.00  0.00    +0.000 OA
ATOM      3  O   UNL     1       1.096   3.531  19.922  0.00  0.00    +0.000 OA
ENDROOT
BRANCH   1   4
ATOM      4  C   UNL     1       1.959   5.779  18.887  0.00  0.00    +0.000 A 
ATOM      5  C   UNL     1       2.341   6.629  17.836  0.00  0.00    +0.000 A 
ATOM      6  C   UNL     1       2.263   8.031  18.011  0.00  0.00    +0.000 A 
ATOM      7  C   UNL     1       1.881   8.547  19.259  0.00  0.00    +0.000 A 
ATOM      8  C   UNL     1       1.840   7.653  20.337  0.00  0.00    +0.000 A 
ATOM      9  C   UNL     1       1.774   6.287  20.156  0.00  0.00    +0.000 A 
ATOM     10  N   UNL     1       1.649   8.124  21.646  0.00  0.00    +0.000 N 
ATOM     11  C   UNL     1       0.420   8.752  21.684  0.00  0.00    +0.000 C 
ATOM     12  O   UNL     1      -0.638   8.136  21.752  0.00  0.00    +0.000 OA
ATOM     13  C   UNL     1       0.567  10.206  21.290  0.00  0.00    +0.000 C 
ATOM     14  C   UNL     1      -0.675  10.937  21.798  0.00  0.00    +0.000 C 
ATOM     15  S   UNL     1       1.105  10.213  19.457  0.00  0.00    +0.000 S 
ATOM     16  H   UNL     1       2.375   8.813  21.829  0.00  0.00    +0.000 HD
ENDBRANCH   1   4
BRANCH   1  17
ATOM     17  N   UNL     1       3.165   3.410  18.381  0.00  0.00    +0.000 NA
ATOM     18  H   UNL     1       3.173   2.521  17.882  0.00  0.00    +0.000 HD
BRANCH  17  19
ATOM     19  C   UNL     1       4.418   3.923  18.975  0.00  0.00    +0.000 C 
BRANCH  19  21
ATOM     20  C   UNL     1       4.468   1.470  19.782  0.00  0.00    +0.000 C 
ATOM     21  C   UNL     1       4.895   2.903  20.022  0.00  0.00    +0.000 C 
ENDBRANCH  19  21
BRANCH  19  22
ATOM     22  C   UNL     1       5.499   4.160  17.871  0.00  0.00    +0.000 C 
BRANCH  22  23
ATOM     23  C   UNL     1       6.316   5.442  17.909  0.00  0.00    +0.000 A 
ATOM     24  C   UNL     1       6.019   6.554  17.114  0.00  0.00    +0.000 A 
ATOM     25  C   UNL     1       6.827   7.697  17.158  0.00  0.00    +0.000 A 
ATOM     26  C   UNL     1       7.931   7.757  18.000  0.00  0.00    +0.000 A 
ATOM     27  C   UNL     1       8.194   6.694  18.851  0.00  0.00    +0.000 A 
ATOM     28  C   UNL     1       7.384   5.551  18.820  0.00  0.00    +0.000 A 
ENDBRANCH  22  23
ENDBRANCH  19  22
ENDBRANCH  17  19
ENDBRANCH   1  17
TORSDOF 6
ENDMDL
MODEL 9
REMARK VINA RESULT:      -7.0      4.135      6.405
REMARK  Name = 
REMARK  8 active torsions:
REMARK  status: ('A' for Active; 'I' for Inactive)
REMARK    1  A    between atoms: C_1  and  C_2
REMARK    2  A    between atoms: C_2  and  C_3
REMARK    3  A    between atoms: C_3  and  C_4
REMARK    4  A    between atoms: C_3  and  N_11
REMARK    5  A    between atoms: C_4  and  C_5
REMARK    6  A    between atoms: N_11  and  S_12
REMARK    7  A    between atoms: S_12  and  C_15
REMARK    8  A    between atoms: C_24  and  C_25
REMARK                            x       y       z     vdW  Elec       q    Type
REMARK                         _______ _______ _______ _____ _____    ______ ____
ROOT
ATOM      1  S   UNL     1       0.242   9.326  22.058  0.00  0.00    +0.000 S 
ATOM      2  O   UNL     1      -0.628   8.183  21.907  0.00  0.00    +0.000 OA
ATOM      3  O   UNL     1       0.935   9.543  23.320  0.00  0.00    +0.000 OA
ENDROOT
BRANCH   1   4
ATOM      4  C   UNL     1      -0.694  10.784  21.683  0.00  0.00    +0.000 A 
ATOM      5  C   UNL     1      -0.981  11.201  20.373  0.00  0.00    +0.000 A 
ATOM      6  C   UNL     1      -1.989  12.171  20.157  0.00  0.00    +0.000 A 
ATOM      7  C   UNL     1      -2.627  12.755  21.261  0.00  0.00    +0.000 A 
ATOM      8  C   UNL     1      -2.059  12.533  22.523  0.00  0.00    +0.000 A 
ATOM      9  C   UNL     1      -1.181  11.495  22.760  0.00  0.00    +0.000 A 
ATOM     10  N   UNL     1      -2.527  13.230  23.648  0.00  0.00    +0.000 N 
ATOM     11  C   UNL     1      -3.856  12.898  23.817  0.00  0.00    +0.000 C 
ATOM     12  O   UNL     1      -4.217  11.842  24.322  0.00  0.00    +0.000 OA
ATOM     13  C   UNL     1      -4.730  13.829  23.003  0.00  0.00    +0.000 C 
ATOM     14  C   UNL     1      -6.142  13.738  23.580  0.00  0.00    +0.000 C 
ATOM     15  S   UNL     1      -4.328  13.474  21.169  0.00  0.00    +0.000 S 
ATOM     16  H   UNL     1      -2.460  14.223  23.438  0.00  0.00    +0.000 HD
ENDBRANCH   1   4
BRANCH   1  17
ATOM     17  N   UNL     1       1.341   9.241  20.787  0.00  0.00    +0.000 NA
ATOM     18  H   UNL     1       1.920  10.072  20.660  0.00  0.00    +0.000 HD
BRANCH  17  19
ATOM     19  C   UNL     1       1.355   8.180  19.759  0.00  0.00    +0.000 C 
BRANCH  19  21
ATOM     20  C   UNL     1       1.602  10.265  18.256  0.00  0.00    +0.000 C 
ATOM     21  C   UNL     1       1.892   8.792  18.456  0.00  0.00    +0.000 C 
ENDBRANCH  19  21
BRANCH  19  22
ATOM     22  C   UNL     1       2.227   6.968  20.225  0.00  0.00    +0.000 C 
BRANCH  22  23
ATOM     23  C   UNL     1       1.887   5.579  19.705  0.00  0.00    +0.000 A 
ATOM     24  C   UNL     1       2.168   5.170  18.397  0.00  0.00    +0.000 A 
ATOM     25  C   UNL     1       1.799   3.893  17.956  0.00  0.00    +0.000 A 
ATOM     26  C   UNL     1       1.159   3.002  18.809  0.00  0.00    +0.000 A 
ATOM     27  C   UNL     1       0.943   3.364  20.131  0.00  0.00    +0.000 A 
ATOM     28  C   UNL     1       1.319   4.636  20.582  0.00  0.00    +0.000 A 
ENDBRANCH  22  23
ENDBRANCH  19  22
ENDBRANCH  17  19
ENDBRANCH   1  17
TORSDOF 6
ENDMDL
