MODEL 1
REMARK VINA RESULT:      -7.1      0.000      0.000
REMARK  Name = 
REMARK  9 active torsions:
REMARK  status: ('A' for Active; 'I' for Inactive)
REMARK    1  A    between atoms: C_1  and  C_2
REMARK    2  A    between atoms: C_2  and  O_3
REMARK    3  A    between atoms: C_2  and  C_18
REMARK    4  A    between atoms: O_3  and  C_4
REMARK    5  A    between atoms: C_4  and  C_6
REMARK    6  A    between atoms: C_6  and  C_7
REMARK    7  A    between atoms: N_20  and  C_21
REMARK    8  A    between atoms: N_20  and  C_22
REMARK    9  A    between atoms: C_22  and  C_23
REMARK                            x       y       z     vdW  Elec       q    Type
REMARK                         _______ _______ _______ _____ _____    ______ ____
ROOT
ATOM      1  C   UNL     1      -0.990   9.787  18.849  0.00  0.00    +0.000 C 
ATOM      2  O   UNL     1      -0.962  10.116  20.026  0.00  0.00    +0.000 OA
ENDROOT
BRANCH   1   3
ATOM      3  O   UNL     1       0.068   9.370  18.110  0.00  0.00    +0.000 OA
BRANCH   3   5
ATOM      4  C   UNL     1       2.014  10.803  17.928  0.00  0.00    +0.000 C 
ATOM      5  C   UNL     1       1.383   9.600  18.628  0.00  0.00    +0.000 C 
BRANCH   5   6
ATOM      6  C   UNL     1       2.295   8.361  18.602  0.00  0.00    +0.000 C 
ATOM      7  O   UNL     1       3.016   8.134  17.626  0.00  0.00    +0.000 OA
ATOM      8  N   UNL     1       2.277   7.519  19.715  0.00  0.00    +0.000 N 
ATOM      9  C   UNL     1       1.572   7.774  20.966  0.00  0.00    +0.000 C 
BRANCH   8  10
ATOM     10  C   UNL     1       3.031   6.273  19.627  0.00  0.00    +0.000 C 
BRANCH  10  11
ATOM     11  C   UNL     1       2.174   5.050  19.399  0.00  0.00    +0.000 A 
ATOM     12  C   UNL     1       1.946   4.560  18.106  0.00  0.00    +0.000 A 
ATOM     13  C   UNL     1       1.224   3.380  17.914  0.00  0.00    +0.000 A 
ATOM     14  C   UNL     1       0.708   2.686  19.008  0.00  0.00    +0.000 A 
ATOM     15  C   UNL     1       0.901   3.179  20.296  0.00  0.00    +0.000 A 
ATOM     16  C   UNL     1       1.630   4.352  20.488  0.00  0.00    +0.000 A 
ENDBRANCH  10  11
ENDBRANCH   8  10
ENDBRANCH   5   6
ENDBRANCH   3   5
ENDBRANCH   1   3
BRANCH   1  17
ATOM     17  C   UNL     1      -2.230   9.839  18.012  0.00  0.00    +0.000 C 
BRANCH  17  18
ATOM     18  C   UNL     1      -2.312  11.157  17.241  0.00  0.00    +0.000 C 
ATOM     19  S   UNL     1      -3.989  11.335  16.535  0.00  0.00    +0.000 S 
ATOM     20  C   UNL     1      -4.848  11.561  18.083  0.00  0.00    +0.000 A 
ATOM     21  C   UNL     1      -6.146  11.062  18.210  0.00  0.00    +0.000 A 
ATOM     22  C   UNL     1      -6.822  11.185  19.424  0.00  0.00    +0.000 A 
ATOM     23  C   UNL     1      -6.218  11.836  20.501  0.00  0.00    +0.000 A 
ATOM     24  C   UNL     1      -4.932  12.365  20.371  0.00  0.00    +0.000 A 
ATOM     25  C   UNL     1      -4.236  12.205  19.173  0.00  0.00    +0.000 A 
ATOM     26  N   UNL     1      -2.921  12.691  19.100  0.00  0.00    +0.000 N 
ATOM     27  C   UNL     1      -2.014  12.368  18.122  0.00  0.00    +0.000 C 
ATOM     28  O   UNL     1      -0.939  12.967  18.066  0.00  0.00    +0.000 OA
ATOM     29  H   UNL     1      -2.589  13.351  19.792  0.00  0.00    +0.000 HD
ENDBRANCH  17  18
ENDBRANCH   1  17
TORSDOF 7
ENDMDL
MODEL 2
REMARK VINA RESULT:      -7.1      3.343      8.633
REMARK  Name = 
REMARK  9 active torsions:
REMARK  status: ('A' for Active; 'I' for Inactive)
REMARK    1  A    between atoms: C_1  and  C_2
REMARK    2  A    between atoms: C_2  and  O_3
REMARK    3  A    between atoms: C_2  and  C_18
REMARK    4  A    between atoms: O_3  and  C_4
REMARK    5  A    between atoms: C_4  and  C_6
REMARK    6  A    between atoms: C_6  and  C_7
REMARK    7  A    between atoms: N_20  and  C_21
REMARK    8  A    between atoms: N_20  and  C_22
REMARK    9  A    between atoms: C_22  and  C_23
REMARK                            x       y       z     vdW  Elec       q    Type
REMARK                         _______ _______ _______ _____ _____    ______ ____
ROOT
ATOM      1  C   UNL     1       4.514   6.451  17.835  0.00  0.00    +0.000 C 
ATOM      2  O   UNL     1       5.291   6.954  17.036  0.00  0.00    +0.000 OA
ENDROOT
BRANCH   1   3
ATOM      3  O   UNL     1       3.173   6.650  17.879  0.00  0.00    +0.000 OA
BRANCH   3   5
ATOM      4  C   UNL     1       1.759   6.712  19.846  0.00  0.00    +0.000 C 
ATOM      5  C   UNL     1       2.652   7.511  18.898  0.00  0.00    +0.000 C 
BRANCH   5   6
ATOM      6  C   UNL     1       1.957   8.775  18.361  0.00  0.00    +0.000 C 
ATOM      7  O   UNL     1       2.063   9.090  17.172  0.00  0.00    +0.000 OA
ATOM      8  N   UNL     1       1.209   9.535  19.261  0.00  0.00    +0.000 N 
ATOM      9  C   UNL     1       0.909   9.173  20.642  0.00  0.00    +0.000 C 
BRANCH   8  10
ATOM     10  C   UNL     1       0.674  10.806  18.783  0.00  0.00    +0.000 C 
BRANCH  10  11
ATOM     11  C   UNL     1      -0.809  10.782  18.499  0.00  0.00    +0.000 A 
ATOM     12  C   UNL     1      -1.680  11.680  19.132  0.00  0.00    +0.000 A 
ATOM     13  C   UNL     1      -3.036  11.706  18.798  0.00  0.00    +0.000 A 
ATOM     14  C   UNL     1      -3.540  10.826  17.842  0.00  0.00    +0.000 A 
ATOM     15  C   UNL     1      -2.692   9.907  17.228  0.00  0.00    +0.000 A 
ATOM     16  C   UNL     1      -1.337   9.888  17.554  0.00  0.00    +0.000 A 
ENDBRANCH  10  11
ENDBRANCH   8  10
ENDBRANCH   5   6
ENDBRANCH   3   5
ENDBRANCH   1   3
BRANCH   1  17
ATOM     17  C   UNL     1       4.949   5.549  18.946  0.00  0.00    +0.000 C 
BRANCH  17  18
ATOM     18  C   UNL     1       5.341   4.172  18.409  0.00  0.00    +0.000 C 
ATOM     19  S   UNL     1       5.088   2.923  19.719  0.00  0.00    +0.000 S 
ATOM     20  C   UNL     1       3.305   3.003  19.748  0.00  0.00    +0.000 A 
ATOM     21  C   UNL     1       2.643   2.812  20.962  0.00  0.00    +0.000 A 
ATOM     22  C   UNL     1       1.253   2.915  21.020  0.00  0.00    +0.000 A 
ATOM     23  C   UNL     1       0.520   3.175  19.861  0.00  0.00    +0.000 A 
ATOM     24  C   UNL     1       1.173   3.336  18.638  0.00  0.00    +0.000 A 
ATOM     25  C   UNL     1       2.565   3.278  18.583  0.00  0.00    +0.000 A 
ATOM     26  N   UNL     1       3.191   3.510  17.349  0.00  0.00    +0.000 N 
ATOM     27  C   UNL     1       4.528   3.773  17.179  0.00  0.00    +0.000 C 
ATOM     28  O   UNL     1       5.002   3.810  16.043  0.00  0.00    +0.000 OA
ATOM     29  H   UNL     1       2.652   3.466  16.494  0.00  0.00    +0.000 HD
ENDBRANCH  17  18
ENDBRANCH   1  17
TORSDOF 7
ENDMDL
MODEL 3
REMARK VINA RESULT:      -7.0      3.743      9.397
REMARK  Name = 
REMARK  9 active torsions:
REMARK  status: ('A' for Active; 'I' for Inactive)
REMARK    1  A    between atoms: C_1  and  C_2
REMARK    2  A    between atoms: C_2  and  O_3
REMARK    3  A    between atoms: C_2  and  C_18
REMARK    4  A    between atoms: O_3  and  C_4
REMARK    5  A    between atoms: C_4  and  C_6
REMARK    6  A    between atoms: C_6  and  C_7
REMARK    7  A    between atoms: N_20  and  C_21
REMARK    8  A    between atoms: N_20  and  C_22
REMARK    9  A    between atoms: C_22  and  C_23
REMARK                            x       y       z     vdW  Elec       q    Type
REMARK                         _______ _______ _______ _____ _____    ______ ____
ROOT
ATOM      1  C   UNL     1       2.013   6.122  20.325  0.00  0.00    +0.000 C 
ATOM      2  O   UNL     1       0.949   5.536  20.462  0.00  0.00    +0.000 OA
ENDROOT
BRANCH   1   3
ATOM      3  O   UNL     1       2.186   7.467  20.295  0.00  0.00    +0.000 OA
BRANCH   3   5
ATOM      4  C   UNL     1       2.025   8.167  17.980  0.00  0.00    +0.000 C 
ATOM      5  C   UNL     1       1.398   8.227  19.372  0.00  0.00    +0.000 C 
BRANCH   5   6
ATOM      6  C   UNL     1       1.113   9.670  19.826  0.00  0.00    +0.000 C 
ATOM      7  O   UNL     1       1.518  10.627  19.161  0.00  0.00    +0.000 OA
ATOM      8  N   UNL     1       0.383   9.847  21.003  0.00  0.00    +0.000 N 
ATOM      9  C   UNL     1      -0.255   8.789  21.779  0.00  0.00    +0.000 C 
BRANCH   8  10
ATOM     10  C   UNL     1       0.241  11.210  21.505  0.00  0.00    +0.000 C 
BRANCH  10  11
ATOM     11  C   UNL     1      -1.181  11.716  21.518  0.00  0.00    +0.000 A 
ATOM     12  C   UNL     1      -1.863  11.924  22.725  0.00  0.00    +0.000 A 
ATOM     13  C   UNL     1      -3.147  12.474  22.727  0.00  0.00    +0.000 A 
ATOM     14  C   UNL     1      -3.770  12.806  21.525  0.00  0.00    +0.000 A 
ATOM     15  C   UNL     1      -3.117  12.577  20.317  0.00  0.00    +0.000 A 
ATOM     16  C   UNL     1      -1.832  12.036  20.315  0.00  0.00    +0.000 A 
ENDBRANCH  10  11
ENDBRANCH   8  10
ENDBRANCH   5   6
ENDBRANCH   3   5
ENDBRANCH   1   3
BRANCH   1  17
ATOM     17  C   UNL     1       3.318   5.418  20.121  0.00  0.00    +0.000 C 
BRANCH  17  18
ATOM     18  C   UNL     1       3.115   4.099  19.374  0.00  0.00    +0.000 C 
ATOM     19  S   UNL     1       2.961   4.442  17.585  0.00  0.00    +0.000 S 
ATOM     20  C   UNL     1       4.649   4.957  17.321  0.00  0.00    +0.000 A 
ATOM     21  C   UNL     1       4.910   5.946  16.371  0.00  0.00    +0.000 A 
ATOM     22  C   UNL     1       6.215   6.399  16.178  0.00  0.00    +0.000 A 
ATOM     23  C   UNL     1       7.266   5.841  16.908  0.00  0.00    +0.000 A 
ATOM     24  C   UNL     1       7.017   4.829  17.837  0.00  0.00    +0.000 A 
ATOM     25  C   UNL     1       5.708   4.405  18.064  0.00  0.00    +0.000 A 
ATOM     26  N   UNL     1       5.488   3.432  19.052  0.00  0.00    +0.000 N 
ATOM     27  C   UNL     1       4.266   3.121  19.595  0.00  0.00    +0.000 C 
ATOM     28  O   UNL     1       4.162   2.148  20.343  0.00  0.00    +0.000 OA
ATOM     29  H   UNL     1       6.264   2.882  19.399  0.00  0.00    +0.000 HD
ENDBRANCH  17  18
ENDBRANCH   1  17
TORSDOF 7
ENDMDL
MODEL 4
REMARK VINA RESULT:      -6.9      3.463      9.097
REMARK  Name = 
REMARK  9 active torsions:
REMARK  status: ('A' for Active; 'I' for Inactive)
REMARK    1  A    between atoms: C_1  and  C_2
REMARK    2  A    between atoms: C_2  and  O_3
REMARK    3  A    between atoms: C_2  and  C_18
REMARK    4  A    between atoms: O_3  and  C_4
REMARK    5  A    between atoms: C_4  and  C_6
REMARK    6  A    between atoms: C_6  and  C_7
REMARK    7  A    between atoms: N_20  and  C_21
REMARK    8  A    between atoms: N_20  and  C_22
REMARK    9  A    between atoms: C_22  and  C_23
REMARK                            x       y       z     vdW  Elec       q    Type
REMARK                         _______ _______ _______ _____ _____    ______ ____
ROOT
ATOM      1  C   UNL     1       1.841   6.341  20.250  0.00  0.00    +0.000 C 
ATOM      2  O   UNL     1       1.475   5.392  20.927  0.00  0.00    +0.000 OA
ENDROOT
BRANCH   1   3
ATOM      3  O   UNL     1       1.135   7.474  20.014  0.00  0.00    +0.000 OA
BRANCH   3   5
ATOM      4  C   UNL     1       1.600   8.507  22.156  0.00  0.00    +0.000 C 
ATOM      5  C   UNL     1       1.575   8.685  20.638  0.00  0.00    +0.000 C 
BRANCH   5   6
ATOM      6  C   UNL     1       0.792   9.937  20.206  0.00  0.00    +0.000 C 
ATOM      7  O   UNL     1       0.037  10.508  20.998  0.00  0.00    +0.000 OA
ATOM      8  N   UNL     1       0.973  10.396  18.900  0.00  0.00    +0.000 N 
ATOM      9  C   UNL     1       1.942   9.879  17.940  0.00  0.00    +0.000 C 
BRANCH   8  10
ATOM     10  C   UNL     1       0.122  11.493  18.450  0.00  0.00    +0.000 C 
BRANCH  10  11
ATOM     11  C   UNL     1      -1.311  11.094  18.192  0.00  0.00    +0.000 A 
ATOM     12  C   UNL     1      -2.374  11.815  18.754  0.00  0.00    +0.000 A 
ATOM     13  C   UNL     1      -3.695  11.489  18.439  0.00  0.00    +0.000 A 
ATOM     14  C   UNL     1      -3.970  10.432  17.574  0.00  0.00    +0.000 A 
ATOM     15  C   UNL     1      -2.925   9.688  17.031  0.00  0.00    +0.000 A 
ATOM     16  C   UNL     1      -1.606  10.019  17.338  0.00  0.00    +0.000 A 
ENDBRANCH  10  11
ENDBRANCH   8  10
ENDBRANCH   5   6
ENDBRANCH   3   5
ENDBRANCH   1   3
BRANCH   1  17
ATOM     17  C   UNL     1       3.148   6.373  19.520  0.00  0.00    +0.000 C 
BRANCH  17  18
ATOM     18  C   UNL     1       3.322   5.122  18.658  0.00  0.00    +0.000 C 
ATOM     19  S   UNL     1       4.081   5.595  17.064  0.00  0.00    +0.000 S 
ATOM     20  C   UNL     1       5.686   6.031  17.713  0.00  0.00    +0.000 A 
ATOM     21  C   UNL     1       6.398   7.067  17.106  0.00  0.00    +0.000 A 
ATOM     22  C   UNL     1       7.633   7.458  17.623  0.00  0.00    +0.000 A 
ATOM     23  C   UNL     1       8.176   6.792  18.723  0.00  0.00    +0.000 A 
ATOM     24  C   UNL     1       7.484   5.734  19.315  0.00  0.00    +0.000 A 
ATOM     25  C   UNL     1       6.228   5.370  18.830  0.00  0.00    +0.000 A 
ATOM     26  N   UNL     1       5.533   4.346  19.491  0.00  0.00    +0.000 N 
ATOM     27  C   UNL     1       4.198   4.067  19.331  0.00  0.00    +0.000 C 
ATOM     28  O   UNL     1       3.722   3.053  19.841  0.00  0.00    +0.000 OA
ATOM     29  H   UNL     1       6.026   3.730  20.125  0.00  0.00    +0.000 HD
ENDBRANCH  17  18
ENDBRANCH   1  17
TORSDOF 7
ENDMDL
MODEL 5
REMARK VINA RESULT:      -6.9      3.580      9.200
REMARK  Name = 
REMARK  9 active torsions:
REMARK  status: ('A' for Active; 'I' for Inactive)
REMARK    1  A    between atoms: C_1  and  C_2
REMARK    2  A    between atoms: C_2  and  O_3
REMARK    3  A    between atoms: C_2  and  C_18
REMARK    4  A    between atoms: O_3  and  C_4
REMARK    5  A    between atoms: C_4  and  C_6
REMARK    6  A    between atoms: C_6  and  C_7
REMARK    7  A    between atoms: N_20  and  C_21
REMARK    8  A    between atoms: N_20  and  C_22
REMARK    9  A    between atoms: C_22  and  C_23
REMARK                            x       y       z     vdW  Elec       q    Type
REMARK                         _______ _______ _______ _____ _____    ______ ____
ROOT
ATOM      1  C   UNL     1       1.978   5.780  20.072  0.00  0.00    +0.000 C 
ATOM      2  O   UNL     1       1.222   5.123  20.772  0.00  0.00    +0.000 OA
ENDROOT
BRANCH   1   3
ATOM      3  O   UNL     1       1.633   6.834  19.292  0.00  0.00    +0.000 OA
BRANCH   3   5
ATOM      4  C   UNL     1       1.484   8.255  21.249  0.00  0.00    +0.000 C 
ATOM      5  C   UNL     1       1.902   8.152  19.782  0.00  0.00    +0.000 C 
BRANCH   5   6
ATOM      6  C   UNL     1       1.305   9.278  18.920  0.00  0.00    +0.000 C 
ATOM      7  O   UNL     1       1.731   9.489  17.781  0.00  0.00    +0.000 OA
ATOM      8  N   UNL     1       0.271  10.038  19.471  0.00  0.00    +0.000 N 
ATOM      9  C   UNL     1      -0.393   9.780  20.744  0.00  0.00    +0.000 C 
BRANCH   8  10
ATOM     10  C   UNL     1      -0.191  11.195  18.710  0.00  0.00    +0.000 C 
BRANCH  10  11
ATOM     11  C   UNL     1      -1.573  11.034  18.125  0.00  0.00    +0.000 A 
ATOM     12  C   UNL     1      -1.830  10.080  17.130  0.00  0.00    +0.000 A 
ATOM     13  C   UNL     1      -3.130   9.881  16.658  0.00  0.00    +0.000 A 
ATOM     14  C   UNL     1      -4.183  10.643  17.162  0.00  0.00    +0.000 A 
ATOM     15  C   UNL     1      -3.938  11.614  18.129  0.00  0.00    +0.000 A 
ATOM     16  C   UNL     1      -2.642  11.807  18.606  0.00  0.00    +0.000 A 
ENDBRANCH  10  11
ENDBRANCH   8  10
ENDBRANCH   5   6
ENDBRANCH   3   5
ENDBRANCH   1   3
BRANCH   1  17
ATOM     17  C   UNL     1       3.438   5.478  19.934  0.00  0.00    +0.000 C 
BRANCH  17  18
ATOM     18  C   UNL     1       3.672   4.374  18.902  0.00  0.00    +0.000 C 
ATOM     19  S   UNL     1       4.010   5.136  17.276  0.00  0.00    +0.000 S 
ATOM     20  C   UNL     1       5.601   5.830  17.693  0.00  0.00    +0.000 A 
ATOM     21  C   UNL     1       5.980   7.041  17.112  0.00  0.00    +0.000 A 
ATOM     22  C   UNL     1       7.197   7.628  17.456  0.00  0.00    +0.000 A 
ATOM     23  C   UNL     1       8.054   6.990  18.354  0.00  0.00    +0.000 A 
ATOM     24  C   UNL     1       7.696   5.763  18.916  0.00  0.00    +0.000 A 
ATOM     25  C   UNL     1       6.460   5.195  18.608  0.00  0.00    +0.000 A 
ATOM     26  N   UNL     1       6.105   3.994  19.242  0.00  0.00    +0.000 N 
ATOM     27  C   UNL     1       4.840   3.464  19.277  0.00  0.00    +0.000 C 
ATOM     28  O   UNL     1       4.665   2.331  19.727  0.00  0.00    +0.000 OA
ATOM     29  H   UNL     1       6.816   3.437  19.700  0.00  0.00    +0.000 HD
ENDBRANCH  17  18
ENDBRANCH   1  17
TORSDOF 7
ENDMDL
MODEL 6
REMARK VINA RESULT:      -6.9      3.790      9.426
REMARK  Name = 
REMARK  9 active torsions:
REMARK  status: ('A' for Active; 'I' for Inactive)
REMARK    1  A    between atoms: C_1  and  C_2
REMARK    2  A    between atoms: C_2  and  O_3
REMARK    3  A    between atoms: C_2  and  C_18
REMARK    4  A    between atoms: O_3  and  C_4
REMARK    5  A    between atoms: C_4  and  C_6
REMARK    6  A    between atoms: C_6  and  C_7
REMARK    7  A    between atoms: N_20  and  C_21
REMARK    8  A    between atoms: N_20  and  C_22
REMARK    9  A    between atoms: C_22  and  C_23
REMARK                            x       y       z     vdW  Elec       q    Type
REMARK                         _______ _______ _______ _____ _____    ______ ____
ROOT
ATOM      1  C   UNL     1       2.186   6.307  19.620  0.00  0.00    +0.000 C 
ATOM      2  O   UNL     1       1.225   5.662  19.227  0.00  0.00    +0.000 OA
ENDROOT
BRANCH   1   3
ATOM      3  O   UNL     1       2.198   7.634  19.900  0.00  0.00    +0.000 OA
BRANCH   3   5
ATOM      4  C   UNL     1       2.174   8.593  17.674  0.00  0.00    +0.000 C 
ATOM      5  C   UNL     1       1.475   8.513  19.031  0.00  0.00    +0.000 C 
BRANCH   5   6
ATOM      6  C   UNL     1       1.196   9.902  19.631  0.00  0.00    +0.000 C 
ATOM      7  O   UNL     1       1.621  10.920  19.078  0.00  0.00    +0.000 OA
ATOM      8  N   UNL     1       0.447   9.962  20.807  0.00  0.00    +0.000 N 
ATOM      9  C   UNL     1      -0.215   8.836  21.456  0.00  0.00    +0.000 C 
BRANCH   8  10
ATOM     10  C   UNL     1       0.309  11.266  21.449  0.00  0.00    +0.000 C 
BRANCH  10  11
ATOM     11  C   UNL     1      -1.095  11.821  21.420  0.00  0.00    +0.000 A 
ATOM     12  C   UNL     1      -1.706  12.172  20.208  0.00  0.00    +0.000 A 
ATOM     13  C   UNL     1      -3.035  12.604  20.184  0.00  0.00    +0.000 A 
ATOM     14  C   UNL     1      -3.761  12.705  21.370  0.00  0.00    +0.000 A 
ATOM     15  C   UNL     1      -3.156  12.388  22.584  0.00  0.00    +0.000 A 
ATOM     16  C   UNL     1      -1.833  11.949  22.606  0.00  0.00    +0.000 A 
ENDBRANCH  10  11
ENDBRANCH   8  10
ENDBRANCH   5   6
ENDBRANCH   3   5
ENDBRANCH   1   3
BRANCH   1  17
ATOM     17  C   UNL     1       3.548   5.716  19.812  0.00  0.00    +0.000 C 
BRANCH  17  18
ATOM     18  C   UNL     1       3.808   4.603  18.796  0.00  0.00    +0.000 C 
ATOM     19  S   UNL     1       4.228   5.351  17.182  0.00  0.00    +0.000 S 
ATOM     20  C   UNL     1       5.810   6.022  17.663  0.00  0.00    +0.000 A 
ATOM     21  C   UNL     1       6.233   7.224  17.093  0.00  0.00    +0.000 A 
ATOM     22  C   UNL     1       7.444   7.793  17.486  0.00  0.00    +0.000 A 
ATOM     23  C   UNL     1       8.251   7.146  18.423  0.00  0.00    +0.000 A 
ATOM     24  C   UNL     1       7.849   5.928  18.974  0.00  0.00    +0.000 A 
ATOM     25  C   UNL     1       6.619   5.378  18.617  0.00  0.00    +0.000 A 
ATOM     26  N   UNL     1       6.218   4.186  19.241  0.00  0.00    +0.000 N 
ATOM     27  C   UNL     1       4.944   3.676  19.224  0.00  0.00    +0.000 C 
ATOM     28  O   UNL     1       4.732   2.549  19.672  0.00  0.00    +0.000 OA
ATOM     29  H   UNL     1       6.900   3.620  19.731  0.00  0.00    +0.000 HD
ENDBRANCH  17  18
ENDBRANCH   1  17
TORSDOF 7
ENDMDL
MODEL 7
REMARK VINA RESULT:      -6.8      3.869      9.380
REMARK  Name = 
REMARK  9 active torsions:
REMARK  status: ('A' for Active; 'I' for Inactive)
REMARK    1  A    between atoms: C_1  and  C_2
REMARK    2  A    between atoms: C_2  and  O_3
REMARK    3  A    between atoms: C_2  and  C_18
REMARK    4  A    between atoms: O_3  and  C_4
REMARK    5  A    between atoms: C_4  and  C_6
REMARK    6  A    between atoms: C_6  and  C_7
REMARK    7  A    between atoms: N_20  and  C_21
REMARK    8  A    between atoms: N_20  and  C_22
REMARK    9  A    between atoms: C_22  and  C_23
REMARK                            x       y       z     vdW  Elec       q    Type
REMARK                         _______ _______ _______ _____ _____    ______ ____
ROOT
ATOM      1  C   UNL     1       1.700   5.552  20.578  0.00  0.00    +0.000 C 
ATOM      2  O   UNL     1       0.753   4.831  20.301  0.00  0.00    +0.000 OA
ENDROOT
BRANCH   1   3
ATOM      3  O   UNL     1       1.631   6.774  21.161  0.00  0.00    +0.000 OA
BRANCH   3   5
ATOM      4  C   UNL     1       2.108   7.891  19.063  0.00  0.00    +0.000 C 
ATOM      5  C   UNL     1       1.271   7.892  20.342  0.00  0.00    +0.000 C 
BRANCH   5   6
ATOM      6  C   UNL     1       1.314   9.247  21.071  0.00  0.00    +0.000 C 
ATOM      7  O   UNL     1       1.812   9.337  22.197  0.00  0.00    +0.000 OA
ATOM      8  N   UNL     1       0.779  10.355  20.412  0.00  0.00    +0.000 N 
ATOM      9  C   UNL     1       0.300  10.380  19.035  0.00  0.00    +0.000 C 
BRANCH   8  10
ATOM     10  C   UNL     1       0.691  11.604  21.163  0.00  0.00    +0.000 C 
BRANCH  10  11
ATOM     11  C   UNL     1      -0.704  11.942  21.633  0.00  0.00    +0.000 A 
ATOM     12  C   UNL     1      -1.594  12.643  20.807  0.00  0.00    +0.000 A 
ATOM     13  C   UNL     1      -2.908  12.875  21.218  0.00  0.00    +0.000 A 
ATOM     14  C   UNL     1      -3.344  12.425  22.463  0.00  0.00    +0.000 A 
ATOM     15  C   UNL     1      -2.461  11.754  23.307  0.00  0.00    +0.000 A 
ATOM     16  C   UNL     1      -1.152  11.514  22.892  0.00  0.00    +0.000 A 
ENDBRANCH  10  11
ENDBRANCH   8  10
ENDBRANCH   5   6
ENDBRANCH   3   5
ENDBRANCH   1   3
BRANCH   1  17
ATOM     17  C   UNL     1       3.120   5.198  20.262  0.00  0.00    +0.000 C 
BRANCH  17  18
ATOM     18  C   UNL     1       3.185   4.068  19.235  0.00  0.00    +0.000 C 
ATOM     19  S   UNL     1       3.309   4.788  17.559  0.00  0.00    +0.000 S 
ATOM     20  C   UNL     1       4.955   5.453  17.734  0.00  0.00    +0.000 A 
ATOM     21  C   UNL     1       5.274   6.643  17.077  0.00  0.00    +0.000 A 
ATOM     22  C   UNL     1       6.539   7.207  17.234  0.00  0.00    +0.000 A 
ATOM     23  C   UNL     1       7.500   6.569  18.020  0.00  0.00    +0.000 A 
ATOM     24  C   UNL     1       7.199   5.362  18.655  0.00  0.00    +0.000 A 
ATOM     25  C   UNL     1       5.921   4.817  18.536  0.00  0.00    +0.000 A 
ATOM     26  N   UNL     1       5.634   3.638  19.242  0.00  0.00    +0.000 N 
ATOM     27  C   UNL     1       4.375   3.139  19.464  0.00  0.00    +0.000 C 
ATOM     28  O   UNL     1       4.242   2.020  19.962  0.00  0.00    +0.000 OA
ATOM     29  H   UNL     1       6.390   3.074  19.609  0.00  0.00    +0.000 HD
ENDBRANCH  17  18
ENDBRANCH   1  17
TORSDOF 7
ENDMDL
MODEL 8
REMARK VINA RESULT:      -6.8      3.204      5.103
REMARK  Name = 
REMARK  9 active torsions:
REMARK  status: ('A' for Active; 'I' for Inactive)
REMARK    1  A    between atoms: C_1  and  C_2
REMARK    2  A    between atoms: C_2  and  O_3
REMARK    3  A    between atoms: C_2  and  C_18
REMARK    4  A    between atoms: O_3  and  C_4
REMARK    5  A    between atoms: C_4  and  C_6
REMARK    6  A    between atoms: C_6  and  C_7
REMARK    7  A    between atoms: N_20  and  C_21
REMARK    8  A    between atoms: N_20  and  C_22
REMARK    9  A    between atoms: C_22  and  C_23
REMARK                            x       y       z     vdW  Elec       q    Type
REMARK                         _______ _______ _______ _____ _____    ______ ____
ROOT
ATOM      1  C   UNL     1       2.306   8.545  18.131  0.00  0.00    +0.000 C 
ATOM      2  O   UNL     1       2.532   8.136  17.001  0.00  0.00    +0.000 OA
ENDROOT
BRANCH   1   3
ATOM      3  O   UNL     1       2.573   7.887  19.286  0.00  0.00    +0.000 OA
BRANCH   3   5
ATOM      4  C   UNL     1       1.392   6.321  20.709  0.00  0.00    +0.000 C 
ATOM      5  C   UNL     1       2.151   6.523  19.399  0.00  0.00    +0.000 C 
BRANCH   5   6
ATOM      6  C   UNL     1       3.282   5.497  19.210  0.00  0.00    +0.000 C 
ATOM      7  O   UNL     1       4.357   5.634  19.801  0.00  0.00    +0.000 OA
ATOM      8  N   UNL     1       3.043   4.417  18.359  0.00  0.00    +0.000 N 
ATOM      9  C   UNL     1       1.767   4.092  17.730  0.00  0.00    +0.000 C 
BRANCH   8  10
ATOM     10  C   UNL     1       4.164   3.528  18.071  0.00  0.00    +0.000 C 
BRANCH  10  11
ATOM     11  C   UNL     1       5.120   4.062  17.031  0.00  0.00    +0.000 A 
ATOM     12  C   UNL     1       6.435   4.409  17.370  0.00  0.00    +0.000 A 
ATOM     13  C   UNL     1       7.336   4.820  16.385  0.00  0.00    +0.000 A 
ATOM     14  C   UNL     1       6.930   4.904  15.054  0.00  0.00    +0.000 A 
ATOM     15  C   UNL     1       5.617   4.591  14.707  0.00  0.00    +0.000 A 
ATOM     16  C   UNL     1       4.721   4.173  15.689  0.00  0.00    +0.000 A 
ENDBRANCH  10  11
ENDBRANCH   8  10
ENDBRANCH   5   6
ENDBRANCH   3   5
ENDBRANCH   1   3
BRANCH   1  17
ATOM     17  C   UNL     1       1.638   9.854  18.411  0.00  0.00    +0.000 C 
BRANCH  17  18
ATOM     18  C   UNL     1       0.210   9.642  18.916  0.00  0.00    +0.000 C 
ATOM     19  S   UNL     1       0.058  10.346  20.595  0.00  0.00    +0.000 S 
ATOM     20  C   UNL     1       0.214  12.060  20.124  0.00  0.00    +0.000 A 
ATOM     21  C   UNL     1       0.846  12.944  20.999  0.00  0.00    +0.000 A 
ATOM     22  C   UNL     1       1.022  14.279  20.634  0.00  0.00    +0.000 A 
ATOM     23  C   UNL     1       0.536  14.741  19.410  0.00  0.00    +0.000 A 
ATOM     24  C   UNL     1      -0.125  13.869  18.543  0.00  0.00    +0.000 A 
ATOM     25  C   UNL     1      -0.264  12.524  18.884  0.00  0.00    +0.000 A 
ATOM     26  N   UNL     1      -0.875  11.664  17.959  0.00  0.00    +0.000 N 
ATOM     27  C   UNL     1      -0.831  10.293  18.009  0.00  0.00    +0.000 C 
ATOM     28  O   UNL     1      -1.528   9.633  17.236  0.00  0.00    +0.000 OA
ATOM     29  H   UNL     1      -1.418  12.049  17.197  0.00  0.00    +0.000 HD
ENDBRANCH  17  18
ENDBRANCH   1  17
TORSDOF 7
ENDMDL
MODEL 9
REMARK VINA RESULT:      -6.7      7.153     10.212
REMARK  Name = 
REMARK  9 active torsions:
REMARK  status: ('A' for Active; 'I' for Inactive)
REMARK    1  A    between atoms: C_1  and  C_2
REMARK    2  A    between atoms: C_2  and  O_3
REMARK    3  A    between atoms: C_2  and  C_18
REMARK    4  A    between atoms: O_3  and  C_4
REMARK    5  A    between atoms: C_4  and  C_6
REMARK    6  A    between atoms: C_6  and  C_7
REMARK    7  A    between atoms: N_20  and  C_21
REMARK    8  A    between atoms: N_20  and  C_22
REMARK    9  A    between atoms: C_22  and  C_23
REMARK                            x       y       z     vdW  Elec       q    Type
REMARK                         _______ _______ _______ _____ _____    ______ ____
ROOT
ATOM      1  C   UNL     1       4.990   6.805  16.628  0.00  0.00    +0.000 C 
ATOM      2  O   UNL     1       4.907   6.972  15.420  0.00  0.00    +0.000 OA
ENDROOT
BRANCH   1   3
ATOM      3  O   UNL     1       5.841   7.446  17.467  0.00  0.00    +0.000 OA
BRANCH   3   5
ATOM      4  C   UNL     1       7.667   6.112  16.594  0.00  0.00    +0.000 C 
ATOM      5  C   UNL     1       7.231   7.478  17.122  0.00  0.00    +0.000 C 
BRANCH   5   6
ATOM      6  C   UNL     1       8.147   7.993  18.247  0.00  0.00    +0.000 C 
ATOM      7  O   UNL     1       8.655   7.206  19.050  0.00  0.00    +0.000 OA
ATOM      8  N   UNL     1       8.379   9.368  18.315  0.00  0.00    +0.000 N 
ATOM      9  C   UNL     1       7.941  10.357  17.337  0.00  0.00    +0.000 C 
BRANCH   8  10
ATOM     10  C   UNL     1       9.127   9.866  19.466  0.00  0.00    +0.000 C 
BRANCH  10  11
ATOM     11  C   UNL     1       9.846  11.169  19.215  0.00  0.00    +0.000 A 
ATOM     12  C   UNL     1       9.434  12.353  19.844  0.00  0.00    +0.000 A 
ATOM     13  C   UNL     1      10.159  13.535  19.672  0.00  0.00    +0.000 A 
ATOM     14  C   UNL     1      11.290  13.552  18.858  0.00  0.00    +0.000 A 
ATOM     15  C   UNL     1      11.693  12.391  18.203  0.00  0.00    +0.000 A 
ATOM     16  C   UNL     1      10.975  11.209  18.382  0.00  0.00    +0.000 A 
ENDBRANCH  10  11
ENDBRANCH   8  10
ENDBRANCH   5   6
ENDBRANCH   3   5
ENDBRANCH   1   3
BRANCH   1  17
ATOM     17  C   UNL     1       4.168   5.802  17.376  0.00  0.00    +0.000 C 
BRANCH  17  18
ATOM     18  C   UNL     1       4.557   5.773  18.854  0.00  0.00    +0.000 C 
ATOM     19  S   UNL     1       3.039   5.710  19.871  0.00  0.00    +0.000 S 
ATOM     20  C   UNL     1       2.542   4.059  19.411  0.00  0.00    +0.000 A 
ATOM     21  C   UNL     1       1.180   3.766  19.324  0.00  0.00    +0.000 A 
ATOM     22  C   UNL     1       0.766   2.497  18.921  0.00  0.00    +0.000 A 
ATOM     23  C   UNL     1       1.709   1.507  18.639  0.00  0.00    +0.000 A 
ATOM     24  C   UNL     1       3.073   1.784  18.754  0.00  0.00    +0.000 A 
ATOM     25  C   UNL     1       3.492   3.065  19.113  0.00  0.00    +0.000 A 
ATOM     26  N   UNL     1       4.870   3.324  19.154  0.00  0.00    +0.000 N 
ATOM     27  C   UNL     1       5.437   4.574  19.203  0.00  0.00    +0.000 C 
ATOM     28  O   UNL     1       6.649   4.687  19.390  0.00  0.00    +0.000 OA
ATOM     29  H   UNL     1       5.527   2.555  19.176  0.00  0.00    +0.000 HD
ENDBRANCH  17  18
ENDBRANCH   1  17
TORSDOF 7
ENDMDL
