MODEL 1
REMARK VINA RESULT:      -8.9      0.000      0.000
REMARK  Name = 
REMARK  8 active torsions:
REMARK  status: ('A' for Active; 'I' for Inactive)
REMARK    1  A    between atoms: C_1  and  C_2
REMARK    2  A    between atoms: C_4  and  O_5
REMARK    3  A    between atoms: C_6  and  N_7
REMARK    4  A    between atoms: N_7  and  C_8
REMARK    5  A    between atoms: C_8  and  N_10
REMARK    6  A    between atoms: C_11  and  C_13
REMARK    7  A    between atoms: C_16  and  C_17
REMARK    8  A    between atoms: C_26  and  C_27
REMARK                            x       y       z     vdW  Elec       q    Type
REMARK                         _______ _______ _______ _____ _____    ______ ____
ROOT
ATOM      1  N   UNL     1       6.631   4.890  16.393  0.00  0.00    +0.000 N 
ATOM      2  C   UNL     1       6.389   6.251  16.480  0.00  0.00    +0.000 C 
ATOM      3  O   UNL     1       5.551   6.811  15.773  0.00  0.00    +0.000 OA
ATOM      4  H   UNL     1       7.417   4.536  16.923  0.00  0.00    +0.000 HD
ENDROOT
BRANCH   2   5
ATOM      5  C   UNL     1       7.225   6.985  17.413  0.00  0.00    +0.000 A 
ATOM      6  C   UNL     1       7.871   6.532  18.547  0.00  0.00    +0.000 A 
ATOM      7  C   UNL     1       8.573   7.631  19.088  0.00  0.00    +0.000 A 
ATOM      8  C   UNL     1       8.317   8.713  18.268  0.00  0.00    +0.000 A 
ATOM      9  O   UNL     1       7.487   8.322  17.242  0.00  0.00    +0.000 OA
BRANCH   8  10
ATOM     10  C   UNL     1       8.744  10.114  18.297  0.00  0.00    +0.000 A 
ATOM     11  C   UNL     1       9.806  10.522  19.124  0.00  0.00    +0.000 A 
ATOM     12  C   UNL     1      10.204  11.864  19.187  0.00  0.00    +0.000 A 
ATOM     13  C   UNL     1       9.540  12.816  18.421  0.00  0.00    +0.000 A 
ATOM     14 CL   UNL     1      10.005  14.469  18.514  0.00  0.00    +0.000 Cl
ATOM     15  C   UNL     1       8.496  12.434  17.583  0.00  0.00    +0.000 A 
ATOM     16  C   UNL     1       8.102  11.091  17.521  0.00  0.00    +0.000 A 
ENDBRANCH   8  10
ENDBRANCH   2   5
BRANCH   1  17
ATOM     17  C   UNL     1       5.882   3.920  15.741  0.00  0.00    +0.000 C 
ATOM     18  S   UNL     1       5.792   4.036  14.072  0.00  0.00    +0.000 S 
BRANCH  17  19
ATOM     19  N   UNL     1       5.242   3.014  16.563  0.00  0.00    +0.000 N 
ATOM     20  H   UNL     1       5.657   2.084  16.568  0.00  0.00    +0.000 HD
BRANCH  19  25
ATOM     21  C   UNL     1       0.836   3.915  20.169  0.00  0.00    +0.000 C 
ATOM     22  C   UNL     1       1.974   3.692  19.208  0.00  0.00    +0.000 A 
ATOM     23  C   UNL     1       2.436   2.388  18.987  0.00  0.00    +0.000 A 
ATOM     24  C   UNL     1       3.513   2.144  18.129  0.00  0.00    +0.000 A 
ATOM     25  C   UNL     1       4.132   3.184  17.431  0.00  0.00    +0.000 A 
ATOM     26  C   UNL     1       3.696   4.495  17.686  0.00  0.00    +0.000 A 
ATOM     27  C   UNL     1       2.622   4.763  18.564  0.00  0.00    +0.000 A 
ATOM     28  C   UNL     1       2.199   6.185  18.824  0.00  0.00    +0.000 C 
BRANCH  24  29
ATOM     29  O   UNL     1       4.034   0.879  18.109  0.00  0.00    +0.000 OA
ATOM     30  H   UNL     1       4.470   0.725  18.961  0.00  0.00    +0.000 HD
ENDBRANCH  24  29
ENDBRANCH  19  25
ENDBRANCH  17  19
ENDBRANCH   1  17
TORSDOF 6
ENDMDL
MODEL 2
REMARK VINA RESULT:      -8.9      4.923      7.234
REMARK  Name = 
REMARK  8 active torsions:
REMARK  status: ('A' for Active; 'I' for Inactive)
REMARK    1  A    between atoms: C_1  and  C_2
REMARK    2  A    between atoms: C_4  and  O_5
REMARK    3  A    between atoms: C_6  and  N_7
REMARK    4  A    between atoms: N_7  and  C_8
REMARK    5  A    between atoms: C_8  and  N_10
REMARK    6  A    between atoms: C_11  and  C_13
REMARK    7  A    between atoms: C_16  and  C_17
REMARK    8  A    between atoms: C_26  and  C_27
REMARK                            x       y       z     vdW  Elec       q    Type
REMARK                         _______ _______ _______ _____ _____    ______ ____
ROOT
ATOM      1  N   UNL     1       3.169   4.794  17.922  0.00  0.00    +0.000 N 
ATOM      2  C   UNL     1       3.078   5.518  19.100  0.00  0.00    +0.000 C 
ATOM      3  O   UNL     1       3.375   5.029  20.190  0.00  0.00    +0.000 OA
ATOM      4  H   UNL     1       2.793   5.233  17.091  0.00  0.00    +0.000 HD
ENDROOT
BRANCH   2   5
ATOM      5  C   UNL     1       2.556   6.867  18.975  0.00  0.00    +0.000 A 
ATOM      6  C   UNL     1       2.648   7.743  17.911  0.00  0.00    +0.000 A 
ATOM      7  C   UNL     1       1.954   8.915  18.280  0.00  0.00    +0.000 A 
ATOM      8  C   UNL     1       1.477   8.712  19.560  0.00  0.00    +0.000 A 
ATOM      9  O   UNL     1       1.847   7.458  19.992  0.00  0.00    +0.000 OA
BRANCH   8  10
ATOM     10  C   UNL     1       0.696   9.541  20.482  0.00  0.00    +0.000 A 
ATOM     11  C   UNL     1       0.401   9.087  21.779  0.00  0.00    +0.000 A 
ATOM     12  C   UNL     1      -0.374   9.855  22.659  0.00  0.00    +0.000 A 
ATOM     13  C   UNL     1      -0.864  11.090  22.247  0.00  0.00    +0.000 A 
ATOM     14 CL   UNL     1      -1.837  12.025  23.313  0.00  0.00    +0.000 Cl
ATOM     15  C   UNL     1      -0.571  11.568  20.973  0.00  0.00    +0.000 A 
ATOM     16  C   UNL     1       0.205  10.798  20.097  0.00  0.00    +0.000 A 
ENDBRANCH   8  10
ENDBRANCH   2   5
BRANCH   1  17
ATOM     17  C   UNL     1       3.792   3.573  17.706  0.00  0.00    +0.000 C 
ATOM     18  S   UNL     1       2.854   2.201  17.928  0.00  0.00    +0.000 S 
BRANCH  17  19
ATOM     19  N   UNL     1       5.137   3.640  17.401  0.00  0.00    +0.000 N 
ATOM     20  H   UNL     1       5.752   3.299  18.138  0.00  0.00    +0.000 HD
BRANCH  19  25
ATOM     21  C   UNL     1       7.731   5.151  12.481  0.00  0.00    +0.000 C 
ATOM     22  C   UNL     1       7.031   4.768  13.758  0.00  0.00    +0.000 A 
ATOM     23  C   UNL     1       7.610   5.119  14.986  0.00  0.00    +0.000 A 
ATOM     24  C   UNL     1       7.009   4.751  16.193  0.00  0.00    +0.000 A 
ATOM     25  C   UNL     1       5.792   4.064  16.216  0.00  0.00    +0.000 A 
ATOM     26  C   UNL     1       5.235   3.676  14.986  0.00  0.00    +0.000 A 
ATOM     27  C   UNL     1       5.838   4.022  13.755  0.00  0.00    +0.000 A 
ATOM     28  C   UNL     1       5.217   3.569  12.460  0.00  0.00    +0.000 C 
BRANCH  24  29
ATOM     29  O   UNL     1       7.721   4.955  17.344  0.00  0.00    +0.000 OA
ATOM     30  H   UNL     1       8.585   4.527  17.236  0.00  0.00    +0.000 HD
ENDBRANCH  24  29
ENDBRANCH  19  25
ENDBRANCH  17  19
ENDBRANCH   1  17
TORSDOF 6
ENDMDL
MODEL 3
REMARK VINA RESULT:      -8.7      1.585      1.869
REMARK  Name = 
REMARK  8 active torsions:
REMARK  status: ('A' for Active; 'I' for Inactive)
REMARK    1  A    between atoms: C_1  and  C_2
REMARK    2  A    between atoms: C_4  and  O_5
REMARK    3  A    between atoms: C_6  and  N_7
REMARK    4  A    between atoms: N_7  and  C_8
REMARK    5  A    between atoms: C_8  and  N_10
REMARK    6  A    between atoms: C_11  and  C_13
REMARK    7  A    between atoms: C_16  and  C_17
REMARK    8  A    between atoms: C_26  and  C_27
REMARK                            x       y       z     vdW  Elec       q    Type
REMARK                         _______ _______ _______ _____ _____    ______ ____
ROOT
ATOM      1  N   UNL     1       7.458   5.926  16.532  0.00  0.00    +0.000 N 
ATOM      2  C   UNL     1       6.881   7.137  16.877  0.00  0.00    +0.000 C 
ATOM      3  O   UNL     1       5.750   7.451  16.505  0.00  0.00    +0.000 OA
ATOM      4  H   UNL     1       8.431   5.802  16.778  0.00  0.00    +0.000 HD
ENDROOT
BRANCH   2   5
ATOM      5  C   UNL     1       7.715   8.038  17.654  0.00  0.00    +0.000 A 
ATOM      6  C   UNL     1       8.356   7.812  18.857  0.00  0.00    +0.000 A 
ATOM      7  C   UNL     1       9.058   8.993  19.177  0.00  0.00    +0.000 A 
ATOM      8  C   UNL     1       8.807   9.897  18.163  0.00  0.00    +0.000 A 
ATOM      9  O   UNL     1       7.980   9.315  17.229  0.00  0.00    +0.000 OA
BRANCH   8  10
ATOM     10  C   UNL     1       9.237  11.276  17.921  0.00  0.00    +0.000 A 
ATOM     11  C   UNL     1      10.602  11.588  17.794  0.00  0.00    +0.000 A 
ATOM     12  C   UNL     1      11.031  12.908  17.597  0.00  0.00    +0.000 A 
ATOM     13  C   UNL     1      10.094  13.933  17.526  0.00  0.00    +0.000 A 
ATOM     14 CL   UNL     1      10.615  15.558  17.311  0.00  0.00    +0.000 Cl
ATOM     15  C   UNL     1       8.736  13.647  17.633  0.00  0.00    +0.000 A 
ATOM     16  C   UNL     1       8.311  12.326  17.829  0.00  0.00    +0.000 A 
ENDBRANCH   8  10
ENDBRANCH   2   5
BRANCH   1  17
ATOM     17  C   UNL     1       6.853   4.813  15.966  0.00  0.00    +0.000 C 
ATOM     18  S   UNL     1       6.877   4.713  14.293  0.00  0.00    +0.000 S 
BRANCH  17  19
ATOM     19  N   UNL     1       6.239   3.955  16.857  0.00  0.00    +0.000 N 
ATOM     20  H   UNL     1       6.648   3.023  16.893  0.00  0.00    +0.000 HD
BRANCH  19  25
ATOM     21  C   UNL     1       1.747   4.957  20.326  0.00  0.00    +0.000 C 
ATOM     22  C   UNL     1       2.911   4.671  19.416  0.00  0.00    +0.000 A 
ATOM     23  C   UNL     1       4.215   4.820  19.906  0.00  0.00    +0.000 A 
ATOM     24  C   UNL     1       5.322   4.598  19.080  0.00  0.00    +0.000 A 
ATOM     25  C   UNL     1       5.165   4.177  17.758  0.00  0.00    +0.000 A 
ATOM     26  C   UNL     1       3.858   4.070  17.254  0.00  0.00    +0.000 A 
ATOM     27  C   UNL     1       2.727   4.309  18.068  0.00  0.00    +0.000 A 
ATOM     28  C   UNL     1       1.343   4.201  17.483  0.00  0.00    +0.000 C 
BRANCH  24  29
ATOM     29  O   UNL     1       6.554   4.946  19.564  0.00  0.00    +0.000 OA
ATOM     30  H   UNL     1       6.789   4.310  20.258  0.00  0.00    +0.000 HD
ENDBRANCH  24  29
ENDBRANCH  19  25
ENDBRANCH  17  19
ENDBRANCH   1  17
TORSDOF 6
ENDMDL
MODEL 4
REMARK VINA RESULT:      -8.6      4.244      6.810
REMARK  Name = 
REMARK  8 active torsions:
REMARK  status: ('A' for Active; 'I' for Inactive)
REMARK    1  A    between atoms: C_1  and  C_2
REMARK    2  A    between atoms: C_4  and  O_5
REMARK    3  A    between atoms: C_6  and  N_7
REMARK    4  A    between atoms: N_7  and  C_8
REMARK    5  A    between atoms: C_8  and  N_10
REMARK    6  A    between atoms: C_11  and  C_13
REMARK    7  A    between atoms: C_16  and  C_17
REMARK    8  A    between atoms: C_26  and  C_27
REMARK                            x       y       z     vdW  Elec       q    Type
REMARK                         _______ _______ _______ _____ _____    ______ ____
ROOT
ATOM      1  N   UNL     1       5.721   6.195  18.108  0.00  0.00    +0.000 N 
ATOM      2  C   UNL     1       5.226   5.283  19.025  0.00  0.00    +0.000 C 
ATOM      3  O   UNL     1       5.845   4.264  19.332  0.00  0.00    +0.000 OA
ATOM      4  H   UNL     1       5.095   6.939  17.826  0.00  0.00    +0.000 HD
ENDROOT
BRANCH   2   5
ATOM      5  C   UNL     1       3.906   5.572  19.557  0.00  0.00    +0.000 A 
ATOM      6  C   UNL     1       2.998   4.716  20.150  0.00  0.00    +0.000 A 
ATOM      7  C   UNL     1       1.878   5.493  20.517  0.00  0.00    +0.000 A 
ATOM      8  C   UNL     1       2.143   6.790  20.121  0.00  0.00    +0.000 A 
ATOM      9  O   UNL     1       3.384   6.842  19.528  0.00  0.00    +0.000 OA
BRANCH   8  10
ATOM     10  C   UNL     1       1.384   8.040  20.214  0.00  0.00    +0.000 A 
ATOM     11  C   UNL     1       0.613   8.326  21.354  0.00  0.00    +0.000 A 
ATOM     12  C   UNL     1      -0.145   9.501  21.443  0.00  0.00    +0.000 A 
ATOM     13  C   UNL     1      -0.138  10.406  20.387  0.00  0.00    +0.000 A 
ATOM     14 CL   UNL     1      -1.087  11.838  20.479  0.00  0.00    +0.000 Cl
ATOM     15  C   UNL     1       0.630  10.153  19.255  0.00  0.00    +0.000 A 
ATOM     16  C   UNL     1       1.387   8.977  19.170  0.00  0.00    +0.000 A 
ENDBRANCH   8  10
ENDBRANCH   2   5
BRANCH   1  17
ATOM     17  C   UNL     1       7.003   6.281  17.583  0.00  0.00    +0.000 C 
ATOM     18  S   UNL     1       7.814   7.730  17.814  0.00  0.00    +0.000 S 
BRANCH  17  19
ATOM     19  N   UNL     1       7.426   5.178  16.869  0.00  0.00    +0.000 N 
ATOM     20  H   UNL     1       8.187   4.660  17.306  0.00  0.00    +0.000 HD
BRANCH  19  25
ATOM     21  C   UNL     1       5.496   3.170  11.823  0.00  0.00    +0.000 C 
ATOM     22  C   UNL     1       6.024   3.687  13.135  0.00  0.00    +0.000 A 
ATOM     23  C   UNL     1       5.460   3.222  14.330  0.00  0.00    +0.000 A 
ATOM     24  C   UNL     1       5.900   3.704  15.566  0.00  0.00    +0.000 A 
ATOM     25  C   UNL     1       6.944   4.629  15.652  0.00  0.00    +0.000 A 
ATOM     26  C   UNL     1       7.479   5.127  14.453  0.00  0.00    +0.000 A 
ATOM     27  C   UNL     1       7.035   4.665  13.193  0.00  0.00    +0.000 A 
ATOM     28  C   UNL     1       7.623   5.240  11.931  0.00  0.00    +0.000 C 
BRANCH  24  29
ATOM     29  O   UNL     1       5.179   3.355  16.676  0.00  0.00    +0.000 OA
ATOM     30  H   UNL     1       5.557   2.532  17.025  0.00  0.00    +0.000 HD
ENDBRANCH  24  29
ENDBRANCH  19  25
ENDBRANCH  17  19
ENDBRANCH   1  17
TORSDOF 6
ENDMDL
MODEL 5
REMARK VINA RESULT:      -8.3      0.857      1.271
REMARK  Name = 
REMARK  8 active torsions:
REMARK  status: ('A' for Active; 'I' for Inactive)
REMARK    1  A    between atoms: C_1  and  C_2
REMARK    2  A    between atoms: C_4  and  O_5
REMARK    3  A    between atoms: C_6  and  N_7
REMARK    4  A    between atoms: N_7  and  C_8
REMARK    5  A    between atoms: C_8  and  N_10
REMARK    6  A    between atoms: C_11  and  C_13
REMARK    7  A    between atoms: C_16  and  C_17
REMARK    8  A    between atoms: C_26  and  C_27
REMARK                            x       y       z     vdW  Elec       q    Type
REMARK                         _______ _______ _______ _____ _____    ______ ____
ROOT
ATOM      1  N   UNL     1       6.097   5.080  16.434  0.00  0.00    +0.000 N 
ATOM      2  C   UNL     1       6.106   6.464  16.506  0.00  0.00    +0.000 C 
ATOM      3  O   UNL     1       5.400   7.160  15.776  0.00  0.00    +0.000 OA
ATOM      4  H   UNL     1       6.794   4.594  16.984  0.00  0.00    +0.000 HD
ENDROOT
BRANCH   2   5
ATOM      5  C   UNL     1       7.044   7.043  17.452  0.00  0.00    +0.000 A 
ATOM      6  C   UNL     1       7.746   6.429  18.471  0.00  0.00    +0.000 A 
ATOM      7  C   UNL     1       8.541   7.423  19.081  0.00  0.00    +0.000 A 
ATOM      8  C   UNL     1       8.282   8.606  18.417  0.00  0.00    +0.000 A 
ATOM      9  O   UNL     1       7.362   8.378  17.419  0.00  0.00    +0.000 OA
BRANCH   8  10
ATOM     10  C   UNL     1       8.783   9.974  18.577  0.00  0.00    +0.000 A 
ATOM     11  C   UNL     1       8.502  10.956  17.612  0.00  0.00    +0.000 A 
ATOM     12  C   UNL     1       9.003  12.260  17.734  0.00  0.00    +0.000 A 
ATOM     13  C   UNL     1       9.793  12.594  18.828  0.00  0.00    +0.000 A 
ATOM     14 CL   UNL     1      10.433  14.184  18.970  0.00  0.00    +0.000 Cl
ATOM     15  C   UNL     1      10.072  11.642  19.805  0.00  0.00    +0.000 A 
ATOM     16  C   UNL     1       9.569  10.341  19.680  0.00  0.00    +0.000 A 
ENDBRANCH   8  10
ENDBRANCH   2   5
BRANCH   1  17
ATOM     17  C   UNL     1       5.196   4.257  15.774  0.00  0.00    +0.000 C 
ATOM     18  S   UNL     1       5.762   3.466  14.408  0.00  0.00    +0.000 S 
BRANCH  17  19
ATOM     19  N   UNL     1       3.915   4.248  16.288  0.00  0.00    +0.000 N 
ATOM     20  H   UNL     1       3.187   4.465  15.609  0.00  0.00    +0.000 HD
BRANCH  19  25
ATOM     21  C   UNL     1       2.099   3.236  21.664  0.00  0.00    +0.000 C 
ATOM     22  C   UNL     1       2.550   3.508  20.254  0.00  0.00    +0.000 A 
ATOM     23  C   UNL     1       3.117   2.469  19.504  0.00  0.00    +0.000 A 
ATOM     24  C   UNL     1       3.579   2.693  18.203  0.00  0.00    +0.000 A 
ATOM     25  C   UNL     1       3.449   3.943  17.594  0.00  0.00    +0.000 A 
ATOM     26  C   UNL     1       2.921   4.995  18.361  0.00  0.00    +0.000 A 
ATOM     27  C   UNL     1       2.465   4.793  19.684  0.00  0.00    +0.000 A 
ATOM     28  C   UNL     1       1.923   5.952  20.477  0.00  0.00    +0.000 C 
BRANCH  24  29
ATOM     29  O   UNL     1       4.292   1.691  17.603  0.00  0.00    +0.000 OA
ATOM     30  H   UNL     1       3.661   1.017  17.305  0.00  0.00    +0.000 HD
ENDBRANCH  24  29
ENDBRANCH  19  25
ENDBRANCH  17  19
ENDBRANCH   1  17
TORSDOF 6
ENDMDL
MODEL 6
REMARK VINA RESULT:      -8.3      4.406      7.170
REMARK  Name = 
REMARK  8 active torsions:
REMARK  status: ('A' for Active; 'I' for Inactive)
REMARK    1  A    between atoms: C_1  and  C_2
REMARK    2  A    between atoms: C_4  and  O_5
REMARK    3  A    between atoms: C_6  and  N_7
REMARK    4  A    between atoms: N_7  and  C_8
REMARK    5  A    between atoms: C_8  and  N_10
REMARK    6  A    between atoms: C_11  and  C_13
REMARK    7  A    between atoms: C_16  and  C_17
REMARK    8  A    between atoms: C_26  and  C_27
REMARK                            x       y       z     vdW  Elec       q    Type
REMARK                         _______ _______ _______ _____ _____    ______ ____
ROOT
ATOM      1  N   UNL     1       2.778   5.270  17.760  0.00  0.00    +0.000 N 
ATOM      2  C   UNL     1       2.816   6.005  18.933  0.00  0.00    +0.000 C 
ATOM      3  O   UNL     1       3.244   5.532  19.986  0.00  0.00    +0.000 OA
ATOM      4  H   UNL     1       2.301   5.695  16.975  0.00  0.00    +0.000 HD
ENDROOT
BRANCH   2   5
ATOM      5  C   UNL     1       2.264   7.347  18.859  0.00  0.00    +0.000 A 
ATOM      6  C   UNL     1       2.236   8.220  17.788  0.00  0.00    +0.000 A 
ATOM      7  C   UNL     1       1.565   9.383  18.223  0.00  0.00    +0.000 A 
ATOM      8  C   UNL     1       1.222   9.177  19.545  0.00  0.00    +0.000 A 
ATOM      9  O   UNL     1       1.652   7.931  19.940  0.00  0.00    +0.000 OA
BRANCH   8  10
ATOM     10  C   UNL     1       0.525   9.999  20.538  0.00  0.00    +0.000 A 
ATOM     11  C   UNL     1       0.083   9.438  21.749  0.00  0.00    +0.000 A 
ATOM     12  C   UNL     1      -0.615  10.203  22.693  0.00  0.00    +0.000 A 
ATOM     13  C   UNL     1      -0.879  11.543  22.433  0.00  0.00    +0.000 A 
ATOM     14 CL   UNL     1      -1.758  12.481  23.576  0.00  0.00    +0.000 Cl
ATOM     15  C   UNL     1      -0.437  12.126  21.249  0.00  0.00    +0.000 A 
ATOM     16  C   UNL     1       0.261  11.357  20.308  0.00  0.00    +0.000 A 
ENDBRANCH   8  10
ENDBRANCH   2   5
BRANCH   1  17
ATOM     17  C   UNL     1       3.388   4.055  17.483  0.00  0.00    +0.000 C 
ATOM     18  S   UNL     1       2.453   2.680  17.694  0.00  0.00    +0.000 S 
BRANCH  17  19
ATOM     19  N   UNL     1       4.722   4.127  17.134  0.00  0.00    +0.000 N 
ATOM     20  H   UNL     1       5.050   3.351  16.561  0.00  0.00    +0.000 HD
BRANCH  19  25
ATOM     21  C   UNL     1       8.633   8.139  18.487  0.00  0.00    +0.000 C 
ATOM     22  C   UNL     1       7.631   7.073  18.131  0.00  0.00    +0.000 A 
ATOM     23  C   UNL     1       6.761   7.285  17.053  0.00  0.00    +0.000 A 
ATOM     24  C   UNL     1       5.794   6.335  16.714  0.00  0.00    +0.000 A 
ATOM     25  C   UNL     1       5.692   5.127  17.407  0.00  0.00    +0.000 A 
ATOM     26  C   UNL     1       6.534   4.933  18.515  0.00  0.00    +0.000 A 
ATOM     27  C   UNL     1       7.506   5.891  18.885  0.00  0.00    +0.000 A 
ATOM     28  C   UNL     1       8.376   5.652  20.091  0.00  0.00    +0.000 C 
BRANCH  24  29
ATOM     29  O   UNL     1       4.858   6.688  15.779  0.00  0.00    +0.000 OA
ATOM     30  H   UNL     1       3.982   6.537  16.167  0.00  0.00    +0.000 HD
ENDBRANCH  24  29
ENDBRANCH  19  25
ENDBRANCH  17  19
ENDBRANCH   1  17
TORSDOF 6
ENDMDL
MODEL 7
REMARK VINA RESULT:      -8.3      4.832      7.187
REMARK  Name = 
REMARK  8 active torsions:
REMARK  status: ('A' for Active; 'I' for Inactive)
REMARK    1  A    between atoms: C_1  and  C_2
REMARK    2  A    between atoms: C_4  and  O_5
REMARK    3  A    between atoms: C_6  and  N_7
REMARK    4  A    between atoms: N_7  and  C_8
REMARK    5  A    between atoms: C_8  and  N_10
REMARK    6  A    between atoms: C_11  and  C_13
REMARK    7  A    between atoms: C_16  and  C_17
REMARK    8  A    between atoms: C_26  and  C_27
REMARK                            x       y       z     vdW  Elec       q    Type
REMARK                         _______ _______ _______ _____ _____    ______ ____
ROOT
ATOM      1  N   UNL     1       3.348   4.899  18.056  0.00  0.00    +0.000 N 
ATOM      2  C   UNL     1       3.149   5.751  19.130  0.00  0.00    +0.000 C 
ATOM      3  O   UNL     1       3.297   5.379  20.295  0.00  0.00    +0.000 OA
ATOM      4  H   UNL     1       3.089   5.252  17.144  0.00  0.00    +0.000 HD
ENDROOT
BRANCH   2   5
ATOM      5  C   UNL     1       2.698   7.092  18.800  0.00  0.00    +0.000 A 
ATOM      6  C   UNL     1       3.049   7.891  17.729  0.00  0.00    +0.000 A 
ATOM      7  C   UNL     1       2.315   9.089  17.851  0.00  0.00    +0.000 A 
ATOM      8  C   UNL     1       1.554   8.979  18.998  0.00  0.00    +0.000 A 
ATOM      9  O   UNL     1       1.790   7.756  19.586  0.00  0.00    +0.000 OA
BRANCH   8  10
ATOM     10  C   UNL     1       0.602   9.875  19.659  0.00  0.00    +0.000 A 
ATOM     11  C   UNL     1      -0.536  10.340  18.976  0.00  0.00    +0.000 A 
ATOM     12  C   UNL     1      -1.437  11.225  19.583  0.00  0.00    +0.000 A 
ATOM     13  C   UNL     1      -1.208  11.655  20.885  0.00  0.00    +0.000 A 
ATOM     14 CL   UNL     1      -2.295  12.762  21.627  0.00  0.00    +0.000 Cl
ATOM     15  C   UNL     1      -0.097  11.197  21.588  0.00  0.00    +0.000 A 
ATOM     16  C   UNL     1       0.801  10.311  20.977  0.00  0.00    +0.000 A 
ENDBRANCH   8  10
ENDBRANCH   2   5
BRANCH   1  17
ATOM     17  C   UNL     1       3.944   3.645  18.049  0.00  0.00    +0.000 C 
ATOM     18  S   UNL     1       3.003   2.363  18.579  0.00  0.00    +0.000 S 
BRANCH  17  19
ATOM     19  N   UNL     1       5.271   3.622  17.669  0.00  0.00    +0.000 N 
ATOM     20  H   UNL     1       5.894   3.183  18.344  0.00  0.00    +0.000 HD
BRANCH  19  25
ATOM     21  C   UNL     1       7.744   5.230  12.717  0.00  0.00    +0.000 C 
ATOM     22  C   UNL     1       7.076   4.822  14.003  0.00  0.00    +0.000 A 
ATOM     23  C   UNL     1       7.654   5.196  15.223  0.00  0.00    +0.000 A 
ATOM     24  C   UNL     1       7.083   4.805  16.438  0.00  0.00    +0.000 A 
ATOM     25  C   UNL     1       5.895   4.071  16.476  0.00  0.00    +0.000 A 
ATOM     26  C   UNL     1       5.339   3.660  15.253  0.00  0.00    +0.000 A 
ATOM     27  C   UNL     1       5.912   4.029  14.015  0.00  0.00    +0.000 A 
ATOM     28  C   UNL     1       5.295   3.551  12.728  0.00  0.00    +0.000 C 
BRANCH  24  29
ATOM     29  O   UNL     1       7.800   5.038  17.580  0.00  0.00    +0.000 OA
ATOM     30  H   UNL     1       7.366   4.559  18.304  0.00  0.00    +0.000 HD
ENDBRANCH  24  29
ENDBRANCH  19  25
ENDBRANCH  17  19
ENDBRANCH   1  17
TORSDOF 6
ENDMDL
MODEL 8
REMARK VINA RESULT:      -8.3      7.371      9.694
REMARK  Name = 
REMARK  8 active torsions:
REMARK  status: ('A' for Active; 'I' for Inactive)
REMARK    1  A    between atoms: C_1  and  C_2
REMARK    2  A    between atoms: C_4  and  O_5
REMARK    3  A    between atoms: C_6  and  N_7
REMARK    4  A    between atoms: N_7  and  C_8
REMARK    5  A    between atoms: C_8  and  N_10
REMARK    6  A    between atoms: C_11  and  C_13
REMARK    7  A    between atoms: C_16  and  C_17
REMARK    8  A    between atoms: C_26  and  C_27
REMARK                            x       y       z     vdW  Elec       q    Type
REMARK                         _______ _______ _______ _____ _____    ______ ____
ROOT
ATOM      1  N   UNL     1      -0.954  10.302  17.913  0.00  0.00    +0.000 N 
ATOM      2  C   UNL     1       0.292  10.561  18.461  0.00  0.00    +0.000 C 
ATOM      3  O   UNL     1       0.757  11.699  18.516  0.00  0.00    +0.000 OA
ATOM      4  H   UNL     1      -1.205   9.329  17.800  0.00  0.00    +0.000 HD
ENDROOT
BRANCH   2   5
ATOM      5  C   UNL     1       1.039   9.400  18.913  0.00  0.00    +0.000 A 
ATOM      6  C   UNL     1       1.142   8.870  20.185  0.00  0.00    +0.000 A 
ATOM      7  C   UNL     1       1.963   7.727  20.089  0.00  0.00    +0.000 A 
ATOM      8  C   UNL     1       2.338   7.612  18.765  0.00  0.00    +0.000 A 
ATOM      9  O   UNL     1       1.776   8.638  18.041  0.00  0.00    +0.000 OA
BRANCH   8  10
ATOM     10  C   UNL     1       3.175   6.651  18.041  0.00  0.00    +0.000 A 
ATOM     11  C   UNL     1       4.319   7.081  17.345  0.00  0.00    +0.000 A 
ATOM     12  C   UNL     1       5.110   6.179  16.620  0.00  0.00    +0.000 A 
ATOM     13  C   UNL     1       4.762   4.833  16.583  0.00  0.00    +0.000 A 
ATOM     14 CL   UNL     1       5.712   3.726  15.674  0.00  0.00    +0.000 Cl
ATOM     15  C   UNL     1       3.643   4.381  17.277  0.00  0.00    +0.000 A 
ATOM     16  C   UNL     1       2.856   5.286  18.002  0.00  0.00    +0.000 A 
ENDBRANCH   8  10
ENDBRANCH   2   5
BRANCH   1  17
ATOM     17  C   UNL     1      -1.952  11.206  17.575  0.00  0.00    +0.000 C 
ATOM     18  S   UNL     1      -2.830  10.871  16.187  0.00  0.00    +0.000 S 
BRANCH  17  19
ATOM     19  N   UNL     1      -2.050  12.313  18.394  0.00  0.00    +0.000 N 
ATOM     20  H   UNL     1      -1.637  13.160  18.006  0.00  0.00    +0.000 HD
BRANCH  19  25
ATOM     21  C   UNL     1      -4.412  12.769  23.631  0.00  0.00    +0.000 C 
ATOM     22  C   UNL     1      -3.778  12.669  22.269  0.00  0.00    +0.000 A 
ATOM     23  C   UNL     1      -4.581  12.813  21.130  0.00  0.00    +0.000 A 
ATOM     24  C   UNL     1      -4.035  12.691  19.848  0.00  0.00    +0.000 A 
ATOM     25  C   UNL     1      -2.669  12.469  19.662  0.00  0.00    +0.000 A 
ATOM     26  C   UNL     1      -1.872  12.283  20.804  0.00  0.00    +0.000 A 
ATOM     27  C   UNL     1      -2.409  12.383  22.108  0.00  0.00    +0.000 A 
ATOM     28  C   UNL     1      -1.524  12.157  23.305  0.00  0.00    +0.000 C 
BRANCH  24  29
ATOM     29  O   UNL     1      -4.903  12.650  18.791  0.00  0.00    +0.000 OA
ATOM     30  H   UNL     1      -4.615  13.315  18.147  0.00  0.00    +0.000 HD
ENDBRANCH  24  29
ENDBRANCH  19  25
ENDBRANCH  17  19
ENDBRANCH   1  17
TORSDOF 6
ENDMDL
MODEL 9
REMARK VINA RESULT:      -8.2      6.547      9.003
REMARK  Name = 
REMARK  8 active torsions:
REMARK  status: ('A' for Active; 'I' for Inactive)
REMARK    1  A    between atoms: C_1  and  C_2
REMARK    2  A    between atoms: C_4  and  O_5
REMARK    3  A    between atoms: C_6  and  N_7
REMARK    4  A    between atoms: N_7  and  C_8
REMARK    5  A    between atoms: C_8  and  N_10
REMARK    6  A    between atoms: C_11  and  C_13
REMARK    7  A    between atoms: C_16  and  C_17
REMARK    8  A    between atoms: C_26  and  C_27
REMARK                            x       y       z     vdW  Elec       q    Type
REMARK                         _______ _______ _______ _____ _____    ______ ____
ROOT
ATOM      1  N   UNL     1       0.491   8.955  20.812  0.00  0.00    +0.000 N 
ATOM      2  C   UNL     1       1.405   8.902  19.772  0.00  0.00    +0.000 C 
ATOM      3  O   UNL     1       1.608   9.865  19.032  0.00  0.00    +0.000 OA
ATOM      4  H   UNL     1       0.301   8.084  21.292  0.00  0.00    +0.000 HD
ENDROOT
BRANCH   2   5
ATOM      5  C   UNL     1       2.065   7.623  19.572  0.00  0.00    +0.000 A 
ATOM      6  C   UNL     1       2.071   6.509  20.389  0.00  0.00    +0.000 A 
ATOM      7  C   UNL     1       2.836   5.521  19.731  0.00  0.00    +0.000 A 
ATOM      8  C   UNL     1       3.276   6.078  18.546  0.00  0.00    +0.000 A 
ATOM      9  O   UNL     1       2.808   7.369  18.447  0.00  0.00    +0.000 OA
BRANCH   8  10
ATOM     10  C   UNL     1       4.100   5.570  17.446  0.00  0.00    +0.000 A 
ATOM     11  C   UNL     1       4.697   6.454  16.531  0.00  0.00    +0.000 A 
ATOM     12  C   UNL     1       5.460   5.981  15.455  0.00  0.00    +0.000 A 
ATOM     13  C   UNL     1       5.633   4.613  15.282  0.00  0.00    +0.000 A 
ATOM     14 CL   UNL     1       6.545   4.024  13.949  0.00  0.00    +0.000 Cl
ATOM     15  C   UNL     1       5.065   3.717  16.185  0.00  0.00    +0.000 A 
ATOM     16  C   UNL     1       4.304   4.195  17.261  0.00  0.00    +0.000 A 
ENDBRANCH   8  10
ENDBRANCH   2   5
BRANCH   1  17
ATOM     17  C   UNL     1      -0.141  10.067  21.349  0.00  0.00    +0.000 C 
ATOM     18  S   UNL     1      -0.491  10.014  22.988  0.00  0.00    +0.000 S 
BRANCH  17  19
ATOM     19  N   UNL     1      -0.467  11.057  20.445  0.00  0.00    +0.000 N 
ATOM     20  H   UNL     1       0.250  11.771  20.324  0.00  0.00    +0.000 HD
BRANCH  19  25
ATOM     21  C   UNL     1      -4.990  11.681  16.927  0.00  0.00    +0.000 C 
ATOM     22  C   UNL     1      -3.813  11.492  17.846  0.00  0.00    +0.000 A 
ATOM     23  C   UNL     1      -3.767  12.203  19.053  0.00  0.00    +0.000 A 
ATOM     24  C   UNL     1      -2.674  12.081  19.916  0.00  0.00    +0.000 A 
ATOM     25  C   UNL     1      -1.617  11.215  19.628  0.00  0.00    +0.000 A 
ATOM     26  C   UNL     1      -1.643  10.536  18.398  0.00  0.00    +0.000 A 
ATOM     27  C   UNL     1      -2.730  10.660  17.503  0.00  0.00    +0.000 A 
ATOM     28  C   UNL     1      -2.709   9.929  16.187  0.00  0.00    +0.000 C 
BRANCH  24  29
ATOM     29  O   UNL     1      -2.605  12.944  20.977  0.00  0.00    +0.000 OA
ATOM     30  H   UNL     1      -3.230  12.634  21.651  0.00  0.00    +0.000 HD
ENDBRANCH  24  29
ENDBRANCH  19  25
ENDBRANCH  17  19
ENDBRANCH   1  17
TORSDOF 6
ENDMDL
