MODEL 1
REMARK VINA RESULT:      -7.3      0.000      0.000
REMARK  Name = 
REMARK  3 active torsions:
REMARK  status: ('A' for Active; 'I' for Inactive)
REMARK    1  A    between atoms: C_2  and  C_3
REMARK    2  A    between atoms: C_4  and  O_5
REMARK    3  A    between atoms: C_15  and  C_16
REMARK                            x       y       z     vdW  Elec       q    Type
REMARK                         _______ _______ _______ _____ _____    ______ ____
ROOT
ATOM      1  O   UNL     1       6.282   3.649  16.114  0.00  0.00    +0.000 OA
ATOM      2  C   UNL     1       5.659   4.470  16.784  0.00  0.00    +0.000 C 
ATOM      3  N   UNL     1       4.365   4.206  17.235  0.00  0.00    +0.000 N 
ATOM      4  C   UNL     1       3.758   2.920  16.910  0.00  0.00    +0.000 C 
ATOM      5  C   UNL     1       2.258   3.105  17.099  0.00  0.00    +0.000 C 
ATOM      6  C   UNL     1       2.124   4.296  18.054  0.00  0.00    +0.000 C 
ATOM      7  C   UNL     1       3.337   5.159  17.672  0.00  0.00    +0.000 C 
ENDROOT
BRANCH   2   8
ATOM      8  C   UNL     1       6.362   5.702  17.230  0.00  0.00    +0.000 A 
ATOM      9  C   UNL     1       7.432   5.606  18.135  0.00  0.00    +0.000 A 
ATOM     10  C   UNL     1       8.119   6.736  18.572  0.00  0.00    +0.000 A 
ATOM     11  C   UNL     1       7.822   7.974  18.019  0.00  0.00    +0.000 A 
ATOM     12 CL   UNL     1       8.710   9.361  18.512  0.00  0.00    +0.000 Cl
ATOM     13  C   UNL     1       6.833   8.089  17.046  0.00  0.00    +0.000 A 
ATOM     14  C   UNL     1       6.090   6.961  16.662  0.00  0.00    +0.000 A 
ATOM     15 CL   UNL     1       4.855   7.230  15.481  0.00  0.00    +0.000 Cl
BRANCH   9  16
ATOM     16  O   UNL     1       7.924   4.417  18.603  0.00  0.00    +0.000 OA
ATOM     17  H   UNL     1       8.750   4.588  19.092  0.00  0.00    +0.000 HD
ENDBRANCH   9  16
ENDBRANCH   2   8
BRANCH   6  18
ATOM     18  C   UNL     1       2.029   3.904  19.523  0.00  0.00    +0.000 A 
ATOM     19  C   UNL     1       2.611   4.636  20.562  0.00  0.00    +0.000 A 
ATOM     20  C   UNL     1       2.493   4.177  21.869  0.00  0.00    +0.000 A 
ATOM     21  N   UNL     1       1.831   3.052  22.211  0.00  0.00    +0.000 NA
ATOM     22  C   UNL     1       1.274   2.355  21.207  0.00  0.00    +0.000 A 
ATOM     23  C   UNL     1       1.340   2.733  19.872  0.00  0.00    +0.000 A 
ENDBRANCH   6  18
TORSDOF 3
ENDMDL
MODEL 2
REMARK VINA RESULT:      -6.3     11.008     12.628
REMARK  Name = 
REMARK  3 active torsions:
REMARK  status: ('A' for Active; 'I' for Inactive)
REMARK    1  A    between atoms: C_2  and  C_3
REMARK    2  A    between atoms: C_4  and  O_5
REMARK    3  A    between atoms: C_15  and  C_16
REMARK                            x       y       z     vdW  Elec       q    Type
REMARK                         _______ _______ _______ _____ _____    ______ ____
ROOT
ATOM      1  O   UNL     1      -6.353  12.343  16.889  0.00  0.00    +0.000 OA
ATOM      2  C   UNL     1      -5.717  11.828  17.805  0.00  0.00    +0.000 C 
ATOM      3  N   UNL     1      -4.477  11.227  17.580  0.00  0.00    +0.000 N 
ATOM      4  C   UNL     1      -3.932  11.231  16.227  0.00  0.00    +0.000 C 
ATOM      5  C   UNL     1      -2.871  10.138  16.199  0.00  0.00    +0.000 C 
ATOM      6  C   UNL     1      -2.464   9.946  17.664  0.00  0.00    +0.000 C 
ATOM      7  C   UNL     1      -3.776  10.238  18.409  0.00  0.00    +0.000 C 
ENDROOT
BRANCH   2   8
ATOM      8  C   UNL     1      -6.225  11.978  19.195  0.00  0.00    +0.000 A 
ATOM      9  C   UNL     1      -6.145  13.226  19.835  0.00  0.00    +0.000 A 
ATOM     10  C   UNL     1      -6.615  13.409  21.133  0.00  0.00    +0.000 A 
ATOM     11  C   UNL     1      -7.281  12.372  21.772  0.00  0.00    +0.000 A 
ATOM     12 CL   UNL     1      -7.916  12.615  23.352  0.00  0.00    +0.000 Cl
ATOM     13  C   UNL     1      -7.464  11.153  21.127  0.00  0.00    +0.000 A 
ATOM     14  C   UNL     1      -6.923  10.946  19.848  0.00  0.00    +0.000 A 
ATOM     15 CL   UNL     1      -7.171   9.378  19.161  0.00  0.00    +0.000 Cl
BRANCH   9  16
ATOM     16  O   UNL     1      -5.672  14.360  19.230  0.00  0.00    +0.000 OA
ATOM     17  H   UNL     1      -6.381  15.029  19.214  0.00  0.00    +0.000 HD
ENDBRANCH   9  16
ENDBRANCH   2   8
BRANCH   6  18
ATOM     18  C   UNL     1      -1.264  10.782  18.087  0.00  0.00    +0.000 A 
ATOM     19  C   UNL     1      -1.283  12.177  18.181  0.00  0.00    +0.000 A 
ATOM     20  C   UNL     1      -0.124  12.851  18.548  0.00  0.00    +0.000 A 
ATOM     21  N   UNL     1       1.041  12.236  18.837  0.00  0.00    +0.000 NA
ATOM     22  C   UNL     1       1.051  10.895  18.746  0.00  0.00    +0.000 A 
ATOM     23  C   UNL     1      -0.055  10.136  18.386  0.00  0.00    +0.000 A 
ENDBRANCH   6  18
TORSDOF 3
ENDMDL
MODEL 3
REMARK VINA RESULT:      -6.1      3.110      6.552
REMARK  Name = 
REMARK  3 active torsions:
REMARK  status: ('A' for Active; 'I' for Inactive)
REMARK    1  A    between atoms: C_2  and  C_3
REMARK    2  A    between atoms: C_4  and  O_5
REMARK    3  A    between atoms: C_15  and  C_16
REMARK                            x       y       z     vdW  Elec       q    Type
REMARK                         _______ _______ _______ _____ _____    ______ ____
ROOT
ATOM      1  O   UNL     1       6.420   4.766  20.071  0.00  0.00    +0.000 OA
ATOM      2  C   UNL     1       5.611   4.897  19.156  0.00  0.00    +0.000 C 
ATOM      3  N   UNL     1       5.988   5.434  17.924  0.00  0.00    +0.000 N 
ATOM      4  C   UNL     1       7.379   5.829  17.729  0.00  0.00    +0.000 C 
ATOM      5  C   UNL     1       7.381   6.779  16.537  0.00  0.00    +0.000 C 
ATOM      6  C   UNL     1       6.101   6.445  15.764  0.00  0.00    +0.000 C 
ATOM      7  C   UNL     1       5.137   6.033  16.889  0.00  0.00    +0.000 C 
ENDROOT
BRANCH   2   8
ATOM      8  C   UNL     1       4.243   4.341  19.333  0.00  0.00    +0.000 A 
ATOM      9  C   UNL     1       4.068   2.957  19.495  0.00  0.00    +0.000 A 
ATOM     10  C   UNL     1       2.804   2.399  19.669  0.00  0.00    +0.000 A 
ATOM     11  C   UNL     1       1.701   3.230  19.802  0.00  0.00    +0.000 A 
ATOM     12 CL   UNL     1       0.148   2.546  20.078  0.00  0.00    +0.000 Cl
ATOM     13  C   UNL     1       1.854   4.612  19.744  0.00  0.00    +0.000 A 
ATOM     14  C   UNL     1       3.117   5.170  19.493  0.00  0.00    +0.000 A 
ATOM     15 CL   UNL     1       3.181   6.896  19.396  0.00  0.00    +0.000 Cl
BRANCH   9  16
ATOM     16  O   UNL     1       5.105   2.065  19.561  0.00  0.00    +0.000 OA
ATOM     17  H   UNL     1       4.953   1.356  18.908  0.00  0.00    +0.000 HD
ENDBRANCH   9  16
ENDBRANCH   2   8
BRANCH   6  18
ATOM     18  C   UNL     1       6.298   5.419  14.655  0.00  0.00    +0.000 A 
ATOM     19  C   UNL     1       7.399   5.408  13.793  0.00  0.00    +0.000 A 
ATOM     20  C   UNL     1       7.470   4.447  12.791  0.00  0.00    +0.000 A 
ATOM     21  N   UNL     1       6.533   3.496  12.598  0.00  0.00    +0.000 NA
ATOM     22  C   UNL     1       5.479   3.512  13.431  0.00  0.00    +0.000 A 
ATOM     23  C   UNL     1       5.320   4.433  14.458  0.00  0.00    +0.000 A 
ENDBRANCH   6  18
TORSDOF 3
ENDMDL
MODEL 4
REMARK VINA RESULT:      -6.1     10.624     12.277
REMARK  Name = 
REMARK  3 active torsions:
REMARK  status: ('A' for Active; 'I' for Inactive)
REMARK    1  A    between atoms: C_2  and  C_3
REMARK    2  A    between atoms: C_4  and  O_5
REMARK    3  A    between atoms: C_15  and  C_16
REMARK                            x       y       z     vdW  Elec       q    Type
REMARK                         _______ _______ _______ _____ _____    ______ ____
ROOT
ATOM      1  O   UNL     1      -5.852  12.680  16.904  0.00  0.00    +0.000 OA
ATOM      2  C   UNL     1      -5.381  11.957  17.778  0.00  0.00    +0.000 C 
ATOM      3  N   UNL     1      -4.193  11.252  17.576  0.00  0.00    +0.000 N 
ATOM      4  C   UNL     1      -3.501  11.398  16.300  0.00  0.00    +0.000 C 
ATOM      5  C   UNL     1      -2.564  10.202  16.193  0.00  0.00    +0.000 C 
ATOM      6  C   UNL     1      -2.347   9.739  17.638  0.00  0.00    +0.000 C 
ATOM      7  C   UNL     1      -3.697  10.071  18.293  0.00  0.00    +0.000 C 
ENDROOT
BRANCH   2   8
ATOM      8  C   UNL     1      -6.024  11.953  19.119  0.00  0.00    +0.000 A 
ATOM      9  C   UNL     1      -7.004  10.993  19.420  0.00  0.00    +0.000 A 
ATOM     10  C   UNL     1      -7.626  10.954  20.665  0.00  0.00    +0.000 A 
ATOM     11  C   UNL     1      -7.192  11.803  21.674  0.00  0.00    +0.000 A 
ATOM     12 CL   UNL     1      -7.916  11.714  23.231  0.00  0.00    +0.000 Cl
ATOM     13  C   UNL     1      -6.155  12.700  21.437  0.00  0.00    +0.000 A 
ATOM     14  C   UNL     1      -5.581  12.791  20.159  0.00  0.00    +0.000 A 
ATOM     15 CL   UNL     1      -4.332  13.973  19.968  0.00  0.00    +0.000 Cl
BRANCH   9  16
ATOM     16  O   UNL     1      -7.376   9.995  18.559  0.00  0.00    +0.000 OA
ATOM     17  H   UNL     1      -6.607   9.744  18.015  0.00  0.00    +0.000 HD
ENDBRANCH   9  16
ENDBRANCH   2   8
BRANCH   6  18
ATOM     18  C   UNL     1      -1.122  10.350  18.306  0.00  0.00    +0.000 A 
ATOM     19  C   UNL     1      -1.179  11.412  19.213  0.00  0.00    +0.000 A 
ATOM     20  C   UNL     1       0.001  11.919  19.745  0.00  0.00    +0.000 A 
ATOM     21  N   UNL     1       1.225  11.436  19.447  0.00  0.00    +0.000 NA
ATOM     22  C   UNL     1       1.271  10.415  18.575  0.00  0.00    +0.000 A 
ATOM     23  C   UNL     1       0.149   9.844  17.991  0.00  0.00    +0.000 A 
ENDBRANCH   6  18
TORSDOF 3
ENDMDL
MODEL 5
REMARK VINA RESULT:      -6.1      2.922      4.387
REMARK  Name = 
REMARK  3 active torsions:
REMARK  status: ('A' for Active; 'I' for Inactive)
REMARK    1  A    between atoms: C_2  and  C_3
REMARK    2  A    between atoms: C_4  and  O_5
REMARK    3  A    between atoms: C_15  and  C_16
REMARK                            x       y       z     vdW  Elec       q    Type
REMARK                         _______ _______ _______ _____ _____    ______ ____
ROOT
ATOM      1  O   UNL     1       6.232   4.197  19.324  0.00  0.00    +0.000 OA
ATOM      2  C   UNL     1       5.500   4.629  18.436  0.00  0.00    +0.000 C 
ATOM      3  N   UNL     1       4.231   5.133  18.724  0.00  0.00    +0.000 N 
ATOM      4  C   UNL     1       3.784   5.154  20.112  0.00  0.00    +0.000 C 
ATOM      5  C   UNL     1       2.266   5.287  20.061  0.00  0.00    +0.000 C 
ATOM      6  C   UNL     1       1.969   5.898  18.687  0.00  0.00    +0.000 C 
ATOM      7  C   UNL     1       3.089   5.305  17.817  0.00  0.00    +0.000 C 
ENDROOT
BRANCH   2   8
ATOM      8  C   UNL     1       6.045   4.738  17.057  0.00  0.00    +0.000 A 
ATOM      9  C   UNL     1       5.748   3.744  16.109  0.00  0.00    +0.000 A 
ATOM     10  C   UNL     1       6.236   3.814  14.806  0.00  0.00    +0.000 A 
ATOM     11  C   UNL     1       6.933   4.941  14.395  0.00  0.00    +0.000 A 
ATOM     12 CL   UNL     1       7.483   5.056  12.770  0.00  0.00    +0.000 Cl
ATOM     13  C   UNL     1       7.159   5.988  15.283  0.00  0.00    +0.000 A 
ATOM     14  C   UNL     1       6.734   5.883  16.617  0.00  0.00    +0.000 A 
ATOM     15 CL   UNL     1       7.110   7.224  17.643  0.00  0.00    +0.000 Cl
BRANCH   9  16
ATOM     16  O   UNL     1       4.920   2.683  16.358  0.00  0.00    +0.000 OA
ATOM     17  H   UNL     1       4.720   2.656  17.312  0.00  0.00    +0.000 HD
ENDBRANCH   9  16
ENDBRANCH   2   8
BRANCH   6  18
ATOM     18  C   UNL     1       1.874   7.418  18.693  0.00  0.00    +0.000 A 
ATOM     19  C   UNL     1       2.239   8.225  17.611  0.00  0.00    +0.000 A 
ATOM     20  C   UNL     1       2.144   9.606  17.728  0.00  0.00    +0.000 A 
ATOM     21  N   UNL     1       1.701  10.236  18.836  0.00  0.00    +0.000 NA
ATOM     22  C   UNL     1       1.350   9.454  19.871  0.00  0.00    +0.000 A 
ATOM     23  C   UNL     1       1.413   8.067  19.849  0.00  0.00    +0.000 A 
ENDBRANCH   6  18
TORSDOF 3
ENDMDL
MODEL 6
REMARK VINA RESULT:      -6.0      2.911      4.381
REMARK  Name = 
REMARK  3 active torsions:
REMARK  status: ('A' for Active; 'I' for Inactive)
REMARK    1  A    between atoms: C_2  and  C_3
REMARK    2  A    between atoms: C_4  and  O_5
REMARK    3  A    between atoms: C_15  and  C_16
REMARK                            x       y       z     vdW  Elec       q    Type
REMARK                         _______ _______ _______ _____ _____    ______ ____
ROOT
ATOM      1  O   UNL     1       6.131   4.049  19.362  0.00  0.00    +0.000 OA
ATOM      2  C   UNL     1       5.427   4.527  18.476  0.00  0.00    +0.000 C 
ATOM      3  N   UNL     1       4.167   5.056  18.756  0.00  0.00    +0.000 N 
ATOM      4  C   UNL     1       3.695   5.047  20.137  0.00  0.00    +0.000 C 
ATOM      5  C   UNL     1       2.183   5.222  20.063  0.00  0.00    +0.000 C 
ATOM      6  C   UNL     1       1.927   5.882  18.704  0.00  0.00    +0.000 C 
ATOM      7  C   UNL     1       3.046   5.286  17.835  0.00  0.00    +0.000 C 
ENDROOT
BRANCH   2   8
ATOM      8  C   UNL     1       6.000   4.663  17.110  0.00  0.00    +0.000 A 
ATOM      9  C   UNL     1       5.712   3.696  16.133  0.00  0.00    +0.000 A 
ATOM     10  C   UNL     1       6.225   3.791  14.842  0.00  0.00    +0.000 A 
ATOM     11  C   UNL     1       6.942   4.921  14.471  0.00  0.00    +0.000 A 
ATOM     12 CL   UNL     1       7.524   5.069  12.860  0.00  0.00    +0.000 Cl
ATOM     13  C   UNL     1       7.161   5.944  15.389  0.00  0.00    +0.000 A 
ATOM     14  C   UNL     1       6.709   5.812  16.711  0.00  0.00    +0.000 A 
ATOM     15 CL   UNL     1       7.079   7.124  17.777  0.00  0.00    +0.000 Cl
BRANCH   9  16
ATOM     16  O   UNL     1       4.868   2.638  16.340  0.00  0.00    +0.000 OA
ATOM     17  H   UNL     1       5.302   2.001  16.939  0.00  0.00    +0.000 HD
ENDBRANCH   9  16
ENDBRANCH   2   8
BRANCH   6  18
ATOM     18  C   UNL     1       1.871   7.403  18.755  0.00  0.00    +0.000 A 
ATOM     19  C   UNL     1       1.417   8.128  19.862  0.00  0.00    +0.000 A 
ATOM     20  C   UNL     1       1.375   9.516  19.798  0.00  0.00    +0.000 A 
ATOM     21  N   UNL     1       1.763  10.227  18.720  0.00  0.00    +0.000 NA
ATOM     22  C   UNL     1       2.199   9.524  17.661  0.00  0.00    +0.000 A 
ATOM     23  C   UNL     1       2.275   8.139  17.631  0.00  0.00    +0.000 A 
ENDBRANCH   6  18
TORSDOF 3
ENDMDL
MODEL 7
REMARK VINA RESULT:      -5.9     10.350     11.574
REMARK  Name = 
REMARK  3 active torsions:
REMARK  status: ('A' for Active; 'I' for Inactive)
REMARK    1  A    between atoms: C_2  and  C_3
REMARK    2  A    between atoms: C_4  and  O_5
REMARK    3  A    between atoms: C_15  and  C_16
REMARK                            x       y       z     vdW  Elec       q    Type
REMARK                         _______ _______ _______ _____ _____    ______ ____
ROOT
ATOM      1  O   UNL     1      -0.371  10.992  22.983  0.00  0.00    +0.000 OA
ATOM      2  C   UNL     1      -0.820  11.874  22.253  0.00  0.00    +0.000 C 
ATOM      3  N   UNL     1      -0.866  11.715  20.867  0.00  0.00    +0.000 N 
ATOM      4  C   UNL     1      -0.382  10.466  20.289  0.00  0.00    +0.000 C 
ATOM      5  C   UNL     1      -0.113  10.763  18.819  0.00  0.00    +0.000 C 
ATOM      6  C   UNL     1      -0.978  11.986  18.498  0.00  0.00    +0.000 C 
ATOM      7  C   UNL     1      -0.971  12.750  19.832  0.00  0.00    +0.000 C 
ENDROOT
BRANCH   2   8
ATOM      8  C   UNL     1      -1.449  13.065  22.883  0.00  0.00    +0.000 A 
ATOM      9  C   UNL     1      -2.676  12.933  23.553  0.00  0.00    +0.000 A 
ATOM     10  C   UNL     1      -3.294  14.024  24.161  0.00  0.00    +0.000 A 
ATOM     11  C   UNL     1      -2.635  15.245  24.209  0.00  0.00    +0.000 A 
ATOM     12 CL   UNL     1      -3.368  16.577  25.012  0.00  0.00    +0.000 Cl
ATOM     13  C   UNL     1      -1.372  15.383  23.640  0.00  0.00    +0.000 A 
ATOM     14  C   UNL     1      -0.785  14.303  22.962  0.00  0.00    +0.000 A 
ATOM     15 CL   UNL     1       0.765  14.602  22.254  0.00  0.00    +0.000 Cl
BRANCH   9  16
ATOM     16  O   UNL     1      -3.324  11.739  23.722  0.00  0.00    +0.000 OA
ATOM     17  H   UNL     1      -2.662  11.042  23.889  0.00  0.00    +0.000 HD
ENDBRANCH   9  16
ENDBRANCH   2   8
BRANCH   6  18
ATOM     18  C   UNL     1      -2.354  11.643  17.941  0.00  0.00    +0.000 A 
ATOM     19  C   UNL     1      -2.563  11.085  16.676  0.00  0.00    +0.000 A 
ATOM     20  C   UNL     1      -3.862  10.837  16.247  0.00  0.00    +0.000 A 
ATOM     21  N   UNL     1      -4.958  11.092  16.991  0.00  0.00    +0.000 NA
ATOM     22  C   UNL     1      -4.748  11.626  18.206  0.00  0.00    +0.000 A 
ATOM     23  C   UNL     1      -3.490  11.911  18.719  0.00  0.00    +0.000 A 
ENDBRANCH   6  18
TORSDOF 3
ENDMDL
MODEL 8
REMARK VINA RESULT:      -5.9      8.920      9.464
REMARK  Name = 
REMARK  3 active torsions:
REMARK  status: ('A' for Active; 'I' for Inactive)
REMARK    1  A    between atoms: C_2  and  C_3
REMARK    2  A    between atoms: C_4  and  O_5
REMARK    3  A    between atoms: C_15  and  C_16
REMARK                            x       y       z     vdW  Elec       q    Type
REMARK                         _______ _______ _______ _____ _____    ______ ____
ROOT
ATOM      1  O   UNL     1       0.795   9.554  18.697  0.00  0.00    +0.000 OA
ATOM      2  C   UNL     1       0.225  10.643  18.697  0.00  0.00    +0.000 C 
ATOM      3  N   UNL     1      -1.074  10.783  18.206  0.00  0.00    +0.000 N 
ATOM      4  C   UNL     1      -1.762   9.601  17.700  0.00  0.00    +0.000 C 
ATOM      5  C   UNL     1      -2.900  10.120  16.829  0.00  0.00    +0.000 C 
ATOM      6  C   UNL     1      -3.157  11.547  17.325  0.00  0.00    +0.000 C 
ATOM      7  C   UNL     1      -1.753  12.003  17.752  0.00  0.00    +0.000 C 
ENDROOT
BRANCH   2   8
ATOM      8  C   UNL     1       0.893  11.793  19.363  0.00  0.00    +0.000 A 
ATOM      9  C   UNL     1       1.959  12.446  18.724  0.00  0.00    +0.000 A 
ATOM     10  C   UNL     1       2.607  13.530  19.313  0.00  0.00    +0.000 A 
ATOM     11  C   UNL     1       2.120  14.055  20.502  0.00  0.00    +0.000 A 
ATOM     12 CL   UNL     1       2.880  15.430  21.199  0.00  0.00    +0.000 Cl
ATOM     13  C   UNL     1       1.003  13.491  21.111  0.00  0.00    +0.000 A 
ATOM     14  C   UNL     1       0.398  12.352  20.556  0.00  0.00    +0.000 A 
ATOM     15 CL   UNL     1      -0.954  11.709  21.423  0.00  0.00    +0.000 Cl
BRANCH   9  16
ATOM     16  O   UNL     1       2.402  12.125  17.469  0.00  0.00    +0.000 OA
ATOM     17  H   UNL     1       1.764  11.512  17.057  0.00  0.00    +0.000 HD
ENDBRANCH   9  16
ENDBRANCH   2   8
BRANCH   6  18
ATOM     18  C   UNL     1      -4.236  11.644  18.396  0.00  0.00    +0.000 A 
ATOM     19  C   UNL     1      -4.102  12.394  19.569  0.00  0.00    +0.000 A 
ATOM     20  C   UNL     1      -5.134  12.393  20.500  0.00  0.00    +0.000 A 
ATOM     21  N   UNL     1      -6.288  11.712  20.339  0.00  0.00    +0.000 NA
ATOM     22  C   UNL     1      -6.409  10.996  19.209  0.00  0.00    +0.000 A 
ATOM     23  C   UNL     1      -5.434  10.933  18.224  0.00  0.00    +0.000 A 
ENDBRANCH   6  18
TORSDOF 3
ENDMDL
MODEL 9
REMARK VINA RESULT:      -5.9      7.356      8.648
REMARK  Name = 
REMARK  3 active torsions:
REMARK  status: ('A' for Active; 'I' for Inactive)
REMARK    1  A    between atoms: C_2  and  C_3
REMARK    2  A    between atoms: C_4  and  O_5
REMARK    3  A    between atoms: C_15  and  C_16
REMARK                            x       y       z     vdW  Elec       q    Type
REMARK                         _______ _______ _______ _____ _____    ______ ____
ROOT
ATOM      1  O   UNL     1       1.727  11.639  19.673  0.00  0.00    +0.000 OA
ATOM      2  C   UNL     1       0.910  10.742  19.482  0.00  0.00    +0.000 C 
ATOM      3  N   UNL     1      -0.420  11.026  19.169  0.00  0.00    +0.000 N 
ATOM      4  C   UNL     1      -0.830  12.421  19.055  0.00  0.00    +0.000 C 
ATOM      5  C   UNL     1      -2.348  12.424  19.188  0.00  0.00    +0.000 C 
ATOM      6  C   UNL     1      -2.780  11.004  18.807  0.00  0.00    +0.000 C 
ATOM      7  C   UNL     1      -1.597  10.158  19.303  0.00  0.00    +0.000 C 
ENDROOT
BRANCH   2   8
ATOM      8  C   UNL     1       1.394   9.336  19.450  0.00  0.00    +0.000 A 
ATOM      9  C   UNL     1       2.012   8.837  18.292  0.00  0.00    +0.000 A 
ATOM     10  C   UNL     1       2.483   7.528  18.225  0.00  0.00    +0.000 A 
ATOM     11  C   UNL     1       2.449   6.729  19.360  0.00  0.00    +0.000 A 
ATOM     12 CL   UNL     1       3.087   5.134  19.297  0.00  0.00    +0.000 Cl
ATOM     13  C   UNL     1       1.932   7.227  20.552  0.00  0.00    +0.000 A 
ATOM     14  C   UNL     1       1.389   8.521  20.597  0.00  0.00    +0.000 A 
ATOM     15 CL   UNL     1       0.732   9.018  22.119  0.00  0.00    +0.000 Cl
BRANCH   9  16
ATOM     16  O   UNL     1       2.259   9.595  17.179  0.00  0.00    +0.000 OA
ATOM     17  H   UNL     1       2.414  10.518  17.453  0.00  0.00    +0.000 HD
ENDBRANCH   9  16
ENDBRANCH   2   8
BRANCH   6  18
ATOM     18  C   UNL     1      -3.138  10.839  17.336  0.00  0.00    +0.000 A 
ATOM     19  C   UNL     1      -4.187  11.520  16.710  0.00  0.00    +0.000 A 
ATOM     20  C   UNL     1      -4.453  11.276  15.367  0.00  0.00    +0.000 A 
ATOM     21  N   UNL     1      -3.743  10.417  14.607  0.00  0.00    +0.000 NA
ATOM     22  C   UNL     1      -2.736   9.768  15.215  0.00  0.00    +0.000 A 
ATOM     23  C   UNL     1      -2.397   9.944  16.550  0.00  0.00    +0.000 A 
ENDBRANCH   6  18
TORSDOF 3
ENDMDL
