MODEL 1
REMARK VINA RESULT:      -8.8      0.000      0.000
REMARK  Name = 
REMARK  4 active torsions:
REMARK  status: ('A' for Active; 'I' for Inactive)
REMARK    1  A    between atoms: C_2  and  C_3
REMARK    2  A    between atoms: C_10  and  N_11
REMARK    3  A    between atoms: C_16  and  N_17
REMARK    4  A    between atoms: C_18  and  C_19
REMARK                            x       y       z     vdW  Elec       q    Type
REMARK                         _______ _______ _______ _____ _____    ______ ____
ROOT
ATOM      1  N   UNL     1       2.447   8.586  17.574  0.00  0.00    +0.000 N 
ATOM      2  C   UNL     1       1.787   9.233  18.611  0.00  0.00    +0.000 A 
ATOM      3  N   UNL     1       1.509   8.589  19.749  0.00  0.00    +0.000 NA
ATOM      4  C   UNL     1       0.934   9.299  20.736  0.00  0.00    +0.000 A 
ATOM      5  C   UNL     1       0.653  10.639  20.641  0.00  0.00    +0.000 A 
ATOM      6  C   UNL     1       0.965  11.219  19.433  0.00  0.00    +0.000 A 
ATOM      7  N   UNL     1       1.488  10.517  18.406  0.00  0.00    +0.000 NA
ATOM      8  H   UNL     1       1.719   8.342  16.907  0.00  0.00    +0.000 HD
ENDROOT
BRANCH   6   9
ATOM      9  N   UNL     1       0.704  12.604  19.221  0.00  0.00    +0.000 N 
ATOM     10  C   UNL     1      -0.511  13.155  18.816  0.00  0.00    +0.000 A 
ATOM     11  N   UNL     1      -0.413  14.465  18.670  0.00  0.00    +0.000 NA
ATOM     12  C   UNL     1       0.866  14.789  19.008  0.00  0.00    +0.000 A 
ATOM     13  C   UNL     1       1.470  16.057  19.031  0.00  0.00    +0.000 A 
ATOM     14  C   UNL     1       2.820  16.159  19.376  0.00  0.00    +0.000 A 
ATOM     15  C   UNL     1       3.562  15.017  19.668  0.00  0.00    +0.000 A 
ATOM     16  C   UNL     1       2.978  13.746  19.643  0.00  0.00    +0.000 A 
ATOM     17  C   UNL     1       1.605  13.660  19.347  0.00  0.00    +0.000 A 
BRANCH  10  18
ATOM     18  C   UNL     1      -1.779  12.434  18.677  0.00  0.00    +0.000 A 
ATOM     19  C   UNL     1      -2.008  11.672  17.526  0.00  0.00    +0.000 A 
ATOM     20  C   UNL     1      -3.206  10.976  17.373  0.00  0.00    +0.000 A 
ATOM     21  C   UNL     1      -4.243  11.160  18.300  0.00  0.00    +0.000 A 
ATOM     22  C   UNL     1      -5.486  10.557  18.134  0.00  0.00    +0.000 A 
ATOM     23  C   UNL     1      -6.621  11.208  18.589  0.00  0.00    +0.000 A 
ATOM     24  C   UNL     1      -6.484  12.135  19.610  0.00  0.00    +0.000 A 
ATOM     25  C   UNL     1      -5.214  12.439  20.103  0.00  0.00    +0.000 A 
ATOM     26  C   UNL     1      -4.082  12.053  19.370  0.00  0.00    +0.000 A 
ATOM     27  C   UNL     1      -2.815  12.597  19.612  0.00  0.00    +0.000 A 
ENDBRANCH  10  18
ENDBRANCH   6   9
BRANCH   1  34
ATOM     28  O   UNL     1       2.167   4.462  20.102  0.00  0.00    +0.000 OA
ATOM     29  C   UNL     1       3.059   4.218  19.315  0.00  0.00    +0.000 C 
ATOM     30  N   UNL     1       3.246   4.959  18.150  0.00  0.00    +0.000 N 
ATOM     31  C   UNL     1       4.292   4.785  17.144  0.00  0.00    +0.000 C 
ATOM     32  C   UNL     1       5.221   5.989  17.142  0.00  0.00    +0.000 C 
ATOM     33  C   UNL     1       4.438   7.283  16.933  0.00  0.00    +0.000 C 
ATOM     34  C   UNL     1       3.283   7.443  17.954  0.00  0.00    +0.000 C 
ATOM     35  C   UNL     1       2.422   6.159  17.948  0.00  0.00    +0.000 C 
BRANCH  29  36
ATOM     36  C   UNL     1       4.044   3.117  19.638  0.00  0.00    +0.000 C 
ATOM     37  C   UNL     1       3.651   2.090  20.655  0.00  0.00    +0.000 C 
ATOM     38  C   UNL     1       3.803   1.699  19.221  0.00  0.00    +0.000 C 
ENDBRANCH  29  36
ENDBRANCH   1  34
TORSDOF 4
ENDMDL
MODEL 2
REMARK VINA RESULT:      -8.0      1.498      1.955
REMARK  Name = 
REMARK  4 active torsions:
REMARK  status: ('A' for Active; 'I' for Inactive)
REMARK    1  A    between atoms: C_2  and  C_3
REMARK    2  A    between atoms: C_10  and  N_11
REMARK    3  A    between atoms: C_16  and  N_17
REMARK    4  A    between atoms: C_18  and  C_19
REMARK                            x       y       z     vdW  Elec       q    Type
REMARK                         _______ _______ _______ _____ _____    ______ ____
ROOT
ATOM      1  N   UNL     1       1.949   8.980  17.934  0.00  0.00    +0.000 N 
ATOM      2  C   UNL     1       1.462   9.787  18.954  0.00  0.00    +0.000 A 
ATOM      3  N   UNL     1       1.203   9.276  20.162  0.00  0.00    +0.000 NA
ATOM      4  C   UNL     1       0.804  10.130  21.121  0.00  0.00    +0.000 A 
ATOM      5  C   UNL     1       0.682  11.483  20.928  0.00  0.00    +0.000 A 
ATOM      6  C   UNL     1       0.961  11.921  19.654  0.00  0.00    +0.000 A 
ATOM      7  N   UNL     1       1.307  11.079  18.658  0.00  0.00    +0.000 NA
ATOM      8  H   UNL     1       1.144   8.781  17.345  0.00  0.00    +0.000 HD
ENDROOT
BRANCH   6   9
ATOM      9  N   UNL     1       0.856  13.307  19.339  0.00  0.00    +0.000 N 
ATOM     10  C   UNL     1      -0.295  14.086  19.451  0.00  0.00    +0.000 A 
ATOM     11  N   UNL     1      -0.073  15.323  19.041  0.00  0.00    +0.000 NA
ATOM     12  C   UNL     1       1.241  15.373  18.682  0.00  0.00    +0.000 A 
ATOM     13  C   UNL     1       1.972  16.466  18.192  0.00  0.00    +0.000 A 
ATOM     14  C   UNL     1       3.314  16.285  17.847  0.00  0.00    +0.000 A 
ATOM     15  C   UNL     1       3.909  15.032  17.963  0.00  0.00    +0.000 A 
ATOM     16  C   UNL     1       3.193  13.930  18.443  0.00  0.00    +0.000 A 
ATOM     17  C   UNL     1       1.859  14.136  18.839  0.00  0.00    +0.000 A 
BRANCH  10  18
ATOM     18  C   UNL     1      -1.564  13.665  20.050  0.00  0.00    +0.000 A 
ATOM     19  C   UNL     1      -2.392  12.784  19.345  0.00  0.00    +0.000 A 
ATOM     20  C   UNL     1      -3.603  12.368  19.895  0.00  0.00    +0.000 A 
ATOM     21  C   UNL     1      -4.064  12.949  21.085  0.00  0.00    +0.000 A 
ATOM     22  C   UNL     1      -5.309  12.630  21.619  0.00  0.00    +0.000 A 
ATOM     23  C   UNL     1      -6.015  13.596  22.317  0.00  0.00    +0.000 A 
ATOM     24  C   UNL     1      -5.307  14.635  22.904  0.00  0.00    +0.000 A 
ATOM     25  C   UNL     1      -3.926  14.719  22.722  0.00  0.00    +0.000 A 
ATOM     26  C   UNL     1      -3.318  13.958  21.714  0.00  0.00    +0.000 A 
ATOM     27  C   UNL     1      -2.024  14.228  21.252  0.00  0.00    +0.000 A 
ENDBRANCH  10  18
ENDBRANCH   6   9
BRANCH   1  34
ATOM     28  O   UNL     1       1.226   4.938  20.506  0.00  0.00    +0.000 OA
ATOM     29  C   UNL     1       2.114   4.602  19.747  0.00  0.00    +0.000 C 
ATOM     30  N   UNL     1       2.399   5.305  18.579  0.00  0.00    +0.000 N 
ATOM     31  C   UNL     1       3.452   5.021  17.606  0.00  0.00    +0.000 C 
ATOM     32  C   UNL     1       4.486   6.136  17.614  0.00  0.00    +0.000 C 
ATOM     33  C   UNL     1       3.830   7.493  17.367  0.00  0.00    +0.000 C 
ATOM     34  C   UNL     1       2.667   7.772  18.351  0.00  0.00    +0.000 C 
ATOM     35  C   UNL     1       1.694   6.572  18.338  0.00  0.00    +0.000 C 
BRANCH  29  36
ATOM     36  C   UNL     1       2.985   3.421  20.113  0.00  0.00    +0.000 C 
ATOM     37  C   UNL     1       2.595   2.591  21.296  0.00  0.00    +0.000 C 
ATOM     38  C   UNL     1       2.520   2.012  19.921  0.00  0.00    +0.000 C 
ENDBRANCH  29  36
ENDBRANCH   1  34
TORSDOF 4
ENDMDL
MODEL 3
REMARK VINA RESULT:      -7.9      4.298      8.896
REMARK  Name = 
REMARK  4 active torsions:
REMARK  status: ('A' for Active; 'I' for Inactive)
REMARK    1  A    between atoms: C_2  and  C_3
REMARK    2  A    between atoms: C_10  and  N_11
REMARK    3  A    between atoms: C_16  and  N_17
REMARK    4  A    between atoms: C_18  and  C_19
REMARK                            x       y       z     vdW  Elec       q    Type
REMARK                         _______ _______ _______ _____ _____    ______ ____
ROOT
ATOM      1  N   UNL     1       4.530  14.637  21.527  0.00  0.00    +0.000 N 
ATOM      2  C   UNL     1       3.519  14.208  20.676  0.00  0.00    +0.000 A 
ATOM      3  N   UNL     1       3.620  14.382  19.354  0.00  0.00    +0.000 NA
ATOM      4  C   UNL     1       2.638  13.878  18.588  0.00  0.00    +0.000 A 
ATOM      5  C   UNL     1       1.569  13.177  19.089  0.00  0.00    +0.000 A 
ATOM      6  C   UNL     1       1.541  13.052  20.459  0.00  0.00    +0.000 A 
ATOM      7  N   UNL     1       2.483  13.599  21.255  0.00  0.00    +0.000 NA
ATOM      8  H   UNL     1       4.193  15.513  21.919  0.00  0.00    +0.000 HD
ENDROOT
BRANCH   6   9
ATOM      9  N   UNL     1       0.470  12.352  21.088  0.00  0.00    +0.000 N 
ATOM     10  C   UNL     1       0.135  11.015  20.882  0.00  0.00    +0.000 A 
ATOM     11  N   UNL     1      -0.934  10.679  21.585  0.00  0.00    +0.000 NA
ATOM     12  C   UNL     1      -1.292  11.793  22.283  0.00  0.00    +0.000 A 
ATOM     13  C   UNL     1      -2.356  11.955  23.184  0.00  0.00    +0.000 A 
ATOM     14  C   UNL     1      -2.568  13.207  23.767  0.00  0.00    +0.000 A 
ATOM     15  C   UNL     1      -1.751  14.286  23.437  0.00  0.00    +0.000 A 
ATOM     16  C   UNL     1      -0.690  14.144  22.535  0.00  0.00    +0.000 A 
ATOM     17  C   UNL     1      -0.453  12.866  21.996  0.00  0.00    +0.000 A 
BRANCH  10  18
ATOM     18  C   UNL     1       0.905  10.045  20.098  0.00  0.00    +0.000 A 
ATOM     19  C   UNL     1       1.066  10.252  18.724  0.00  0.00    +0.000 A 
ATOM     20  C   UNL     1       1.797   9.345  17.959  0.00  0.00    +0.000 A 
ATOM     21  C   UNL     1       2.240   8.145  18.535  0.00  0.00    +0.000 A 
ATOM     22  C   UNL     1       2.891   7.172  17.784  0.00  0.00    +0.000 A 
ATOM     23  C   UNL     1       2.725   5.837  18.115  0.00  0.00    +0.000 A 
ATOM     24  C   UNL     1       2.374   5.520  19.418  0.00  0.00    +0.000 A 
ATOM     25  C   UNL     1       2.132   6.542  20.337  0.00  0.00    +0.000 A 
ATOM     26  C   UNL     1       1.938   7.851  19.873  0.00  0.00    +0.000 A 
ATOM     27  C   UNL     1       1.371   8.851  20.673  0.00  0.00    +0.000 A 
ENDBRANCH  10  18
ENDBRANCH   6   9
BRANCH   1  34
ATOM     28  O   UNL     1       7.078  17.584  18.647  0.00  0.00    +0.000 OA
ATOM     29  C   UNL     1       7.952  17.041  19.293  0.00  0.00    +0.000 C 
ATOM     30  N   UNL     1       7.691  16.389  20.495  0.00  0.00    +0.000 N 
ATOM     31  C   UNL     1       8.644  15.677  21.346  0.00  0.00    +0.000 C 
ATOM     32  C   UNL     1       8.324  14.190  21.358  0.00  0.00    +0.000 C 
ATOM     33  C   UNL     1       6.880  13.945  21.789  0.00  0.00    +0.000 C 
ATOM     34  C   UNL     1       5.866  14.749  20.936  0.00  0.00    +0.000 C 
ATOM     35  C   UNL     1       6.291  16.235  20.915  0.00  0.00    +0.000 C 
BRANCH  29  36
ATOM     36  C   UNL     1       9.361  17.011  18.744  0.00  0.00    +0.000 C 
ATOM     37  C   UNL     1       9.760  18.062  17.755  0.00  0.00    +0.000 C 
ATOM     38  C   UNL     1      10.373  18.049  19.118  0.00  0.00    +0.000 C 
ENDBRANCH  29  36
ENDBRANCH   1  34
TORSDOF 4
ENDMDL
MODEL 4
REMARK VINA RESULT:      -7.9      4.633      8.769
REMARK  Name = 
REMARK  4 active torsions:
REMARK  status: ('A' for Active; 'I' for Inactive)
REMARK    1  A    between atoms: C_2  and  C_3
REMARK    2  A    between atoms: C_10  and  N_11
REMARK    3  A    between atoms: C_16  and  N_17
REMARK    4  A    between atoms: C_18  and  C_19
REMARK                            x       y       z     vdW  Elec       q    Type
REMARK                         _______ _______ _______ _____ _____    ______ ____
ROOT
ATOM      1  N   UNL     1       3.532  15.089  22.173  0.00  0.00    +0.000 N 
ATOM      2  C   UNL     1       2.414  14.757  21.418  0.00  0.00    +0.000 A 
ATOM      3  N   UNL     1       2.425  14.891  20.088  0.00  0.00    +0.000 NA
ATOM      4  C   UNL     1       1.334  14.482  19.417  0.00  0.00    +0.000 A 
ATOM      5  C   UNL     1       0.240  13.915  20.022  0.00  0.00    +0.000 A 
ATOM      6  C   UNL     1       0.311  13.823  21.393  0.00  0.00    +0.000 A 
ATOM      7  N   UNL     1       1.369  14.279  22.096  0.00  0.00    +0.000 NA
ATOM      8  H   UNL     1       3.326  16.005  22.564  0.00  0.00    +0.000 HD
ENDROOT
BRANCH   6   9
ATOM      9  N   UNL     1      -0.774  13.260  22.126  0.00  0.00    +0.000 N 
ATOM     10  C   UNL     1      -1.137  11.914  22.145  0.00  0.00    +0.000 A 
ATOM     11  N   UNL     1      -2.213  11.723  22.889  0.00  0.00    +0.000 NA
ATOM     12  C   UNL     1      -2.549  12.945  23.390  0.00  0.00    +0.000 A 
ATOM     13  C   UNL     1      -3.611  13.277  24.247  0.00  0.00    +0.000 A 
ATOM     14  C   UNL     1      -3.797  14.613  24.610  0.00  0.00    +0.000 A 
ATOM     15  C   UNL     1      -2.958  15.604  24.108  0.00  0.00    +0.000 A 
ATOM     16  C   UNL     1      -1.900  15.292  23.247  0.00  0.00    +0.000 A 
ATOM     17  C   UNL     1      -1.688  13.938  22.931  0.00  0.00    +0.000 A 
BRANCH  10  18
ATOM     18  C   UNL     1      -0.386  10.812  21.539  0.00  0.00    +0.000 A 
ATOM     19  C   UNL     1       0.463  10.042  22.341  0.00  0.00    +0.000 A 
ATOM     20  C   UNL     1       1.186   8.987  21.787  0.00  0.00    +0.000 A 
ATOM     21  C   UNL     1       1.180   8.792  20.398  0.00  0.00    +0.000 A 
ATOM     22  C   UNL     1       1.960   7.809  19.796  0.00  0.00    +0.000 A 
ATOM     23  C   UNL     1       2.466   8.030  18.525  0.00  0.00    +0.000 A 
ATOM     24  C   UNL     1       1.806   8.927  17.699  0.00  0.00    +0.000 A 
ATOM     25  C   UNL     1       0.702   9.630  18.185  0.00  0.00    +0.000 A 
ATOM     26  C   UNL     1       0.461   9.663  19.566  0.00  0.00    +0.000 A 
ATOM     27  C   UNL     1      -0.404  10.597  20.150  0.00  0.00    +0.000 A 
ENDBRANCH  10  18
ENDBRANCH   6   9
BRANCH   1  34
ATOM     28  O   UNL     1       6.186  17.722  19.091  0.00  0.00    +0.000 OA
ATOM     29  C   UNL     1       7.035  17.068  19.665  0.00  0.00    +0.000 C 
ATOM     30  N   UNL     1       6.793  16.443  20.886  0.00  0.00    +0.000 N 
ATOM     31  C   UNL     1       7.715  15.612  21.657  0.00  0.00    +0.000 C 
ATOM     32  C   UNL     1       7.215  14.176  21.697  0.00  0.00    +0.000 C 
ATOM     33  C   UNL     1       5.791  14.108  22.244  0.00  0.00    +0.000 C 
ATOM     34  C   UNL     1       4.820  15.039  21.476  0.00  0.00    +0.000 C 
ATOM     35  C   UNL     1       5.423  16.461  21.418  0.00  0.00    +0.000 C 
BRANCH  29  36
ATOM     36  C   UNL     1       8.380  16.869  19.003  0.00  0.00    +0.000 C 
ATOM     37  C   UNL     1       8.956  18.000  18.210  0.00  0.00    +0.000 C 
ATOM     38  C   UNL     1       9.607  17.577  19.486  0.00  0.00    +0.000 C 
ENDBRANCH  29  36
ENDBRANCH   1  34
TORSDOF 4
ENDMDL
MODEL 5
REMARK VINA RESULT:      -7.8      4.555      8.472
REMARK  Name = 
REMARK  4 active torsions:
REMARK  status: ('A' for Active; 'I' for Inactive)
REMARK    1  A    between atoms: C_2  and  C_3
REMARK    2  A    between atoms: C_10  and  N_11
REMARK    3  A    between atoms: C_16  and  N_17
REMARK    4  A    between atoms: C_18  and  C_19
REMARK                            x       y       z     vdW  Elec       q    Type
REMARK                         _______ _______ _______ _____ _____    ______ ____
ROOT
ATOM      1  N   UNL     1       4.481  14.708  21.913  0.00  0.00    +0.000 N 
ATOM      2  C   UNL     1       3.363  14.392  21.151  0.00  0.00    +0.000 A 
ATOM      3  N   UNL     1       3.427  14.384  19.816  0.00  0.00    +0.000 NA
ATOM      4  C   UNL     1       2.327  13.998  19.147  0.00  0.00    +0.000 A 
ATOM      5  C   UNL     1       1.170  13.588  19.762  0.00  0.00    +0.000 A 
ATOM      6  C   UNL     1       1.189  13.634  21.137  0.00  0.00    +0.000 A 
ATOM      7  N   UNL     1       2.260  14.074  21.832  0.00  0.00    +0.000 NA
ATOM      8  H   UNL     1       4.342  15.674  22.200  0.00  0.00    +0.000 HD
ENDROOT
BRANCH   6   9
ATOM      9  N   UNL     1       0.038  13.242  21.879  0.00  0.00    +0.000 N 
ATOM     10  C   UNL     1      -0.495  11.955  21.942  0.00  0.00    +0.000 A 
ATOM     11  N   UNL     1      -1.589  11.929  22.683  0.00  0.00    +0.000 NA
ATOM     12  C   UNL     1      -1.768  13.201  23.138  0.00  0.00    +0.000 A 
ATOM     13  C   UNL     1      -2.782  13.696  23.973  0.00  0.00    +0.000 A 
ATOM     14  C   UNL     1      -2.797  15.057  24.288  0.00  0.00    +0.000 A 
ATOM     15  C   UNL     1      -1.835  15.914  23.760  0.00  0.00    +0.000 A 
ATOM     16  C   UNL     1      -0.822  15.439  22.919  0.00  0.00    +0.000 A 
ATOM     17  C   UNL     1      -0.785  14.059  22.652  0.00  0.00    +0.000 A 
BRANCH  10  18
ATOM     18  C   UNL     1       0.111  10.744  21.380  0.00  0.00    +0.000 A 
ATOM     19  C   UNL     1       0.740   9.835  22.239  0.00  0.00    +0.000 A 
ATOM     20  C   UNL     1       1.321   8.676  21.728  0.00  0.00    +0.000 A 
ATOM     21  C   UNL     1       1.411   8.494  20.340  0.00  0.00    +0.000 A 
ATOM     22  C   UNL     1       2.065   7.397  19.788  0.00  0.00    +0.000 A 
ATOM     23  C   UNL     1       2.717   7.537  18.574  0.00  0.00    +0.000 A 
ATOM     24  C   UNL     1       2.299   8.540  17.713  0.00  0.00    +0.000 A 
ATOM     25  C   UNL     1       1.290   9.418  18.113  0.00  0.00    +0.000 A 
ATOM     26  C   UNL     1       0.931   9.482  19.466  0.00  0.00    +0.000 A 
ATOM     27  C   UNL     1       0.187  10.545  19.992  0.00  0.00    +0.000 A 
ENDBRANCH  10  18
ENDBRANCH   6   9
BRANCH   1  34
ATOM     28  O   UNL     1       7.334  16.646  18.509  0.00  0.00    +0.000 OA
ATOM     29  C   UNL     1       8.136  16.065  19.214  0.00  0.00    +0.000 C 
ATOM     30  N   UNL     1       7.834  15.673  20.516  0.00  0.00    +0.000 N 
ATOM     31  C   UNL     1       8.696  14.947  21.448  0.00  0.00    +0.000 C 
ATOM     32  C   UNL     1       8.125  13.564  21.719  0.00  0.00    +0.000 C 
ATOM     33  C   UNL     1       6.687  13.655  22.224  0.00  0.00    +0.000 C 
ATOM     34  C   UNL     1       5.781  14.481  21.276  0.00  0.00    +0.000 C 
ATOM     35  C   UNL     1       6.455  15.843  20.993  0.00  0.00    +0.000 C 
BRANCH  29  36
ATOM     36  C   UNL     1       9.485  15.694  18.640  0.00  0.00    +0.000 C 
ATOM     37  C   UNL     1       9.946  16.395  17.401  0.00  0.00    +0.000 C 
ATOM     38  C   UNL     1      10.649  16.633  18.697  0.00  0.00    +0.000 C 
ENDBRANCH  29  36
ENDBRANCH   1  34
TORSDOF 4
ENDMDL
MODEL 6
REMARK VINA RESULT:      -7.6      6.363     11.702
REMARK  Name = 
REMARK  4 active torsions:
REMARK  status: ('A' for Active; 'I' for Inactive)
REMARK    1  A    between atoms: C_2  and  C_3
REMARK    2  A    between atoms: C_10  and  N_11
REMARK    3  A    between atoms: C_16  and  N_17
REMARK    4  A    between atoms: C_18  and  C_19
REMARK                            x       y       z     vdW  Elec       q    Type
REMARK                         _______ _______ _______ _____ _____    ______ ____
ROOT
ATOM      1  N   UNL     1       3.280  14.087  21.190  0.00  0.00    +0.000 N 
ATOM      2  C   UNL     1       4.531  14.507  21.624  0.00  0.00    +0.000 A 
ATOM      3  N   UNL     1       5.055  15.657  21.186  0.00  0.00    +0.000 NA
ATOM      4  C   UNL     1       6.235  16.035  21.705  0.00  0.00    +0.000 A 
ATOM      5  C   UNL     1       6.903  15.322  22.670  0.00  0.00    +0.000 A 
ATOM      6  C   UNL     1       6.296  14.149  23.056  0.00  0.00    +0.000 A 
ATOM      7  N   UNL     1       5.141  13.717  22.510  0.00  0.00    +0.000 NA
ATOM      8  H   UNL     1       3.468  13.383  20.479  0.00  0.00    +0.000 HD
ENDROOT
BRANCH   6   9
ATOM      9  N   UNL     1       6.907  13.323  24.044  0.00  0.00    +0.000 N 
ATOM     10  C   UNL     1       8.012  12.496  23.849  0.00  0.00    +0.000 A 
ATOM     11  N   UNL     1       8.309  11.831  24.952  0.00  0.00    +0.000 NA
ATOM     12  C   UNL     1       7.413  12.241  25.894  0.00  0.00    +0.000 A 
ATOM     13  C   UNL     1       7.311  11.841  27.235  0.00  0.00    +0.000 A 
ATOM     14  C   UNL     1       6.283  12.366  28.023  0.00  0.00    +0.000 A 
ATOM     15  C   UNL     1       5.358  13.252  27.477  0.00  0.00    +0.000 A 
ATOM     16  C   UNL     1       5.441  13.655  26.139  0.00  0.00    +0.000 A 
ATOM     17  C   UNL     1       6.511  13.163  25.370  0.00  0.00    +0.000 A 
BRANCH  10  18
ATOM     18  C   UNL     1       8.837  12.432  22.639  0.00  0.00    +0.000 A 
ATOM     19  C   UNL     1       9.559  13.564  22.245  0.00  0.00    +0.000 A 
ATOM     20  C   UNL     1      10.352  13.527  21.100  0.00  0.00    +0.000 A 
ATOM     21  C   UNL     1      10.307  12.407  20.257  0.00  0.00    +0.000 A 
ATOM     22  C   UNL     1      11.011  12.367  19.057  0.00  0.00    +0.000 A 
ATOM     23  C   UNL     1      10.488  11.658  17.988  0.00  0.00    +0.000 A 
ATOM     24  C   UNL     1       9.603  10.624  18.252  0.00  0.00    +0.000 A 
ATOM     25  C   UNL     1       9.210  10.369  19.567  0.00  0.00    +0.000 A 
ATOM     26  C   UNL     1       9.456  11.331  20.557  0.00  0.00    +0.000 A 
ATOM     27  C   UNL     1       8.813  11.305  21.801  0.00  0.00    +0.000 A 
ENDBRANCH  10  18
ENDBRANCH   6   9
BRANCH   1  34
ATOM     28  O   UNL     1       2.909  17.384  17.658  0.00  0.00    +0.000 OA
ATOM     29  C   UNL     1       1.745  17.200  17.959  0.00  0.00    +0.000 C 
ATOM     30  N   UNL     1       1.329  16.074  18.664  0.00  0.00    +0.000 N 
ATOM     31  C   UNL     1      -0.026  15.753  19.108  0.00  0.00    +0.000 C 
ATOM     32  C   UNL     1      -0.100  15.785  20.627  0.00  0.00    +0.000 C 
ATOM     33  C   UNL     1       0.938  14.851  21.244  0.00  0.00    +0.000 C 
ATOM     34  C   UNL     1       2.370  15.139  20.728  0.00  0.00    +0.000 C 
ATOM     35  C   UNL     1       2.355  15.157  19.182  0.00  0.00    +0.000 C 
BRANCH  29  36
ATOM     36  C   UNL     1       0.722  18.258  17.615  0.00  0.00    +0.000 C 
ATOM     37  C   UNL     1       0.541  18.630  16.176  0.00  0.00    +0.000 C 
ATOM     38  C   UNL     1      -0.552  17.919  16.905  0.00  0.00    +0.000 C 
ENDBRANCH  29  36
ENDBRANCH   1  34
TORSDOF 4
ENDMDL
MODEL 7
REMARK VINA RESULT:      -7.6      4.908      8.010
REMARK  Name = 
REMARK  4 active torsions:
REMARK  status: ('A' for Active; 'I' for Inactive)
REMARK    1  A    between atoms: C_2  and  C_3
REMARK    2  A    between atoms: C_10  and  N_11
REMARK    3  A    between atoms: C_16  and  N_17
REMARK    4  A    between atoms: C_18  and  C_19
REMARK                            x       y       z     vdW  Elec       q    Type
REMARK                         _______ _______ _______ _____ _____    ______ ____
ROOT
ATOM      1  N   UNL     1       2.073  13.952  18.277  0.00  0.00    +0.000 N 
ATOM      2  C   UNL     1       1.330  13.078  19.061  0.00  0.00    +0.000 A 
ATOM      3  N   UNL     1       1.891  12.442  20.094  0.00  0.00    +0.000 NA
ATOM      4  C   UNL     1       1.093  11.669  20.851  0.00  0.00    +0.000 A 
ATOM      5  C   UNL     1      -0.255  11.529  20.633  0.00  0.00    +0.000 A 
ATOM      6  C   UNL     1      -0.747  12.212  19.545  0.00  0.00    +0.000 A 
ATOM      7  N   UNL     1       0.042  12.948  18.735  0.00  0.00    +0.000 NA
ATOM      8  H   UNL     1       2.306  13.425  17.439  0.00  0.00    +0.000 HD
ENDROOT
BRANCH   6   9
ATOM      9  N   UNL     1      -2.132  12.129  19.219  0.00  0.00    +0.000 N 
ATOM     10  C   UNL     1      -3.190  12.516  20.041  0.00  0.00    +0.000 A 
ATOM     11  N   UNL     1      -4.354  12.273  19.463  0.00  0.00    +0.000 NA
ATOM     12  C   UNL     1      -4.066  11.749  18.238  0.00  0.00    +0.000 A 
ATOM     13  C   UNL     1      -4.955  11.334  17.234  0.00  0.00    +0.000 A 
ATOM     14  C   UNL     1      -4.441  10.785  16.057  0.00  0.00    +0.000 A 
ATOM     15  C   UNL     1      -3.067  10.625  15.895  0.00  0.00    +0.000 A 
ATOM     16  C   UNL     1      -2.167  11.026  16.889  0.00  0.00    +0.000 A 
ATOM     17  C   UNL     1      -2.693  11.628  18.046  0.00  0.00    +0.000 A 
BRANCH  10  18
ATOM     18  C   UNL     1      -3.072  13.213  21.325  0.00  0.00    +0.000 A 
ATOM     19  C   UNL     1      -3.281  12.499  22.510  0.00  0.00    +0.000 A 
ATOM     20  C   UNL     1      -3.173  13.140  23.743  0.00  0.00    +0.000 A 
ATOM     21  C   UNL     1      -3.005  14.532  23.793  0.00  0.00    +0.000 A 
ATOM     22  C   UNL     1      -2.985  15.221  25.001  0.00  0.00    +0.000 A 
ATOM     23  C   UNL     1      -3.480  16.514  25.051  0.00  0.00    +0.000 A 
ATOM     24  C   UNL     1      -3.498  17.259  23.882  0.00  0.00    +0.000 A 
ATOM     25  C   UNL     1      -3.087  16.674  22.683  0.00  0.00    +0.000 A 
ATOM     26  C   UNL     1      -2.961  15.280  22.607  0.00  0.00    +0.000 A 
ATOM     27  C   UNL     1      -2.883  14.604  21.383  0.00  0.00    +0.000 A 
ENDBRANCH  10  18
ENDBRANCH   6   9
BRANCH   1  34
ATOM     28  O   UNL     1       6.875  14.250  17.705  0.00  0.00    +0.000 OA
ATOM     29  C   UNL     1       6.630  15.262  18.332  0.00  0.00    +0.000 C 
ATOM     30  N   UNL     1       5.346  15.796  18.408  0.00  0.00    +0.000 N 
ATOM     31  C   UNL     1       4.919  16.982  19.147  0.00  0.00    +0.000 C 
ATOM     32  C   UNL     1       3.989  16.584  20.283  0.00  0.00    +0.000 C 
ATOM     33  C   UNL     1       2.802  15.779  19.761  0.00  0.00    +0.000 C 
ATOM     34  C   UNL     1       3.244  14.556  18.918  0.00  0.00    +0.000 C 
ATOM     35  C   UNL     1       4.235  15.026  17.829  0.00  0.00    +0.000 C 
BRANCH  29  36
ATOM     36  C   UNL     1       7.739  15.931  19.111  0.00  0.00    +0.000 C 
ATOM     37  C   UNL     1       9.155  15.647  18.716  0.00  0.00    +0.000 C 
ATOM     38  C   UNL     1       8.583  17.011  18.508  0.00  0.00    +0.000 C 
ENDBRANCH  29  36
ENDBRANCH   1  34
TORSDOF 4
ENDMDL
MODEL 8
REMARK VINA RESULT:      -7.5      4.240      8.470
REMARK  Name = 
REMARK  4 active torsions:
REMARK  status: ('A' for Active; 'I' for Inactive)
REMARK    1  A    between atoms: C_2  and  C_3
REMARK    2  A    between atoms: C_10  and  N_11
REMARK    3  A    between atoms: C_16  and  N_17
REMARK    4  A    between atoms: C_18  and  C_19
REMARK                            x       y       z     vdW  Elec       q    Type
REMARK                         _______ _______ _______ _____ _____    ______ ____
ROOT
ATOM      1  N   UNL     1       4.075  14.130  22.154  0.00  0.00    +0.000 N 
ATOM      2  C   UNL     1       3.396  14.022  20.948  0.00  0.00    +0.000 A 
ATOM      3  N   UNL     1       4.010  14.294  19.792  0.00  0.00    +0.000 NA
ATOM      4  C   UNL     1       3.312  14.098  18.660  0.00  0.00    +0.000 A 
ATOM      5  C   UNL     1       2.030  13.611  18.635  0.00  0.00    +0.000 A 
ATOM      6  C   UNL     1       1.472  13.365  19.869  0.00  0.00    +0.000 A 
ATOM      7  N   UNL     1       2.129  13.609  21.022  0.00  0.00    +0.000 NA
ATOM      8  H   UNL     1       3.775  15.018  22.550  0.00  0.00    +0.000 HD
ENDROOT
BRANCH   6   9
ATOM      9  N   UNL     1       0.140  12.868  19.961  0.00  0.00    +0.000 N 
ATOM     10  C   UNL     1      -0.270  11.568  19.667  0.00  0.00    +0.000 A 
ATOM     11  N   UNL     1      -1.577  11.437  19.815  0.00  0.00    +0.000 NA
ATOM     12  C   UNL     1      -2.034  12.649  20.238  0.00  0.00    +0.000 A 
ATOM     13  C   UNL     1      -3.350  13.028  20.548  0.00  0.00    +0.000 A 
ATOM     14  C   UNL     1      -3.603  14.348  20.930  0.00  0.00    +0.000 A 
ATOM     15  C   UNL     1      -2.570  15.280  20.976  0.00  0.00    +0.000 A 
ATOM     16  C   UNL     1      -1.254  14.921  20.662  0.00  0.00    +0.000 A 
ATOM     17  C   UNL     1      -1.001  13.578  20.332  0.00  0.00    +0.000 A 
BRANCH  10  18
ATOM     18  C   UNL     1       0.609  10.439  19.353  0.00  0.00    +0.000 A 
ATOM     19  C   UNL     1       1.043  10.259  18.034  0.00  0.00    +0.000 A 
ATOM     20  C   UNL     1       1.882   9.193  17.712  0.00  0.00    +0.000 A 
ATOM     21  C   UNL     1       2.168   8.215  18.674  0.00  0.00    +0.000 A 
ATOM     22  C   UNL     1       2.924   7.088  18.368  0.00  0.00    +0.000 A 
ATOM     23  C   UNL     1       2.657   5.895  19.019  0.00  0.00    +0.000 A 
ATOM     24  C   UNL     1       2.048   5.945  20.263  0.00  0.00    +0.000 A 
ATOM     25  C   UNL     1       1.661   7.176  20.794  0.00  0.00    +0.000 A 
ATOM     26  C   UNL     1       1.601   8.298  19.956  0.00  0.00    +0.000 A 
ATOM     27  C   UNL     1       0.918   9.466  20.317  0.00  0.00    +0.000 A 
ENDBRANCH  10  18
ENDBRANCH   6   9
BRANCH   1  34
ATOM     28  O   UNL     1       7.990  16.711  20.934  0.00  0.00    +0.000 OA
ATOM     29  C   UNL     1       8.449  15.910  21.724  0.00  0.00    +0.000 C 
ATOM     30  N   UNL     1       7.647  15.205  22.618  0.00  0.00    +0.000 N 
ATOM     31  C   UNL     1       8.072  14.200  23.591  0.00  0.00    +0.000 C 
ATOM     32  C   UNL     1       7.515  12.836  23.211  0.00  0.00    +0.000 C 
ATOM     33  C   UNL     1       5.996  12.886  23.067  0.00  0.00    +0.000 C 
ATOM     34  C   UNL     1       5.533  13.995  22.089  0.00  0.00    +0.000 C 
ATOM     35  C   UNL     1       6.188  15.334  22.497  0.00  0.00    +0.000 C 
BRANCH  29  36
ATOM     36  C   UNL     1       9.932  15.616  21.695  0.00  0.00    +0.000 C 
ATOM     37  C   UNL     1      10.842  16.622  21.062  0.00  0.00    +0.000 C 
ATOM     38  C   UNL     1      10.903  16.385  22.536  0.00  0.00    +0.000 C 
ENDBRANCH  29  36
ENDBRANCH   1  34
TORSDOF 4
ENDMDL
MODEL 9
REMARK VINA RESULT:      -7.5      3.372      6.978
REMARK  Name = 
REMARK  4 active torsions:
REMARK  status: ('A' for Active; 'I' for Inactive)
REMARK    1  A    between atoms: C_2  and  C_3
REMARK    2  A    between atoms: C_10  and  N_11
REMARK    3  A    between atoms: C_16  and  N_17
REMARK    4  A    between atoms: C_18  and  C_19
REMARK                            x       y       z     vdW  Elec       q    Type
REMARK                         _______ _______ _______ _____ _____    ______ ____
ROOT
ATOM      1  N   UNL     1      -0.976  11.720  20.872  0.00  0.00    +0.000 N 
ATOM      2  C   UNL     1      -2.198  12.134  20.356  0.00  0.00    +0.000 A 
ATOM      3  N   UNL     1      -2.652  11.641  19.200  0.00  0.00    +0.000 NA
ATOM      4  C   UNL     1      -3.874  12.032  18.799  0.00  0.00    +0.000 A 
ATOM      5  C   UNL     1      -4.676  12.877  19.524  0.00  0.00    +0.000 A 
ATOM      6  C   UNL     1      -4.126  13.343  20.697  0.00  0.00    +0.000 A 
ATOM      7  N   UNL     1      -2.880  13.013  21.094  0.00  0.00    +0.000 NA
ATOM      8  H   UNL     1      -0.324  12.467  20.643  0.00  0.00    +0.000 HD
ENDROOT
BRANCH   6   9
ATOM      9  N   UNL     1      -4.867  14.236  21.524  0.00  0.00    +0.000 N 
ATOM     10  C   UNL     1      -4.702  15.620  21.587  0.00  0.00    +0.000 A 
ATOM     11  N   UNL     1      -5.514  16.155  22.483  0.00  0.00    +0.000 NA
ATOM     12  C   UNL     1      -6.243  15.124  22.996  0.00  0.00    +0.000 A 
ATOM     13  C   UNL     1      -7.251  15.167  23.972  0.00  0.00    +0.000 A 
ATOM     14  C   UNL     1      -7.848  13.973  24.384  0.00  0.00    +0.000 A 
ATOM     15  C   UNL     1      -7.431  12.756  23.853  0.00  0.00    +0.000 A 
ATOM     16  C   UNL     1      -6.422  12.694  22.884  0.00  0.00    +0.000 A 
ATOM     17  C   UNL     1      -5.866  13.906  22.438  0.00  0.00    +0.000 A 
BRANCH  10  18
ATOM     18  C   UNL     1      -3.844  16.425  20.713  0.00  0.00    +0.000 A 
ATOM     19  C   UNL     1      -4.436  17.315  19.810  0.00  0.00    +0.000 A 
ATOM     20  C   UNL     1      -3.641  18.093  18.970  0.00  0.00    +0.000 A 
ATOM     21  C   UNL     1      -2.256  17.874  18.921  0.00  0.00    +0.000 A 
ATOM     22  C   UNL     1      -1.439  18.564  18.031  0.00  0.00    +0.000 A 
ATOM     23  C   UNL     1      -0.315  17.938  17.519  0.00  0.00    +0.000 A 
ATOM     24  C   UNL     1       0.252  16.902  18.246  0.00  0.00    +0.000 A 
ATOM     25  C   UNL     1      -0.355  16.474  19.428  0.00  0.00    +0.000 A 
ATOM     26  C   UNL     1      -1.673  16.867  19.704  0.00  0.00    +0.000 A 
ATOM     27  C   UNL     1      -2.454  16.227  20.674  0.00  0.00    +0.000 A 
ENDBRANCH  10  18
ENDBRANCH   6   9
BRANCH   1  34
ATOM     28  O   UNL     1       1.865   9.702  17.506  0.00  0.00    +0.000 OA
ATOM     29  C   UNL     1       1.898   8.875  18.396  0.00  0.00    +0.000 C 
ATOM     30  N   UNL     1       1.536   9.180  19.707  0.00  0.00    +0.000 N 
ATOM     31  C   UNL     1       1.506   8.274  20.853  0.00  0.00    +0.000 C 
ATOM     32  C   UNL     1       0.072   8.070  21.320  0.00  0.00    +0.000 C 
ATOM     33  C   UNL     1      -0.597   9.407  21.631  0.00  0.00    +0.000 C 
ATOM     34  C   UNL     1      -0.509  10.399  20.444  0.00  0.00    +0.000 C 
ATOM     35  C   UNL     1       0.962  10.504  19.981  0.00  0.00    +0.000 C 
BRANCH  29  36
ATOM     36  C   UNL     1       2.279   7.451  18.063  0.00  0.00    +0.000 C 
ATOM     37  C   UNL     1       3.598   7.207  17.397  0.00  0.00    +0.000 C 
ATOM     38  C   UNL     1       3.371   6.737  18.797  0.00  0.00    +0.000 C 
ENDBRANCH  29  36
ENDBRANCH   1  34
TORSDOF 4
ENDMDL
