MODEL 1
REMARK VINA RESULT:      -7.1      0.000      0.000
REMARK  Name = 
REMARK  5 active torsions:
REMARK  status: ('A' for Active; 'I' for Inactive)
REMARK    1  A    between atoms: C_2  and  O_3
REMARK    2  A    between atoms: C_2  and  C_4
REMARK    3  A    between atoms: C_4  and  C_5
REMARK    4  A    between atoms: C_5  and  S_6
REMARK    5  A    between atoms: S_6  and  C_7
REMARK                            x       y       z     vdW  Elec       q    Type
REMARK                         _______ _______ _______ _____ _____    ______ ____
ROOT
ATOM      1  C   UNL     1       4.481   5.009  16.803  0.00  0.00    +0.000 C 
ATOM      2  C   UNL     1       4.109   3.725  16.737  0.00  0.00    +0.000 C 
ATOM      3  C   UNL     1       3.060   3.168  17.607  0.00  0.00    +0.000 C 
ATOM      4  O   UNL     1       2.704   2.005  17.478  0.00  0.00    +0.000 OA
ATOM      5  C   UNL     1       2.503   4.039  18.657  0.00  0.00    +0.000 A 
ATOM      6  C   UNL     1       1.643   3.497  19.621  0.00  0.00    +0.000 A 
ATOM      7  C   UNL     1       1.125   4.311  20.628  0.00  0.00    +0.000 A 
ATOM      8  C   UNL     1       1.454   5.666  20.669  0.00  0.00    +0.000 A 
ATOM      9  C   UNL     1       2.311   6.207  19.709  0.00  0.00    +0.000 A 
ATOM     10  C   UNL     1       2.845   5.389  18.705  0.00  0.00    +0.000 A 
ATOM     11  C   UNL     1       3.792   5.962  17.723  0.00  0.00    +0.000 C 
ATOM     12  O   UNL     1       4.000   7.169  17.713  0.00  0.00    +0.000 OA
ENDROOT
BRANCH   1  13
ATOM     13  S   UNL     1       5.799   5.583  15.827  0.00  0.00    +0.000 S 
BRANCH  13  14
ATOM     14  C   UNL     1       7.249   5.114  16.845  0.00  0.00    +0.000 C 
BRANCH  14  15
ATOM     15  C   UNL     1       7.517   6.136  17.949  0.00  0.00    +0.000 C 
BRANCH  15  17
ATOM     16  O   UNL     1       6.294   5.091  19.765  0.00  0.00    +0.000 OA
ATOM     17  C   UNL     1       7.341   5.535  19.320  0.00  0.00    +0.000 C 
BRANCH  17  18
ATOM     18  O   UNL     1       8.490   5.521  20.035  0.00  0.00    +0.000 OA
ATOM     19  H   UNL     1       9.250   5.967  19.613  0.00  0.00    +0.000 HD
ENDBRANCH  17  18
ENDBRANCH  15  17
ENDBRANCH  14  15
ENDBRANCH  13  14
ENDBRANCH   1  13
TORSDOF 5
ENDMDL
MODEL 2
REMARK VINA RESULT:      -7.0      2.196      3.430
REMARK  Name = 
REMARK  5 active torsions:
REMARK  status: ('A' for Active; 'I' for Inactive)
REMARK    1  A    between atoms: C_2  and  O_3
REMARK    2  A    between atoms: C_2  and  C_4
REMARK    3  A    between atoms: C_4  and  C_5
REMARK    4  A    between atoms: C_5  and  S_6
REMARK    5  A    between atoms: S_6  and  C_7
REMARK                            x       y       z     vdW  Elec       q    Type
REMARK                         _______ _______ _______ _____ _____    ______ ____
ROOT
ATOM      1  C   UNL     1       4.030   5.828  17.409  0.00  0.00    +0.000 C 
ATOM      2  C   UNL     1       3.515   6.624  18.353  0.00  0.00    +0.000 C 
ATOM      3  C   UNL     1       2.568   6.128  19.365  0.00  0.00    +0.000 C 
ATOM      4  O   UNL     1       2.162   6.871  20.249  0.00  0.00    +0.000 OA
ATOM      5  C   UNL     1       2.093   4.739  19.240  0.00  0.00    +0.000 A 
ATOM      6  C   UNL     1       1.056   4.285  20.066  0.00  0.00    +0.000 A 
ATOM      7  C   UNL     1       0.590   2.976  19.942  0.00  0.00    +0.000 A 
ATOM      8  C   UNL     1       1.163   2.116  19.006  0.00  0.00    +0.000 A 
ATOM      9  C   UNL     1       2.198   2.567  18.184  0.00  0.00    +0.000 A 
ATOM     10  C   UNL     1       2.658   3.886  18.294  0.00  0.00    +0.000 A 
ATOM     11  C   UNL     1       3.719   4.368  17.383  0.00  0.00    +0.000 C 
ATOM     12  O   UNL     1       4.277   3.579  16.631  0.00  0.00    +0.000 OA
ENDROOT
BRANCH   1  13
ATOM     13  S   UNL     1       5.059   6.493  16.178  0.00  0.00    +0.000 S 
BRANCH  13  14
ATOM     14  C   UNL     1       6.726   6.161  16.864  0.00  0.00    +0.000 C 
BRANCH  14  15
ATOM     15  C   UNL     1       7.277   4.820  16.381  0.00  0.00    +0.000 C 
BRANCH  15  17
ATOM     16  O   UNL     1       7.666   5.414  14.062  0.00  0.00    +0.000 OA
ATOM     17  C   UNL     1       7.155   4.673  14.887  0.00  0.00    +0.000 C 
BRANCH  17  18
ATOM     18  O   UNL     1       6.411   3.600  14.527  0.00  0.00    +0.000 OA
ATOM     19  H   UNL     1       5.871   3.207  15.241  0.00  0.00    +0.000 HD
ENDBRANCH  17  18
ENDBRANCH  15  17
ENDBRANCH  14  15
ENDBRANCH  13  14
ENDBRANCH   1  13
TORSDOF 5
ENDMDL
MODEL 3
REMARK VINA RESULT:      -6.9      1.603      2.814
REMARK  Name = 
REMARK  5 active torsions:
REMARK  status: ('A' for Active; 'I' for Inactive)
REMARK    1  A    between atoms: C_2  and  O_3
REMARK    2  A    between atoms: C_2  and  C_4
REMARK    3  A    between atoms: C_4  and  C_5
REMARK    4  A    between atoms: C_5  and  S_6
REMARK    5  A    between atoms: S_6  and  C_7
REMARK                            x       y       z     vdW  Elec       q    Type
REMARK                         _______ _______ _______ _____ _____    ______ ____
ROOT
ATOM      1  C   UNL     1       4.130   5.674  17.469  0.00  0.00    +0.000 C 
ATOM      2  C   UNL     1       3.576   6.598  18.263  0.00  0.00    +0.000 C 
ATOM      3  C   UNL     1       2.602   6.248  19.310  0.00  0.00    +0.000 C 
ATOM      4  O   UNL     1       2.160   7.111  20.057  0.00  0.00    +0.000 OA
ATOM      5  C   UNL     1       2.147   4.849  19.386  0.00  0.00    +0.000 A 
ATOM      6  C   UNL     1       1.088   4.511  20.240  0.00  0.00    +0.000 A 
ATOM      7  C   UNL     1       0.641   3.191  20.306  0.00  0.00    +0.000 A 
ATOM      8  C   UNL     1       1.253   2.207  19.530  0.00  0.00    +0.000 A 
ATOM      9  C   UNL     1       2.309   2.543  18.680  0.00  0.00    +0.000 A 
ATOM     10  C   UNL     1       2.750   3.870  18.600  0.00  0.00    +0.000 A 
ATOM     11  C   UNL     1       3.835   4.223  17.658  0.00  0.00    +0.000 C 
ATOM     12  O   UNL     1       4.426   3.337  17.053  0.00  0.00    +0.000 OA
ENDROOT
BRANCH   1  13
ATOM     13  S   UNL     1       5.190   6.159  16.181  0.00  0.00    +0.000 S 
BRANCH  13  14
ATOM     14  C   UNL     1       6.436   7.159  17.081  0.00  0.00    +0.000 C 
BRANCH  14  15
ATOM     15  C   UNL     1       7.321   6.288  17.972  0.00  0.00    +0.000 C 
BRANCH  15  17
ATOM     16  O   UNL     1       7.892   4.608  16.319  0.00  0.00    +0.000 OA
ATOM     17  C   UNL     1       7.460   4.891  17.425  0.00  0.00    +0.000 C 
BRANCH  17  18
ATOM     18  O   UNL     1       7.059   3.944  18.307  0.00  0.00    +0.000 OA
ATOM     19  H   UNL     1       6.092   3.836  18.393  0.00  0.00    +0.000 HD
ENDBRANCH  17  18
ENDBRANCH  15  17
ENDBRANCH  14  15
ENDBRANCH  13  14
ENDBRANCH   1  13
TORSDOF 5
ENDMDL
MODEL 4
REMARK VINA RESULT:      -6.9      1.183      2.507
REMARK  Name = 
REMARK  5 active torsions:
REMARK  status: ('A' for Active; 'I' for Inactive)
REMARK    1  A    between atoms: C_2  and  O_3
REMARK    2  A    between atoms: C_2  and  C_4
REMARK    3  A    between atoms: C_4  and  C_5
REMARK    4  A    between atoms: C_5  and  S_6
REMARK    5  A    between atoms: S_6  and  C_7
REMARK                            x       y       z     vdW  Elec       q    Type
REMARK                         _______ _______ _______ _____ _____    ______ ____
ROOT
ATOM      1  C   UNL     1       4.438   5.443  17.233  0.00  0.00    +0.000 C 
ATOM      2  C   UNL     1       3.915   6.483  17.894  0.00  0.00    +0.000 C 
ATOM      3  C   UNL     1       2.964   6.306  19.005  0.00  0.00    +0.000 C 
ATOM      4  O   UNL     1       2.551   7.277  19.625  0.00  0.00    +0.000 OA
ATOM      5  C   UNL     1       2.495   4.940  19.298  0.00  0.00    +0.000 A 
ATOM      6  C   UNL     1       1.456   4.748  20.218  0.00  0.00    +0.000 A 
ATOM      7  C   UNL     1       0.995   3.459  20.489  0.00  0.00    +0.000 A 
ATOM      8  C   UNL     1       1.578   2.363  19.855  0.00  0.00    +0.000 A 
ATOM      9  C   UNL     1       2.614   2.553  18.939  0.00  0.00    +0.000 A 
ATOM     10  C   UNL     1       3.068   3.847  18.652  0.00  0.00    +0.000 A 
ATOM     11  C   UNL     1       4.133   4.040  17.643  0.00  0.00    +0.000 C 
ATOM     12  O   UNL     1       4.698   3.066  17.163  0.00  0.00    +0.000 OA
ENDROOT
BRANCH   1  13
ATOM     13  S   UNL     1       5.471   5.716  15.863  0.00  0.00    +0.000 S 
BRANCH  13  14
ATOM     14  C   UNL     1       7.036   6.223  16.671  0.00  0.00    +0.000 C 
BRANCH  14  15
ATOM     15  C   UNL     1       7.551   5.149  17.628  0.00  0.00    +0.000 C 
BRANCH  15  17
ATOM     16  O   UNL     1       7.199   5.156  20.028  0.00  0.00    +0.000 OA
ATOM     17  C   UNL     1       7.686   5.673  19.034  0.00  0.00    +0.000 C 
BRANCH  17  18
ATOM     18  O   UNL     1       8.430   6.802  19.101  0.00  0.00    +0.000 OA
ATOM     19  H   UNL     1       8.082   7.563  18.597  0.00  0.00    +0.000 HD
ENDBRANCH  17  18
ENDBRANCH  15  17
ENDBRANCH  14  15
ENDBRANCH  13  14
ENDBRANCH   1  13
TORSDOF 5
ENDMDL
MODEL 5
REMARK VINA RESULT:      -6.9      2.417      5.243
REMARK  Name = 
REMARK  5 active torsions:
REMARK  status: ('A' for Active; 'I' for Inactive)
REMARK    1  A    between atoms: C_2  and  O_3
REMARK    2  A    between atoms: C_2  and  C_4
REMARK    3  A    between atoms: C_4  and  C_5
REMARK    4  A    between atoms: C_5  and  S_6
REMARK    5  A    between atoms: S_6  and  C_7
REMARK                            x       y       z     vdW  Elec       q    Type
REMARK                         _______ _______ _______ _____ _____    ______ ____
ROOT
ATOM      1  C   UNL     1       4.050   3.402  17.718  0.00  0.00    +0.000 C 
ATOM      2  C   UNL     1       4.138   3.888  16.474  0.00  0.00    +0.000 C 
ATOM      3  C   UNL     1       5.189   4.841  16.078  0.00  0.00    +0.000 C 
ATOM      4  O   UNL     1       5.275   5.219  14.918  0.00  0.00    +0.000 OA
ATOM      5  C   UNL     1       6.083   5.354  17.130  0.00  0.00    +0.000 A 
ATOM      6  C   UNL     1       6.972   6.397  16.835  0.00  0.00    +0.000 A 
ATOM      7  C   UNL     1       7.811   6.899  17.830  0.00  0.00    +0.000 A 
ATOM      8  C   UNL     1       7.773   6.356  19.114  0.00  0.00    +0.000 A 
ATOM      9  C   UNL     1       6.889   5.317  19.409  0.00  0.00    +0.000 A 
ATOM     10  C   UNL     1       6.034   4.820  18.416  0.00  0.00    +0.000 A 
ATOM     11  C   UNL     1       5.066   3.753  18.753  0.00  0.00    +0.000 C 
ATOM     12  O   UNL     1       5.108   3.222  19.856  0.00  0.00    +0.000 OA
ENDROOT
BRANCH   1  13
ATOM     13  S   UNL     1       2.725   2.365  18.153  0.00  0.00    +0.000 S 
BRANCH  13  14
ATOM     14  C   UNL     1       1.459   3.580  18.683  0.00  0.00    +0.000 C 
BRANCH  14  15
ATOM     15  C   UNL     1       0.875   3.225  20.049  0.00  0.00    +0.000 C 
BRANCH  15  17
ATOM     16  O   UNL     1       2.375   4.725  21.224  0.00  0.00    +0.000 OA
ATOM     17  C   UNL     1       1.779   3.661  21.173  0.00  0.00    +0.000 C 
BRANCH  17  18
ATOM     18  O   UNL     1       1.865   2.738  22.160  0.00  0.00    +0.000 OA
ATOM     19  H   UNL     1       2.460   2.971  22.899  0.00  0.00    +0.000 HD
ENDBRANCH  17  18
ENDBRANCH  15  17
ENDBRANCH  14  15
ENDBRANCH  13  14
ENDBRANCH   1  13
TORSDOF 5
ENDMDL
MODEL 6
REMARK VINA RESULT:      -6.9      1.103      1.207
REMARK  Name = 
REMARK  5 active torsions:
REMARK  status: ('A' for Active; 'I' for Inactive)
REMARK    1  A    between atoms: C_2  and  O_3
REMARK    2  A    between atoms: C_2  and  C_4
REMARK    3  A    between atoms: C_4  and  C_5
REMARK    4  A    between atoms: C_5  and  S_6
REMARK    5  A    between atoms: S_6  and  C_7
REMARK                            x       y       z     vdW  Elec       q    Type
REMARK                         _______ _______ _______ _____ _____    ______ ____
ROOT
ATOM      1  C   UNL     1       4.254   4.929  17.051  0.00  0.00    +0.000 C 
ATOM      2  C   UNL     1       4.434   3.603  17.031  0.00  0.00    +0.000 C 
ATOM      3  C   UNL     1       3.668   2.696  17.903  0.00  0.00    +0.000 C 
ATOM      4  O   UNL     1       3.816   1.485  17.816  0.00  0.00    +0.000 OA
ATOM      5  C   UNL     1       2.772   3.299  18.905  0.00  0.00    +0.000 A 
ATOM      6  C   UNL     1       2.170   2.485  19.873  0.00  0.00    +0.000 A 
ATOM      7  C   UNL     1       1.332   3.050  20.836  0.00  0.00    +0.000 A 
ATOM      8  C   UNL     1       1.086   4.423  20.826  0.00  0.00    +0.000 A 
ATOM      9  C   UNL     1       1.685   5.235  19.861  0.00  0.00    +0.000 A 
ATOM     10  C   UNL     1       2.539   4.673  18.903  0.00  0.00    +0.000 A 
ATOM     11  C   UNL     1       3.208   5.550  17.917  0.00  0.00    +0.000 C 
ATOM     12  O   UNL     1       2.911   6.737  17.861  0.00  0.00    +0.000 OA
ENDROOT
BRANCH   1  13
ATOM     13  S   UNL     1       5.262   5.957  16.078  0.00  0.00    +0.000 S 
BRANCH  13  14
ATOM     14  C   UNL     1       6.076   6.994  17.351  0.00  0.00    +0.000 C 
BRANCH  14  15
ATOM     15  C   UNL     1       7.484   6.493  17.671  0.00  0.00    +0.000 C 
BRANCH  15  17
ATOM     16  O   UNL     1       7.012   5.134  19.624  0.00  0.00    +0.000 OA
ATOM     17  C   UNL     1       7.453   5.228  18.489  0.00  0.00    +0.000 C 
BRANCH  17  18
ATOM     18  O   UNL     1       7.965   4.165  17.825  0.00  0.00    +0.000 OA
ATOM     19  H   UNL     1       7.497   3.918  17.004  0.00  0.00    +0.000 HD
ENDBRANCH  17  18
ENDBRANCH  15  17
ENDBRANCH  14  15
ENDBRANCH  13  14
ENDBRANCH   1  13
TORSDOF 5
ENDMDL
MODEL 7
REMARK VINA RESULT:      -6.9      2.247      5.409
REMARK  Name = 
REMARK  5 active torsions:
REMARK  status: ('A' for Active; 'I' for Inactive)
REMARK    1  A    between atoms: C_2  and  O_3
REMARK    2  A    between atoms: C_2  and  C_4
REMARK    3  A    between atoms: C_4  and  C_5
REMARK    4  A    between atoms: C_5  and  S_6
REMARK    5  A    between atoms: S_6  and  C_7
REMARK                            x       y       z     vdW  Elec       q    Type
REMARK                         _______ _______ _______ _____ _____    ______ ____
ROOT
ATOM      1  C   UNL     1       4.220   4.210  17.659  0.00  0.00    +0.000 C 
ATOM      2  C   UNL     1       4.182   4.998  16.578  0.00  0.00    +0.000 C 
ATOM      3  C   UNL     1       5.224   6.003  16.304  0.00  0.00    +0.000 C 
ATOM      4  O   UNL     1       5.188   6.665  15.276  0.00  0.00    +0.000 OA
ATOM      5  C   UNL     1       6.263   6.212  17.327  0.00  0.00    +0.000 A 
ATOM      6  C   UNL     1       7.160   7.281  17.193  0.00  0.00    +0.000 A 
ATOM      7  C   UNL     1       8.137   7.496  18.166  0.00  0.00    +0.000 A 
ATOM      8  C   UNL     1       8.228   6.642  19.264  0.00  0.00    +0.000 A 
ATOM      9  C   UNL     1       7.335   5.576  19.398  0.00  0.00    +0.000 A 
ATOM     10  C   UNL     1       6.343   5.367  18.431  0.00  0.00    +0.000 A 
ATOM     11  C   UNL     1       5.371   4.266  18.609  0.00  0.00    +0.000 C 
ATOM     12  O   UNL     1       5.519   3.468  19.527  0.00  0.00    +0.000 OA
ENDROOT
BRANCH   1  13
ATOM     13  S   UNL     1       2.909   3.119  17.985  0.00  0.00    +0.000 S 
BRANCH  13  14
ATOM     14  C   UNL     1       1.675   4.238  18.751  0.00  0.00    +0.000 C 
BRANCH  14  15
ATOM     15  C   UNL     1       2.055   4.599  20.186  0.00  0.00    +0.000 C 
BRANCH  15  17
ATOM     16  O   UNL     1       2.302   3.213  22.161  0.00  0.00    +0.000 OA
ATOM     17  C   UNL     1       1.676   3.509  21.155  0.00  0.00    +0.000 C 
BRANCH  17  18
ATOM     18  O   UNL     1       0.535   2.872  20.803  0.00  0.00    +0.000 OA
ATOM     19  H   UNL     1      -0.166   3.444  20.433  0.00  0.00    +0.000 HD
ENDBRANCH  17  18
ENDBRANCH  15  17
ENDBRANCH  14  15
ENDBRANCH  13  14
ENDBRANCH   1  13
TORSDOF 5
ENDMDL
MODEL 8
REMARK VINA RESULT:      -6.8      0.925      1.094
REMARK  Name = 
REMARK  5 active torsions:
REMARK  status: ('A' for Active; 'I' for Inactive)
REMARK    1  A    between atoms: C_2  and  O_3
REMARK    2  A    between atoms: C_2  and  C_4
REMARK    3  A    between atoms: C_4  and  C_5
REMARK    4  A    between atoms: C_5  and  S_6
REMARK    5  A    between atoms: S_6  and  C_7
REMARK                            x       y       z     vdW  Elec       q    Type
REMARK                         _______ _______ _______ _____ _____    ______ ____
ROOT
ATOM      1  C   UNL     1       4.436   4.883  17.103  0.00  0.00    +0.000 C 
ATOM      2  C   UNL     1       4.479   3.550  16.989  0.00  0.00    +0.000 C 
ATOM      3  C   UNL     1       3.609   2.668  17.784  0.00  0.00    +0.000 C 
ATOM      4  O   UNL     1       3.633   1.457  17.611  0.00  0.00    +0.000 OA
ATOM      5  C   UNL     1       2.760   3.288  18.817  0.00  0.00    +0.000 A 
ATOM      6  C   UNL     1       2.059   2.473  19.716  0.00  0.00    +0.000 A 
ATOM      7  C   UNL     1       1.267   3.053  20.708  0.00  0.00    +0.000 A 
ATOM      8  C   UNL     1       1.162   4.441  20.795  0.00  0.00    +0.000 A 
ATOM      9  C   UNL     1       1.859   5.253  19.898  0.00  0.00    +0.000 A 
ATOM     10  C   UNL     1       2.669   4.675  18.912  0.00  0.00    +0.000 A 
ATOM     11  C   UNL     1       3.442   5.546  18.000  0.00  0.00    +0.000 C 
ATOM     12  O   UNL     1       3.270   6.758  18.026  0.00  0.00    +0.000 OA
ENDROOT
BRANCH   1  13
ATOM     13  S   UNL     1       5.562   5.868  16.219  0.00  0.00    +0.000 S 
BRANCH  13  14
ATOM     14  C   UNL     1       7.168   5.147  16.729  0.00  0.00    +0.000 C 
BRANCH  14  15
ATOM     15  C   UNL     1       7.186   4.805  18.218  0.00  0.00    +0.000 C 
BRANCH  15  17
ATOM     16  O   UNL     1       8.132   7.004  18.607  0.00  0.00    +0.000 OA
ATOM     17  C   UNL     1       7.807   5.908  19.036  0.00  0.00    +0.000 C 
BRANCH  17  18
ATOM     18  O   UNL     1       7.968   5.566  20.336  0.00  0.00    +0.000 OA
ATOM     19  H   UNL     1       8.302   6.276  20.917  0.00  0.00    +0.000 HD
ENDBRANCH  17  18
ENDBRANCH  15  17
ENDBRANCH  14  15
ENDBRANCH  13  14
ENDBRANCH   1  13
TORSDOF 5
ENDMDL
MODEL 9
REMARK VINA RESULT:      -6.8      2.672      3.660
REMARK  Name = 
REMARK  5 active torsions:
REMARK  status: ('A' for Active; 'I' for Inactive)
REMARK    1  A    between atoms: C_2  and  O_3
REMARK    2  A    between atoms: C_2  and  C_4
REMARK    3  A    between atoms: C_4  and  C_5
REMARK    4  A    between atoms: C_5  and  S_6
REMARK    5  A    between atoms: S_6  and  C_7
REMARK                            x       y       z     vdW  Elec       q    Type
REMARK                         _______ _______ _______ _____ _____    ______ ____
ROOT
ATOM      1  C   UNL     1       4.641   4.901  16.730  0.00  0.00    +0.000 C 
ATOM      2  C   UNL     1       4.243   3.624  16.790  0.00  0.00    +0.000 C 
ATOM      3  C   UNL     1       3.196   3.173  17.721  0.00  0.00    +0.000 C 
ATOM      4  O   UNL     1       2.816   2.010  17.707  0.00  0.00    +0.000 OA
ATOM      5  C   UNL     1       2.672   4.149  18.692  0.00  0.00    +0.000 A 
ATOM      6  C   UNL     1       1.815   3.718  19.713  0.00  0.00    +0.000 A 
ATOM      7  C   UNL     1       1.327   4.633  20.647  0.00  0.00    +0.000 A 
ATOM      8  C   UNL     1       1.683   5.979  20.556  0.00  0.00    +0.000 A 
ATOM      9  C   UNL     1       2.536   6.409  19.538  0.00  0.00    +0.000 A 
ATOM     10  C   UNL     1       3.040   5.490  18.609  0.00  0.00    +0.000 A 
ATOM     11  C   UNL     1       3.984   5.949  17.566  0.00  0.00    +0.000 C 
ATOM     12  O   UNL     1       4.214   7.146  17.440  0.00  0.00    +0.000 OA
ENDROOT
BRANCH   1  13
ATOM     13  S   UNL     1       5.955   5.353  15.688  0.00  0.00    +0.000 S 
BRANCH  13  14
ATOM     14  C   UNL     1       6.195   3.824  14.705  0.00  0.00    +0.000 C 
BRANCH  14  15
ATOM     15  C   UNL     1       6.541   4.138  13.250  0.00  0.00    +0.000 C 
BRANCH  15  17
ATOM     16  O   UNL     1       4.641   3.428  11.921  0.00  0.00    +0.000 OA
ATOM     17  C   UNL     1       5.790   3.248  12.294  0.00  0.00    +0.000 C 
BRANCH  17  18
ATOM     18  O   UNL     1       6.532   2.201  11.863  0.00  0.00    +0.000 OA
ATOM     19  H   UNL     1       6.486   2.023  10.903  0.00  0.00    +0.000 HD
ENDBRANCH  17  18
ENDBRANCH  15  17
ENDBRANCH  14  15
ENDBRANCH  13  14
ENDBRANCH   1  13
TORSDOF 5
ENDMDL
