MODEL 1
REMARK VINA RESULT:      -8.0      0.000      0.000
REMARK  Name = 
REMARK  2 active torsions:
REMARK  status: ('A' for Active; 'I' for Inactive)
REMARK    1  A    between atoms: C_2  and  C_3
REMARK    2  A    between atoms: C_19  and  C_20
REMARK                            x       y       z     vdW  Elec       q    Type
REMARK                         _______ _______ _______ _____ _____    ______ ____
ROOT
ATOM      1  O   UNL     1      -4.159  12.877  19.827  0.00  0.00    +0.000 OA
ATOM      2  C   UNL     1      -3.065  13.133  20.324  0.00  0.00    +0.000 C 
ATOM      3  N   UNL     1      -1.879  12.574  19.834  0.00  0.00    +0.000 N 
ATOM      4  C   UNL     1      -1.939  11.670  18.692  0.00  0.00    +0.000 C 
ATOM      5  C   UNL     1      -1.227  10.353  19.011  0.00  0.00    +0.000 C 
ATOM      6  C   UNL     1       0.179  10.606  19.563  0.00  0.00    +0.000 C 
ATOM      7  C   UNL     1       0.203  11.632  20.691  0.00  0.00    +0.000 C 
ATOM      8  C   UNL     1      -0.504  12.907  20.234  0.00  0.00    +0.000 C 
ATOM      9  N   UNL     1       0.793   9.374  19.982  0.00  0.00    +0.000 N 
ATOM     10  C   UNL     1       1.681   9.013  19.016  0.00  0.00    +0.000 C 
ATOM     11  N   UNL     1       1.881   9.950  18.123  0.00  0.00    +0.000 NA
ATOM     12  O   UNL     1       1.030  11.050  18.485  0.00  0.00    +0.000 OA
ATOM     13  H   UNL     1       0.399   8.782  20.692  0.00  0.00    +0.000 HD
ENDROOT
BRANCH   2  14
ATOM     14  C   UNL     1      -3.034  14.077  21.478  0.00  0.00    +0.000 A 
ATOM     15  C   UNL     1      -2.586  15.405  21.322  0.00  0.00    +0.000 A 
ATOM     16  C   UNL     1      -2.688  16.329  22.356  0.00  0.00    +0.000 A 
ATOM     17  C   UNL     1      -3.153  15.942  23.614  0.00  0.00    +0.000 A 
ATOM     18  C   UNL     1      -3.475  14.593  23.802  0.00  0.00    +0.000 A 
ATOM     19  N   UNL     1      -3.886  13.940  24.940  0.00  0.00    +0.000 N 
ATOM     20  C   UNL     1      -4.065  12.609  24.686  0.00  0.00    +0.000 A 
ATOM     21  C   UNL     1      -3.803  12.401  23.351  0.00  0.00    +0.000 A 
ATOM     22  C   UNL     1      -3.421  13.648  22.771  0.00  0.00    +0.000 A 
ATOM     23  H   UNL     1      -4.007  14.382  25.842  0.00  0.00    +0.000 HD
ENDBRANCH   2  14
BRANCH  10  24
ATOM     24  C   UNL     1       2.341   7.691  18.934  0.00  0.00    +0.000 A 
ATOM     25  C   UNL     1       2.205   6.751  19.963  0.00  0.00    +0.000 A 
ATOM     26  C   UNL     1       2.827   5.503  19.856  0.00  0.00    +0.000 A 
ATOM     27  C   UNL     1       3.583   5.197  18.726  0.00  0.00    +0.000 A 
ATOM     28 CL   UNL     1       4.357   3.666  18.605  0.00  0.00    +0.000 Cl
ATOM     29  C   UNL     1       3.713   6.124  17.692  0.00  0.00    +0.000 A 
ATOM     30  C   UNL     1       3.089   7.369  17.795  0.00  0.00    +0.000 A 
ENDBRANCH  10  24
TORSDOF 2
ENDMDL
MODEL 2
REMARK VINA RESULT:      -7.9      1.165      2.025
REMARK  Name = 
REMARK  2 active torsions:
REMARK  status: ('A' for Active; 'I' for Inactive)
REMARK    1  A    between atoms: C_2  and  C_3
REMARK    2  A    between atoms: C_19  and  C_20
REMARK                            x       y       z     vdW  Elec       q    Type
REMARK                         _______ _______ _______ _____ _____    ______ ____
ROOT
ATOM      1  O   UNL     1      -3.874  12.476  19.565  0.00  0.00    +0.000 OA
ATOM      2  C   UNL     1      -2.834  12.570  20.213  0.00  0.00    +0.000 C 
ATOM      3  N   UNL     1      -1.607  12.117  19.713  0.00  0.00    +0.000 N 
ATOM      4  C   UNL     1      -1.557  11.527  18.380  0.00  0.00    +0.000 C 
ATOM      5  C   UNL     1      -0.885  10.153  18.426  0.00  0.00    +0.000 C 
ATOM      6  C   UNL     1       0.460  10.220  19.154  0.00  0.00    +0.000 C 
ATOM      7  C   UNL     1       0.376  10.932  20.500  0.00  0.00    +0.000 C 
ATOM      8  C   UNL     1      -0.277  12.300  20.312  0.00  0.00    +0.000 C 
ATOM      9  N   UNL     1       1.025   8.906  19.307  0.00  0.00    +0.000 N 
ATOM     10  C   UNL     1       2.003   8.772  18.370  0.00  0.00    +0.000 C 
ATOM     11  N   UNL     1       2.294   9.896  17.764  0.00  0.00    +0.000 NA
ATOM     12  O   UNL     1       1.415  10.894  18.308  0.00  0.00    +0.000 OA
ATOM     13  H   UNL     1       0.561   8.167  19.805  0.00  0.00    +0.000 HD
ENDROOT
BRANCH   2  14
ATOM     14  C   UNL     1      -2.914  13.195  21.563  0.00  0.00    +0.000 A 
ATOM     15  C   UNL     1      -3.275  12.439  22.697  0.00  0.00    +0.000 A 
ATOM     16  C   UNL     1      -3.214  12.979  23.977  0.00  0.00    +0.000 A 
ATOM     17  C   UNL     1      -2.882  14.321  24.169  0.00  0.00    +0.000 A 
ATOM     18  C   UNL     1      -2.651  15.103  23.031  0.00  0.00    +0.000 A 
ATOM     19  N   UNL     1      -2.377  16.446  22.932  0.00  0.00    +0.000 N 
ATOM     20  C   UNL     1      -2.248  16.810  21.620  0.00  0.00    +0.000 A 
ATOM     21  C   UNL     1      -2.402  15.675  20.856  0.00  0.00    +0.000 A 
ATOM     22  C   UNL     1      -2.665  14.579  21.733  0.00  0.00    +0.000 A 
ATOM     23  H   UNL     1      -2.311  17.078  23.720  0.00  0.00    +0.000 HD
ENDBRANCH   2  14
BRANCH  10  24
ATOM     24  C   UNL     1       2.663   7.493  18.023  0.00  0.00    +0.000 A 
ATOM     25  C   UNL     1       2.059   6.265  18.318  0.00  0.00    +0.000 A 
ATOM     26  C   UNL     1       2.696   5.071  17.966  0.00  0.00    +0.000 A 
ATOM     27  C   UNL     1       3.933   5.105  17.325  0.00  0.00    +0.000 A 
ATOM     28 CL   UNL     1       4.719   3.633  16.908  0.00  0.00    +0.000 Cl
ATOM     29  C   UNL     1       4.535   6.324  17.018  0.00  0.00    +0.000 A 
ATOM     30  C   UNL     1       3.898   7.518  17.363  0.00  0.00    +0.000 A 
ENDBRANCH  10  24
TORSDOF 2
ENDMDL
MODEL 3
REMARK VINA RESULT:      -7.9      4.164      9.726
REMARK  Name = 
REMARK  2 active torsions:
REMARK  status: ('A' for Active; 'I' for Inactive)
REMARK    1  A    between atoms: C_2  and  C_3
REMARK    2  A    between atoms: C_19  and  C_20
REMARK                            x       y       z     vdW  Elec       q    Type
REMARK                         _______ _______ _______ _____ _____    ______ ____
ROOT
ATOM      1  O   UNL     1       2.448   6.620  20.825  0.00  0.00    +0.000 OA
ATOM      2  C   UNL     1       2.394   7.103  19.696  0.00  0.00    +0.000 C 
ATOM      3  N   UNL     1       1.714   8.298  19.432  0.00  0.00    +0.000 N 
ATOM      4  C   UNL     1       1.059   8.999  20.530  0.00  0.00    +0.000 C 
ATOM      5  C   UNL     1      -0.406   9.282  20.189  0.00  0.00    +0.000 C 
ATOM      6  C   UNL     1      -0.533   9.959  18.822  0.00  0.00    +0.000 C 
ATOM      7  C   UNL     1       0.248   9.243  17.726  0.00  0.00    +0.000 C 
ATOM      8  C   UNL     1       1.697   9.055  18.173  0.00  0.00    +0.000 C 
ATOM      9  N   UNL     1      -1.915  10.105  18.450  0.00  0.00    +0.000 N 
ATOM     10  C   UNL     1      -2.261  11.403  18.669  0.00  0.00    +0.000 C 
ATOM     11  N   UNL     1      -1.235  12.171  18.935  0.00  0.00    +0.000 NA
ATOM     12  O   UNL     1      -0.075  11.323  18.932  0.00  0.00    +0.000 OA
ATOM     13  H   UNL     1      -2.539   9.323  18.349  0.00  0.00    +0.000 HD
ENDROOT
BRANCH   2  14
ATOM     14  C   UNL     1       3.090   6.373  18.598  0.00  0.00    +0.000 A 
ATOM     15  C   UNL     1       4.070   7.006  17.808  0.00  0.00    +0.000 A 
ATOM     16  C   UNL     1       4.822   6.295  16.879  0.00  0.00    +0.000 A 
ATOM     17  C   UNL     1       4.563   4.945  16.637  0.00  0.00    +0.000 A 
ATOM     18  C   UNL     1       3.502   4.352  17.330  0.00  0.00    +0.000 A 
ATOM     19  N   UNL     1       2.996   3.077  17.234  0.00  0.00    +0.000 N 
ATOM     20  C   UNL     1       1.932   2.923  18.078  0.00  0.00    +0.000 A 
ATOM     21  C   UNL     1       1.769   4.106  18.763  0.00  0.00    +0.000 A 
ATOM     22  C   UNL     1       2.753   5.030  18.299  0.00  0.00    +0.000 A 
ATOM     23  H   UNL     1       3.346   2.367  16.603  0.00  0.00    +0.000 HD
ENDBRANCH   2  14
BRANCH  10  24
ATOM     24  C   UNL     1      -3.649  11.916  18.651  0.00  0.00    +0.000 A 
ATOM     25  C   UNL     1      -4.173  12.619  19.742  0.00  0.00    +0.000 A 
ATOM     26  C   UNL     1      -5.483  13.107  19.695  0.00  0.00    +0.000 A 
ATOM     27  C   UNL     1      -6.265  12.891  18.562  0.00  0.00    +0.000 A 
ATOM     28 CL   UNL     1      -7.880  13.481  18.514  0.00  0.00    +0.000 Cl
ATOM     29  C   UNL     1      -5.746  12.203  17.466  0.00  0.00    +0.000 A 
ATOM     30  C   UNL     1      -4.437  11.719  17.509  0.00  0.00    +0.000 A 
ENDBRANCH  10  24
TORSDOF 2
ENDMDL
MODEL 4
REMARK VINA RESULT:      -7.6      0.589      1.087
REMARK  Name = 
REMARK  2 active torsions:
REMARK  status: ('A' for Active; 'I' for Inactive)
REMARK    1  A    between atoms: C_2  and  C_3
REMARK    2  A    between atoms: C_19  and  C_20
REMARK                            x       y       z     vdW  Elec       q    Type
REMARK                         _______ _______ _______ _____ _____    ______ ____
ROOT
ATOM      1  O   UNL     1      -3.588  12.989  19.977  0.00  0.00    +0.000 OA
ATOM      2  C   UNL     1      -2.461  13.143  20.445  0.00  0.00    +0.000 C 
ATOM      3  N   UNL     1      -1.340  12.506  19.902  0.00  0.00    +0.000 N 
ATOM      4  C   UNL     1      -1.506  11.642  18.740  0.00  0.00    +0.000 C 
ATOM      5  C   UNL     1      -0.893  10.265  19.002  0.00  0.00    +0.000 C 
ATOM      6  C   UNL     1       0.545  10.390  19.514  0.00  0.00    +0.000 C 
ATOM      7  C   UNL     1       0.685  11.378  20.667  0.00  0.00    +0.000 C 
ATOM      8  C   UNL     1       0.069  12.718  20.265  0.00  0.00    +0.000 C 
ATOM      9  N   UNL     1       1.071   9.102  19.881  0.00  0.00    +0.000 N 
ATOM     10  C   UNL     1       1.897   8.699  18.877  0.00  0.00    +0.000 C 
ATOM     11  N   UNL     1       2.144   9.642  18.003  0.00  0.00    +0.000 NA
ATOM     12  O   UNL     1       1.395  10.795  18.421  0.00  0.00    +0.000 OA
ATOM     13  H   UNL     1       0.652   8.523  20.588  0.00  0.00    +0.000 HD
ENDROOT
BRANCH   2  14
ATOM     14  C   UNL     1      -2.320  14.049  21.621  0.00  0.00    +0.000 A 
ATOM     15  C   UNL     1      -1.506  15.198  21.563  0.00  0.00    +0.000 A 
ATOM     16  C   UNL     1      -1.481  16.121  22.603  0.00  0.00    +0.000 A 
ATOM     17  C   UNL     1      -2.194  15.887  23.779  0.00  0.00    +0.000 A 
ATOM     18  C   UNL     1      -2.898  14.683  23.885  0.00  0.00    +0.000 A 
ATOM     19  N   UNL     1      -3.617  14.177  24.942  0.00  0.00    +0.000 N 
ATOM     20  C   UNL     1      -4.123  12.946  24.628  0.00  0.00    +0.000 A 
ATOM     21  C   UNL     1      -3.759  12.665  23.331  0.00  0.00    +0.000 A 
ATOM     22  C   UNL     1      -2.975  13.753  22.841  0.00  0.00    +0.000 A 
ATOM     23  H   UNL     1      -3.727  14.641  25.835  0.00  0.00    +0.000 HD
ENDBRANCH   2  14
BRANCH  10  24
ATOM     24  C   UNL     1       2.446   7.331  18.741  0.00  0.00    +0.000 A 
ATOM     25  C   UNL     1       3.244   6.979  17.645  0.00  0.00    +0.000 A 
ATOM     26  C   UNL     1       3.763   5.685  17.546  0.00  0.00    +0.000 A 
ATOM     27  C   UNL     1       3.485   4.746  18.538  0.00  0.00    +0.000 A 
ATOM     28 CL   UNL     1       4.114   3.151  18.404  0.00  0.00    +0.000 Cl
ATOM     29  C   UNL     1       2.701   5.092  19.637  0.00  0.00    +0.000 A 
ATOM     30  C   UNL     1       2.185   6.386  19.741  0.00  0.00    +0.000 A 
ENDBRANCH  10  24
TORSDOF 2
ENDMDL
MODEL 5
REMARK VINA RESULT:      -7.6      0.948      1.886
REMARK  Name = 
REMARK  2 active torsions:
REMARK  status: ('A' for Active; 'I' for Inactive)
REMARK    1  A    between atoms: C_2  and  C_3
REMARK    2  A    between atoms: C_19  and  C_20
REMARK                            x       y       z     vdW  Elec       q    Type
REMARK                         _______ _______ _______ _____ _____    ______ ____
ROOT
ATOM      1  O   UNL     1      -4.557  12.614  19.675  0.00  0.00    +0.000 OA
ATOM      2  C   UNL     1      -3.567  12.795  20.380  0.00  0.00    +0.000 C 
ATOM      3  N   UNL     1      -2.291  12.375  19.987  0.00  0.00    +0.000 N 
ATOM      4  C   UNL     1      -2.126  11.713  18.698  0.00  0.00    +0.000 C 
ATOM      5  C   UNL     1      -1.398  10.378  18.869  0.00  0.00    +0.000 C 
ATOM      6  C   UNL     1      -0.108  10.552  19.676  0.00  0.00    +0.000 C 
ATOM      7  C   UNL     1      -0.313  11.334  20.968  0.00  0.00    +0.000 C 
ATOM      8  C   UNL     1      -1.013  12.657  20.657  0.00  0.00    +0.000 C 
ATOM      9  N   UNL     1       0.504   9.278  19.943  0.00  0.00    +0.000 N 
ATOM     10  C   UNL     1       1.546   9.138  19.080  0.00  0.00    +0.000 C 
ATOM     11  N   UNL     1       1.826  10.237  18.426  0.00  0.00    +0.000 NA
ATOM     12  O   UNL     1       0.869  11.222  18.852  0.00  0.00    +0.000 OA
ATOM     13  H   UNL     1       0.041   8.547  20.455  0.00  0.00    +0.000 HD
ENDROOT
BRANCH   2  14
ATOM     14  C   UNL     1      -3.764  13.493  21.682  0.00  0.00    +0.000 A 
ATOM     15  C   UNL     1      -4.071  12.774  22.855  0.00  0.00    +0.000 A 
ATOM     16  C   UNL     1      -4.115  13.399  24.097  0.00  0.00    +0.000 A 
ATOM     17  C   UNL     1      -3.949  14.781  24.205  0.00  0.00    +0.000 A 
ATOM     18  C   UNL     1      -3.774  15.509  23.023  0.00  0.00    +0.000 A 
ATOM     19  N   UNL     1      -3.655  16.866  22.839  0.00  0.00    +0.000 N 
ATOM     20  C   UNL     1      -3.527  17.157  21.509  0.00  0.00    +0.000 A 
ATOM     21  C   UNL     1      -3.522  15.965  20.821  0.00  0.00    +0.000 A 
ATOM     22  C   UNL     1      -3.684  14.905  21.764  0.00  0.00    +0.000 A 
ATOM     23  H   UNL     1      -3.689  17.551  23.584  0.00  0.00    +0.000 HD
ENDBRANCH   2  14
BRANCH  10  24
ATOM     24  C   UNL     1       2.284   7.875  18.853  0.00  0.00    +0.000 A 
ATOM     25  C   UNL     1       2.204   6.817  19.767  0.00  0.00    +0.000 A 
ATOM     26  C   UNL     1       2.899   5.629  19.522  0.00  0.00    +0.000 A 
ATOM     27  C   UNL     1       3.673   5.499  18.371  0.00  0.00    +0.000 A 
ATOM     28 CL   UNL     1       4.538   4.041  18.083  0.00  0.00    +0.000 Cl
ATOM     29  C   UNL     1       3.749   6.544  17.451  0.00  0.00    +0.000 A 
ATOM     30  C   UNL     1       3.051   7.730  17.690  0.00  0.00    +0.000 A 
ENDBRANCH  10  24
TORSDOF 2
ENDMDL
MODEL 6
REMARK VINA RESULT:      -7.5      2.774      4.142
REMARK  Name = 
REMARK  2 active torsions:
REMARK  status: ('A' for Active; 'I' for Inactive)
REMARK    1  A    between atoms: C_2  and  C_3
REMARK    2  A    between atoms: C_19  and  C_20
REMARK                            x       y       z     vdW  Elec       q    Type
REMARK                         _______ _______ _______ _____ _____    ______ ____
ROOT
ATOM      1  O   UNL     1      -0.558  13.591  19.114  0.00  0.00    +0.000 OA
ATOM      2  C   UNL     1      -1.091  12.497  19.286  0.00  0.00    +0.000 C 
ATOM      3  N   UNL     1      -0.342  11.333  19.496  0.00  0.00    +0.000 N 
ATOM      4  C   UNL     1       1.113  11.420  19.524  0.00  0.00    +0.000 C 
ATOM      5  C   UNL     1       1.729  10.417  18.547  0.00  0.00    +0.000 C 
ATOM      6  C   UNL     1       1.161   9.012  18.765  0.00  0.00    +0.000 C 
ATOM      7  C   UNL     1      -0.362   8.987  18.826  0.00  0.00    +0.000 C 
ATOM      8  C   UNL     1      -0.847  10.002  19.860  0.00  0.00    +0.000 C 
ATOM      9  N   UNL     1       1.646   8.102  17.763  0.00  0.00    +0.000 N 
ATOM     10  C   UNL     1       2.626   7.351  18.335  0.00  0.00    +0.000 C 
ATOM     11  N   UNL     1       2.702   7.504  19.633  0.00  0.00    +0.000 NA
ATOM     12  O   UNL     1       1.705   8.475  19.990  0.00  0.00    +0.000 OA
ATOM     13  H   UNL     1       1.484   8.236  16.780  0.00  0.00    +0.000 HD
ENDROOT
BRANCH   2  14
ATOM     14  C   UNL     1      -2.581  12.445  19.272  0.00  0.00    +0.000 A 
ATOM     15  C   UNL     1      -3.337  12.912  20.366  0.00  0.00    +0.000 A 
ATOM     16  C   UNL     1      -4.724  12.998  20.303  0.00  0.00    +0.000 A 
ATOM     17  C   UNL     1      -5.416  12.534  19.184  0.00  0.00    +0.000 A 
ATOM     18  C   UNL     1      -4.670  11.951  18.154  0.00  0.00    +0.000 A 
ATOM     19  N   UNL     1      -5.098  11.361  16.987  0.00  0.00    +0.000 N 
ATOM     20  C   UNL     1      -4.031  10.892  16.272  0.00  0.00    +0.000 A 
ATOM     21  C   UNL     1      -2.888  11.218  16.968  0.00  0.00    +0.000 A 
ATOM     22  C   UNL     1      -3.272  11.886  18.170  0.00  0.00    +0.000 A 
ATOM     23  H   UNL     1      -6.068  11.264  16.716  0.00  0.00    +0.000 HD
ENDBRANCH   2  14
BRANCH  10  24
ATOM     24  C   UNL     1       3.551   6.469  17.588  0.00  0.00    +0.000 A 
ATOM     25  C   UNL     1       3.431   5.076  17.653  0.00  0.00    +0.000 A 
ATOM     26  C   UNL     1       4.308   4.264  16.926  0.00  0.00    +0.000 A 
ATOM     27  C   UNL     1       5.302   4.844  16.140  0.00  0.00    +0.000 A 
ATOM     28 CL   UNL     1       6.388   3.841  15.260  0.00  0.00    +0.000 Cl
ATOM     29  C   UNL     1       5.421   6.231  16.062  0.00  0.00    +0.000 A 
ATOM     30  C   UNL     1       4.543   7.043  16.782  0.00  0.00    +0.000 A 
ENDBRANCH  10  24
TORSDOF 2
ENDMDL
MODEL 7
REMARK VINA RESULT:      -7.5      2.051      2.694
REMARK  Name = 
REMARK  2 active torsions:
REMARK  status: ('A' for Active; 'I' for Inactive)
REMARK    1  A    between atoms: C_2  and  C_3
REMARK    2  A    between atoms: C_19  and  C_20
REMARK                            x       y       z     vdW  Elec       q    Type
REMARK                         _______ _______ _______ _____ _____    ______ ____
ROOT
ATOM      1  O   UNL     1      -1.337  15.180  21.114  0.00  0.00    +0.000 OA
ATOM      2  C   UNL     1      -1.726  14.253  21.820  0.00  0.00    +0.000 C 
ATOM      3  N   UNL     1      -0.953  13.104  22.027  0.00  0.00    +0.000 N 
ATOM      4  C   UNL     1       0.357  13.006  21.395  0.00  0.00    +0.000 C 
ATOM      5  C   UNL     1       0.475  11.704  20.600  0.00  0.00    +0.000 C 
ATOM      6  C   UNL     1       0.077  10.497  21.455  0.00  0.00    +0.000 C 
ATOM      7  C   UNL     1      -1.254  10.686  22.173  0.00  0.00    +0.000 C 
ATOM      8  C   UNL     1      -1.229  11.998  22.955  0.00  0.00    +0.000 C 
ATOM      9  N   UNL     1       0.066   9.293  20.668  0.00  0.00    +0.000 N 
ATOM     10  C   UNL     1       1.204   8.607  20.957  0.00  0.00    +0.000 C 
ATOM     11  N   UNL     1       1.856   9.097  21.981  0.00  0.00    +0.000 NA
ATOM     12  O   UNL     1       1.119  10.249  22.423  0.00  0.00    +0.000 OA
ATOM     13  H   UNL     1      -0.523   9.174  19.862  0.00  0.00    +0.000 HD
ENDROOT
BRANCH   2  14
ATOM     14  C   UNL     1      -3.061  14.391  22.468  0.00  0.00    +0.000 A 
ATOM     15  C   UNL     1      -3.230  15.167  23.633  0.00  0.00    +0.000 A 
ATOM     16  C   UNL     1      -4.493  15.416  24.160  0.00  0.00    +0.000 A 
ATOM     17  C   UNL     1      -5.627  14.825  23.602  0.00  0.00    +0.000 A 
ATOM     18  C   UNL     1      -5.441  13.951  22.525  0.00  0.00    +0.000 A 
ATOM     19  N   UNL     1      -6.363  13.194  21.842  0.00  0.00    +0.000 N 
ATOM     20  C   UNL     1      -5.747  12.454  20.871  0.00  0.00    +0.000 A 
ATOM     21  C   UNL     1      -4.406  12.766  20.900  0.00  0.00    +0.000 A 
ATOM     22  C   UNL     1      -4.189  13.711  21.947  0.00  0.00    +0.000 A 
ATOM     23  H   UNL     1      -7.353  13.168  22.051  0.00  0.00    +0.000 HD
ENDBRANCH   2  14
BRANCH  10  24
ATOM     24  C   UNL     1       1.701   7.443  20.188  0.00  0.00    +0.000 A 
ATOM     25  C   UNL     1       2.305   7.609  18.937  0.00  0.00    +0.000 A 
ATOM     26  C   UNL     1       2.780   6.495  18.237  0.00  0.00    +0.000 A 
ATOM     27  C   UNL     1       2.648   5.221  18.785  0.00  0.00    +0.000 A 
ATOM     28 CL   UNL     1       3.219   3.852  17.914  0.00  0.00    +0.000 Cl
ATOM     29  C   UNL     1       2.057   5.049  20.036  0.00  0.00    +0.000 A 
ATOM     30  C   UNL     1       1.587   6.160  20.739  0.00  0.00    +0.000 A 
ENDBRANCH  10  24
TORSDOF 2
ENDMDL
MODEL 8
REMARK VINA RESULT:      -7.5      1.368      2.343
REMARK  Name = 
REMARK  2 active torsions:
REMARK  status: ('A' for Active; 'I' for Inactive)
REMARK    1  A    between atoms: C_2  and  C_3
REMARK    2  A    between atoms: C_19  and  C_20
REMARK                            x       y       z     vdW  Elec       q    Type
REMARK                         _______ _______ _______ _____ _____    ______ ____
ROOT
ATOM      1  O   UNL     1      -3.542  12.647  20.087  0.00  0.00    +0.000 OA
ATOM      2  C   UNL     1      -2.399  12.835  20.497  0.00  0.00    +0.000 C 
ATOM      3  N   UNL     1      -1.284  12.262  19.874  0.00  0.00    +0.000 N 
ATOM      4  C   UNL     1      -1.481  11.425  18.696  0.00  0.00    +0.000 C 
ATOM      5  C   UNL     1      -0.798  10.068  18.881  0.00  0.00    +0.000 C 
ATOM      6  C   UNL     1       0.659  10.239  19.317  0.00  0.00    +0.000 C 
ATOM      7  C   UNL     1       0.824  11.198  20.490  0.00  0.00    +0.000 C 
ATOM      8  C   UNL     1       0.133  12.522  20.166  0.00  0.00    +0.000 C 
ATOM      9  N   UNL     1       1.257   8.964  19.613  0.00  0.00    +0.000 N 
ATOM     10  C   UNL     1       2.041   8.626  18.554  0.00  0.00    +0.000 C 
ATOM     11  N   UNL     1       2.200   9.603  17.697  0.00  0.00    +0.000 NA
ATOM     12  O   UNL     1       1.430  10.711  18.191  0.00  0.00    +0.000 OA
ATOM     13  H   UNL     1       0.903   8.348  20.324  0.00  0.00    +0.000 HD
ENDROOT
BRANCH   2  14
ATOM     14  C   UNL     1      -2.229  13.712  21.691  0.00  0.00    +0.000 A 
ATOM     15  C   UNL     1      -2.310  13.188  22.997  0.00  0.00    +0.000 A 
ATOM     16  C   UNL     1      -2.012  13.968  24.110  0.00  0.00    +0.000 A 
ATOM     17  C   UNL     1      -1.714  15.324  23.969  0.00  0.00    +0.000 A 
ATOM     18  C   UNL     1      -1.762  15.871  22.682  0.00  0.00    +0.000 A 
ATOM     19  N   UNL     1      -1.581  17.171  22.275  0.00  0.00    +0.000 N 
ATOM     20  C   UNL     1      -1.744  17.273  20.921  0.00  0.00    +0.000 A 
ATOM     21  C   UNL     1      -1.997  16.010  20.436  0.00  0.00    +0.000 A 
ATOM     22  C   UNL     1      -2.019  15.104  21.539  0.00  0.00    +0.000 A 
ATOM     23  H   UNL     1      -1.384  17.945  22.897  0.00  0.00    +0.000 HD
ENDBRANCH   2  14
BRANCH  10  24
ATOM     24  C   UNL     1       2.637   7.287  18.345  0.00  0.00    +0.000 A 
ATOM     25  C   UNL     1       3.699   7.101  17.452  0.00  0.00    +0.000 A 
ATOM     26  C   UNL     1       4.255   5.829  17.283  0.00  0.00    +0.000 A 
ATOM     27  C   UNL     1       3.749   4.747  18.002  0.00  0.00    +0.000 A 
ATOM     28 CL   UNL     1       4.426   3.182  17.779  0.00  0.00    +0.000 Cl
ATOM     29  C   UNL     1       2.699   4.927  18.901  0.00  0.00    +0.000 A 
ATOM     30  C   UNL     1       2.145   6.198  19.075  0.00  0.00    +0.000 A 
ENDBRANCH  10  24
TORSDOF 2
ENDMDL
MODEL 9
REMARK VINA RESULT:      -7.4      4.014      9.901
REMARK  Name = 
REMARK  2 active torsions:
REMARK  status: ('A' for Active; 'I' for Inactive)
REMARK    1  A    between atoms: C_2  and  C_3
REMARK    2  A    between atoms: C_19  and  C_20
REMARK                            x       y       z     vdW  Elec       q    Type
REMARK                         _______ _______ _______ _____ _____    ______ ____
ROOT
ATOM      1  O   UNL     1       2.539   6.020  20.557  0.00  0.00    +0.000 OA
ATOM      2  C   UNL     1       2.600   6.726  19.552  0.00  0.00    +0.000 C 
ATOM      3  N   UNL     1       1.971   7.974  19.484  0.00  0.00    +0.000 N 
ATOM      4  C   UNL     1       1.231   8.461  20.643  0.00  0.00    +0.000 C 
ATOM      5  C   UNL     1      -0.190   8.864  20.242  0.00  0.00    +0.000 C 
ATOM      6  C   UNL     1      -0.177   9.810  19.038  0.00  0.00    +0.000 C 
ATOM      7  C   UNL     1       0.688   9.304  17.889  0.00  0.00    +0.000 C 
ATOM      8  C   UNL     1       2.086   8.973  18.412  0.00  0.00    +0.000 C 
ATOM      9  N   UNL     1      -1.515  10.082  18.586  0.00  0.00    +0.000 N 
ATOM     10  C   UNL     1      -1.854  11.320  19.038  0.00  0.00    +0.000 C 
ATOM     11  N   UNL     1      -0.842  11.978  19.546  0.00  0.00    +0.000 NA
ATOM     12  O   UNL     1       0.296  11.104  19.468  0.00  0.00    +0.000 OA
ATOM     13  H   UNL     1      -2.142   9.362  18.272  0.00  0.00    +0.000 HD
ENDROOT
BRANCH   2  14
ATOM     14  C   UNL     1       3.380   6.209  18.392  0.00  0.00    +0.000 A 
ATOM     15  C   UNL     1       4.017   7.088  17.492  0.00  0.00    +0.000 A 
ATOM     16  C   UNL     1       4.862   6.615  16.494  0.00  0.00    +0.000 A 
ATOM     17  C   UNL     1       5.030   5.244  16.294  0.00  0.00    +0.000 A 
ATOM     18  C   UNL     1       4.295   4.373  17.105  0.00  0.00    +0.000 A 
ATOM     19  N   UNL     1       4.221   3.001  17.078  0.00  0.00    +0.000 N 
ATOM     20  C   UNL     1       3.355   2.551  18.035  0.00  0.00    +0.000 A 
ATOM     21  C   UNL     1       2.888   3.648  18.723  0.00  0.00    +0.000 A 
ATOM     22  C   UNL     1       3.468   4.817  18.144  0.00  0.00    +0.000 A 
ATOM     23  H   UNL     1       4.717   2.413  16.419  0.00  0.00    +0.000 HD
ENDBRANCH   2  14
BRANCH  10  24
ATOM     24  C   UNL     1      -3.224  11.879  19.007  0.00  0.00    +0.000 A 
ATOM     25  C   UNL     1      -4.115  11.550  17.978  0.00  0.00    +0.000 A 
ATOM     26  C   UNL     1      -5.409  12.080  17.979  0.00  0.00    +0.000 A 
ATOM     27  C   UNL     1      -5.810  12.937  19.003  0.00  0.00    +0.000 A 
ATOM     28 CL   UNL     1      -7.398  13.597  18.991  0.00  0.00    +0.000 Cl
ATOM     29  C   UNL     1      -4.932  13.260  20.036  0.00  0.00    +0.000 A 
ATOM     30  C   UNL     1      -3.640  12.728  20.040  0.00  0.00    +0.000 A 
ENDBRANCH  10  24
TORSDOF 2
ENDMDL
