MODEL 1
REMARK VINA RESULT:      -6.4      0.000      0.000
REMARK  Name = 
REMARK  7 active torsions:
REMARK  status: ('A' for Active; 'I' for Inactive)
REMARK    1  A    between atoms: C_1  and  C_2
REMARK    2  A    between atoms: C_2  and  O_3
REMARK    3  A    between atoms: O_3  and  C_4
REMARK    4  A    between atoms: C_4  and  C_6
REMARK    5  A    between atoms: C_6  and  C_7
REMARK    6  A    between atoms: C_7  and  S_8
REMARK    7  A    between atoms: S_8  and  C_11
REMARK                            x       y       z     vdW  Elec       q    Type
REMARK                         _______ _______ _______ _____ _____    ______ ____
ROOT
ATOM      1  S   UNL     1       6.408   5.502  18.502  0.00  0.00    +0.000 S 
ATOM      2  O   UNL     1       7.017   5.400  19.815  0.00  0.00    +0.000 OA
ATOM      3  O   UNL     1       6.154   6.800  17.901  0.00  0.00    +0.000 OA
ENDROOT
BRANCH   1   4
ATOM      4  C   UNL     1       4.857   4.635  18.567  0.00  0.00    +0.000 A 
ATOM      5  C   UNL     1       4.748   3.473  19.339  0.00  0.00    +0.000 A 
ATOM      6  C   UNL     1       3.516   2.827  19.439  0.00  0.00    +0.000 A 
ATOM      7  C   UNL     1       2.404   3.348  18.774  0.00  0.00    +0.000 A 
ATOM      8 BR   UNL     1       0.730   2.483  18.930  0.00  0.00    +0.000 Br
ATOM      9  C   UNL     1       2.512   4.510  18.008  0.00  0.00    +0.000 A 
ATOM     10  C   UNL     1       3.743   5.162  17.906  0.00  0.00    +0.000 A 
ENDBRANCH   1   4
BRANCH   1  11
ATOM     11  C   UNL     1       7.378   4.551  17.365  0.00  0.00    +0.000 C 
BRANCH  11  12
ATOM     12  C   UNL     1       6.526   4.099  16.189  0.00  0.00    +0.000 C 
BRANCH  12  13
ATOM     13  C   UNL     1       6.854   4.917  14.975  0.00  0.00    +0.000 C 
ATOM     14  O   UNL     1       7.796   5.694  14.890  0.00  0.00    +0.000 OA
BRANCH  13  15
ATOM     15  O   UNL     1       5.894   4.730  14.030  0.00  0.00    +0.000 OA
BRANCH  15  17
ATOM     16  C   UNL     1       6.973   3.913  12.067  0.00  0.00    +0.000 C 
ATOM     17  C   UNL     1       6.050   3.557  13.219  0.00  0.00    +0.000 C 
ENDBRANCH  15  17
ENDBRANCH  13  15
ENDBRANCH  12  13
ENDBRANCH  11  12
ENDBRANCH   1  11
TORSDOF 6
ENDMDL
MODEL 2
REMARK VINA RESULT:      -6.4      1.711      2.242
REMARK  Name = 
REMARK  7 active torsions:
REMARK  status: ('A' for Active; 'I' for Inactive)
REMARK    1  A    between atoms: C_1  and  C_2
REMARK    2  A    between atoms: C_2  and  O_3
REMARK    3  A    between atoms: O_3  and  C_4
REMARK    4  A    between atoms: C_4  and  C_6
REMARK    5  A    between atoms: C_6  and  C_7
REMARK    6  A    between atoms: C_7  and  S_8
REMARK    7  A    between atoms: S_8  and  C_11
REMARK                            x       y       z     vdW  Elec       q    Type
REMARK                         _______ _______ _______ _____ _____    ______ ____
ROOT
ATOM      1  S   UNL     1       6.519   5.611  16.606  0.00  0.00    +0.000 S 
ATOM      2  O   UNL     1       7.532   4.593  16.813  0.00  0.00    +0.000 OA
ATOM      3  O   UNL     1       6.836   7.018  16.775  0.00  0.00    +0.000 OA
ENDROOT
BRANCH   1   4
ATOM      4  C   UNL     1       5.163   5.238  17.695  0.00  0.00    +0.000 A 
ATOM      5  C   UNL     1       3.961   5.942  17.565  0.00  0.00    +0.000 A 
ATOM      6  C   UNL     1       2.878   5.608  18.379  0.00  0.00    +0.000 A 
ATOM      7  C   UNL     1       3.001   4.573  19.308  0.00  0.00    +0.000 A 
ATOM      8 BR   UNL     1       1.524   4.107  20.392  0.00  0.00    +0.000 Br
ATOM      9  C   UNL     1       4.199   3.867  19.433  0.00  0.00    +0.000 A 
ATOM     10  C   UNL     1       5.286   4.197  18.620  0.00  0.00    +0.000 A 
ENDBRANCH   1   4
BRANCH   1  11
ATOM     11  C   UNL     1       5.835   5.392  14.987  0.00  0.00    +0.000 C 
BRANCH  11  12
ATOM     12  C   UNL     1       6.482   4.204  14.294  0.00  0.00    +0.000 C 
BRANCH  12  13
ATOM     13  C   UNL     1       7.216   4.664  13.069  0.00  0.00    +0.000 C 
ATOM     14  O   UNL     1       8.000   5.604  13.036  0.00  0.00    +0.000 OA
BRANCH  13  15
ATOM     15  O   UNL     1       6.803   3.940  11.994  0.00  0.00    +0.000 OA
BRANCH  15  17
ATOM     16  C   UNL     1       4.553   3.326  11.494  0.00  0.00    +0.000 C 
ATOM     17  C   UNL     1       5.803   2.949  12.270  0.00  0.00    +0.000 C 
ENDBRANCH  15  17
ENDBRANCH  13  15
ENDBRANCH  12  13
ENDBRANCH  11  12
ENDBRANCH   1  11
TORSDOF 6
ENDMDL
MODEL 3
REMARK VINA RESULT:      -6.3      2.893      4.011
REMARK  Name = 
REMARK  7 active torsions:
REMARK  status: ('A' for Active; 'I' for Inactive)
REMARK    1  A    between atoms: C_1  and  C_2
REMARK    2  A    between atoms: C_2  and  O_3
REMARK    3  A    between atoms: O_3  and  C_4
REMARK    4  A    between atoms: C_4  and  C_6
REMARK    5  A    between atoms: C_6  and  C_7
REMARK    6  A    between atoms: C_7  and  S_8
REMARK    7  A    between atoms: S_8  and  C_11
REMARK                            x       y       z     vdW  Elec       q    Type
REMARK                         _______ _______ _______ _____ _____    ______ ____
ROOT
ATOM      1  S   UNL     1       3.594   3.851  17.596  0.00  0.00    +0.000 S 
ATOM      2  O   UNL     1       2.474   3.281  16.872  0.00  0.00    +0.000 OA
ATOM      3  O   UNL     1       4.442   3.015  18.429  0.00  0.00    +0.000 OA
ENDROOT
BRANCH   1   4
ATOM      4  C   UNL     1       2.953   5.150  18.627  0.00  0.00    +0.000 A 
ATOM      5  C   UNL     1       2.987   6.472  18.172  0.00  0.00    +0.000 A 
ATOM      6  C   UNL     1       2.429   7.484  18.955  0.00  0.00    +0.000 A 
ATOM      7  C   UNL     1       1.838   7.167  20.179  0.00  0.00    +0.000 A 
ATOM      8 BR   UNL     1       1.062   8.536  21.226  0.00  0.00    +0.000 Br
ATOM      9  C   UNL     1       1.800   5.846  20.631  0.00  0.00    +0.000 A 
ATOM     10  C   UNL     1       2.355   4.830  19.850  0.00  0.00    +0.000 A 
ENDBRANCH   1   4
BRANCH   1  11
ATOM     11  C   UNL     1       4.630   4.701  16.438  0.00  0.00    +0.000 C 
BRANCH  11  12
ATOM     12  C   UNL     1       5.825   3.839  16.061  0.00  0.00    +0.000 C 
BRANCH  12  13
ATOM     13  C   UNL     1       7.056   4.690  15.955  0.00  0.00    +0.000 C 
ATOM     14  O   UNL     1       7.310   5.437  15.020  0.00  0.00    +0.000 OA
BRANCH  13  15
ATOM     15  O   UNL     1       7.879   4.428  17.006  0.00  0.00    +0.000 OA
BRANCH  15  17
ATOM     16  C   UNL     1       7.641   6.546  18.076  0.00  0.00    +0.000 C 
ATOM     17  C   UNL     1       7.505   5.044  18.247  0.00  0.00    +0.000 C 
ENDBRANCH  15  17
ENDBRANCH  13  15
ENDBRANCH  12  13
ENDBRANCH  11  12
ENDBRANCH   1  11
TORSDOF 6
ENDMDL
MODEL 4
REMARK VINA RESULT:      -6.3      1.871      2.063
REMARK  Name = 
REMARK  7 active torsions:
REMARK  status: ('A' for Active; 'I' for Inactive)
REMARK    1  A    between atoms: C_1  and  C_2
REMARK    2  A    between atoms: C_2  and  O_3
REMARK    3  A    between atoms: O_3  and  C_4
REMARK    4  A    between atoms: C_4  and  C_6
REMARK    5  A    between atoms: C_6  and  C_7
REMARK    6  A    between atoms: C_7  and  S_8
REMARK    7  A    between atoms: S_8  and  C_11
REMARK                            x       y       z     vdW  Elec       q    Type
REMARK                         _______ _______ _______ _____ _____    ______ ____
ROOT
ATOM      1  S   UNL     1       6.589   5.665  16.543  0.00  0.00    +0.000 S 
ATOM      2  O   UNL     1       7.594   4.631  16.697  0.00  0.00    +0.000 OA
ATOM      3  O   UNL     1       6.937   7.067  16.697  0.00  0.00    +0.000 OA
ENDROOT
BRANCH   1   4
ATOM      4  C   UNL     1       5.285   5.313  17.699  0.00  0.00    +0.000 A 
ATOM      5  C   UNL     1       5.382   4.190  18.528  0.00  0.00    +0.000 A 
ATOM      6  C   UNL     1       4.388   3.948  19.477  0.00  0.00    +0.000 A 
ATOM      7  C   UNL     1       3.312   4.829  19.596  0.00  0.00    +0.000 A 
ATOM      8 BR   UNL     1       1.979   4.511  20.897  0.00  0.00    +0.000 Br
ATOM      9  C   UNL     1       3.218   5.953  18.772  0.00  0.00    +0.000 A 
ATOM     10  C   UNL     1       4.211   6.201  17.821  0.00  0.00    +0.000 A 
ENDBRANCH   1   4
BRANCH   1  11
ATOM     11  C   UNL     1       5.819   5.461  14.961  0.00  0.00    +0.000 C 
BRANCH  11  12
ATOM     12  C   UNL     1       6.369   4.229  14.259  0.00  0.00    +0.000 C 
BRANCH  12  13
ATOM     13  C   UNL     1       7.230   4.641  13.102  0.00  0.00    +0.000 C 
ATOM     14  O   UNL     1       8.032   5.566  13.123  0.00  0.00    +0.000 OA
BRANCH  13  15
ATOM     15  O   UNL     1       6.910   3.895  12.011  0.00  0.00    +0.000 OA
BRANCH  15  17
ATOM     16  C   UNL     1       5.902   1.819  11.409  0.00  0.00    +0.000 C 
ATOM     17  C   UNL     1       5.691   3.146  12.116  0.00  0.00    +0.000 C 
ENDBRANCH  15  17
ENDBRANCH  13  15
ENDBRANCH  12  13
ENDBRANCH  11  12
ENDBRANCH   1  11
TORSDOF 6
ENDMDL
MODEL 5
REMARK VINA RESULT:      -6.3      1.145      1.242
REMARK  Name = 
REMARK  7 active torsions:
REMARK  status: ('A' for Active; 'I' for Inactive)
REMARK    1  A    between atoms: C_1  and  C_2
REMARK    2  A    between atoms: C_2  and  O_3
REMARK    3  A    between atoms: O_3  and  C_4
REMARK    4  A    between atoms: C_4  and  C_6
REMARK    5  A    between atoms: C_6  and  C_7
REMARK    6  A    between atoms: C_7  and  S_8
REMARK    7  A    between atoms: S_8  and  C_11
REMARK                            x       y       z     vdW  Elec       q    Type
REMARK                         _______ _______ _______ _____ _____    ______ ____
ROOT
ATOM      1  S   UNL     1       6.400   6.084  17.369  0.00  0.00    +0.000 S 
ATOM      2  O   UNL     1       7.207   6.576  18.470  0.00  0.00    +0.000 OA
ATOM      3  O   UNL     1       5.996   6.970  16.291  0.00  0.00    +0.000 OA
ENDROOT
BRANCH   1   4
ATOM      4  C   UNL     1       4.919   5.389  18.067  0.00  0.00    +0.000 A 
ATOM      5  C   UNL     1       5.016   4.325  18.971  0.00  0.00    +0.000 A 
ATOM      6  C   UNL     1       3.858   3.820  19.565  0.00  0.00    +0.000 A 
ATOM      7  C   UNL     1       2.619   4.383  19.257  0.00  0.00    +0.000 A 
ATOM      8 BR   UNL     1       1.055   3.712  20.080  0.00  0.00    +0.000 Br
ATOM      9  C   UNL     1       2.523   5.448  18.359  0.00  0.00    +0.000 A 
ATOM     10  C   UNL     1       3.679   5.959  17.763  0.00  0.00    +0.000 A 
ENDBRANCH   1   4
BRANCH   1  11
ATOM     11  C   UNL     1       7.226   4.690  16.654  0.00  0.00    +0.000 C 
BRANCH  11  12
ATOM     12  C   UNL     1       6.355   4.048  15.586  0.00  0.00    +0.000 C 
BRANCH  12  13
ATOM     13  C   UNL     1       6.709   4.602  14.237  0.00  0.00    +0.000 C 
ATOM     14  O   UNL     1       7.687   5.299  14.003  0.00  0.00    +0.000 OA
BRANCH  13  15
ATOM     15  O   UNL     1       5.728   4.288  13.348  0.00  0.00    +0.000 OA
BRANCH  15  17
ATOM     16  C   UNL     1       4.866   2.847  11.655  0.00  0.00    +0.000 C 
ATOM     17  C   UNL     1       6.126   3.423  12.275  0.00  0.00    +0.000 C 
ENDBRANCH  15  17
ENDBRANCH  13  15
ENDBRANCH  12  13
ENDBRANCH  11  12
ENDBRANCH   1  11
TORSDOF 6
ENDMDL
MODEL 6
REMARK VINA RESULT:      -6.3      1.146      1.569
REMARK  Name = 
REMARK  7 active torsions:
REMARK  status: ('A' for Active; 'I' for Inactive)
REMARK    1  A    between atoms: C_1  and  C_2
REMARK    2  A    between atoms: C_2  and  O_3
REMARK    3  A    between atoms: O_3  and  C_4
REMARK    4  A    between atoms: C_4  and  C_6
REMARK    5  A    between atoms: C_6  and  C_7
REMARK    6  A    between atoms: C_7  and  S_8
REMARK    7  A    between atoms: S_8  and  C_11
REMARK                            x       y       z     vdW  Elec       q    Type
REMARK                         _______ _______ _______ _____ _____    ______ ____
ROOT
ATOM      1  S   UNL     1       6.482   5.749  18.275  0.00  0.00    +0.000 S 
ATOM      2  O   UNL     1       7.516   5.882  19.284  0.00  0.00    +0.000 OA
ATOM      3  O   UNL     1       6.004   6.911  17.545  0.00  0.00    +0.000 OA
ENDROOT
BRANCH   1   4
ATOM      4  C   UNL     1       5.072   4.998  19.056  0.00  0.00    +0.000 A 
ATOM      5  C   UNL     1       3.975   5.791  19.411  0.00  0.00    +0.000 A 
ATOM      6  C   UNL     1       2.845   5.191  19.968  0.00  0.00    +0.000 A 
ATOM      7  C   UNL     1       2.816   3.809  20.160  0.00  0.00    +0.000 A 
ATOM      8 BR   UNL     1       1.275   2.998  20.893  0.00  0.00    +0.000 Br
ATOM      9  C   UNL     1       3.909   3.017  19.801  0.00  0.00    +0.000 A 
ATOM     10  C   UNL     1       5.042   3.612  19.241  0.00  0.00    +0.000 A 
ENDBRANCH   1   4
BRANCH   1  11
ATOM     11  C   UNL     1       7.009   4.537  17.096  0.00  0.00    +0.000 C 
BRANCH  11  12
ATOM     12  C   UNL     1       6.014   4.444  15.950  0.00  0.00    +0.000 C 
BRANCH  12  13
ATOM     13  C   UNL     1       6.742   4.462  14.638  0.00  0.00    +0.000 C 
ATOM     14  O   UNL     1       7.567   5.305  14.308  0.00  0.00    +0.000 OA
BRANCH  13  15
ATOM     15  O   UNL     1       6.274   3.460  13.847  0.00  0.00    +0.000 OA
BRANCH  15  17
ATOM     16  C   UNL     1       5.124   3.176  11.776  0.00  0.00    +0.000 C 
ATOM     17  C   UNL     1       6.394   3.685  12.435  0.00  0.00    +0.000 C 
ENDBRANCH  15  17
ENDBRANCH  13  15
ENDBRANCH  12  13
ENDBRANCH  11  12
ENDBRANCH   1  11
TORSDOF 6
ENDMDL
MODEL 7
REMARK VINA RESULT:      -6.2      3.344      5.387
REMARK  Name = 
REMARK  7 active torsions:
REMARK  status: ('A' for Active; 'I' for Inactive)
REMARK    1  A    between atoms: C_1  and  C_2
REMARK    2  A    between atoms: C_2  and  O_3
REMARK    3  A    between atoms: O_3  and  C_4
REMARK    4  A    between atoms: C_4  and  C_6
REMARK    5  A    between atoms: C_6  and  C_7
REMARK    6  A    between atoms: C_7  and  S_8
REMARK    7  A    between atoms: S_8  and  C_11
REMARK                            x       y       z     vdW  Elec       q    Type
REMARK                         _______ _______ _______ _____ _____    ______ ____
ROOT
ATOM      1  S   UNL     1       5.082   4.482  18.184  0.00  0.00    +0.000 S 
ATOM      2  O   UNL     1       5.198   3.795  19.456  0.00  0.00    +0.000 OA
ATOM      3  O   UNL     1       6.264   4.952  17.483  0.00  0.00    +0.000 OA
ENDROOT
BRANCH   1   4
ATOM      4  C   UNL     1       4.022   5.888  18.437  0.00  0.00    +0.000 A 
ATOM      5  C   UNL     1       3.969   6.895  17.467  0.00  0.00    +0.000 A 
ATOM      6  C   UNL     1       3.092   7.967  17.637  0.00  0.00    +0.000 A 
ATOM      7  C   UNL     1       2.273   8.021  18.765  0.00  0.00    +0.000 A 
ATOM      8 BR   UNL     1       1.069   9.463  18.981  0.00  0.00    +0.000 Br
ATOM      9  C   UNL     1       2.322   7.013  19.730  0.00  0.00    +0.000 A 
ATOM     10  C   UNL     1       3.197   5.937  19.565  0.00  0.00    +0.000 A 
ENDBRANCH   1   4
BRANCH   1  11
ATOM     11  C   UNL     1       4.161   3.450  17.078  0.00  0.00    +0.000 C 
BRANCH  11  12
ATOM     12  C   UNL     1       3.349   2.428  17.858  0.00  0.00    +0.000 C 
BRANCH  12  13
ATOM     13  C   UNL     1       1.923   2.883  17.967  0.00  0.00    +0.000 C 
ATOM     14  O   UNL     1       1.426   3.787  17.308  0.00  0.00    +0.000 OA
BRANCH  13  15
ATOM     15  O   UNL     1       1.307   2.203  18.971  0.00  0.00    +0.000 OA
BRANCH  15  17
ATOM     16  C   UNL     1       1.223   3.293  21.091  0.00  0.00    +0.000 C 
ATOM     17  C   UNL     1       1.959   2.268  20.247  0.00  0.00    +0.000 C 
ENDBRANCH  15  17
ENDBRANCH  13  15
ENDBRANCH  12  13
ENDBRANCH  11  12
ENDBRANCH   1  11
TORSDOF 6
ENDMDL
MODEL 8
REMARK VINA RESULT:      -6.1      2.927      3.878
REMARK  Name = 
REMARK  7 active torsions:
REMARK  status: ('A' for Active; 'I' for Inactive)
REMARK    1  A    between atoms: C_1  and  C_2
REMARK    2  A    between atoms: C_2  and  O_3
REMARK    3  A    between atoms: O_3  and  C_4
REMARK    4  A    between atoms: C_4  and  C_6
REMARK    5  A    between atoms: C_6  and  C_7
REMARK    6  A    between atoms: C_7  and  S_8
REMARK    7  A    between atoms: S_8  and  C_11
REMARK                            x       y       z     vdW  Elec       q    Type
REMARK                         _______ _______ _______ _____ _____    ______ ____
ROOT
ATOM      1  S   UNL     1       4.096   3.644  18.290  0.00  0.00    +0.000 S 
ATOM      2  O   UNL     1       3.177   2.522  18.246  0.00  0.00    +0.000 OA
ATOM      3  O   UNL     1       5.341   3.555  19.033  0.00  0.00    +0.000 OA
ENDROOT
BRANCH   1   4
ATOM      4  C   UNL     1       3.197   5.041  18.926  0.00  0.00    +0.000 A 
ATOM      5  C   UNL     1       2.518   4.928  20.144  0.00  0.00    +0.000 A 
ATOM      6  C   UNL     1       1.864   6.042  20.672  0.00  0.00    +0.000 A 
ATOM      7  C   UNL     1       1.898   7.256  19.986  0.00  0.00    +0.000 A 
ATOM      8 BR   UNL     1       1.031   8.769  20.715  0.00  0.00    +0.000 Br
ATOM      9  C   UNL     1       2.581   7.370  18.773  0.00  0.00    +0.000 A 
ATOM     10  C   UNL     1       3.239   6.259  18.240  0.00  0.00    +0.000 A 
ENDBRANCH   1   4
BRANCH   1  11
ATOM     11  C   UNL     1       4.482   4.111  16.625  0.00  0.00    +0.000 C 
BRANCH  11  12
ATOM     12  C   UNL     1       5.968   4.398  16.486  0.00  0.00    +0.000 C 
BRANCH  12  13
ATOM     13  C   UNL     1       6.175   5.805  16.009  0.00  0.00    +0.000 C 
ATOM     14  O   UNL     1       5.398   6.421  15.291  0.00  0.00    +0.000 OA
BRANCH  13  15
ATOM     15  O   UNL     1       7.396   6.246  16.416  0.00  0.00    +0.000 OA
BRANCH  15  17
ATOM     16  C   UNL     1       7.951   6.365  18.733  0.00  0.00    +0.000 C 
ATOM     17  C   UNL     1       7.383   7.127  17.549  0.00  0.00    +0.000 C 
ENDBRANCH  15  17
ENDBRANCH  13  15
ENDBRANCH  12  13
ENDBRANCH  11  12
ENDBRANCH   1  11
TORSDOF 6
ENDMDL
MODEL 9
REMARK VINA RESULT:      -6.1      3.330      5.246
REMARK  Name = 
REMARK  7 active torsions:
REMARK  status: ('A' for Active; 'I' for Inactive)
REMARK    1  A    between atoms: C_1  and  C_2
REMARK    2  A    between atoms: C_2  and  O_3
REMARK    3  A    between atoms: O_3  and  C_4
REMARK    4  A    between atoms: C_4  and  C_6
REMARK    5  A    between atoms: C_6  and  C_7
REMARK    6  A    between atoms: C_7  and  S_8
REMARK    7  A    between atoms: S_8  and  C_11
REMARK                            x       y       z     vdW  Elec       q    Type
REMARK                         _______ _______ _______ _____ _____    ______ ____
ROOT
ATOM      1  S   UNL     1       5.130   4.561  18.161  0.00  0.00    +0.000 S 
ATOM      2  O   UNL     1       5.305   3.875  19.428  0.00  0.00    +0.000 OA
ATOM      3  O   UNL     1       6.268   5.134  17.464  0.00  0.00    +0.000 OA
ENDROOT
BRANCH   1   4
ATOM      4  C   UNL     1       3.955   5.870  18.424  0.00  0.00    +0.000 A 
ATOM      5  C   UNL     1       3.192   5.886  19.597  0.00  0.00    +0.000 A 
ATOM      6  C   UNL     1       2.315   6.946  19.831  0.00  0.00    +0.000 A 
ATOM      7  C   UNL     1       2.212   7.980  18.899  0.00  0.00    +0.000 A 
ATOM      8 BR   UNL     1       1.040   9.426  19.230  0.00  0.00    +0.000 Br
ATOM      9  C   UNL     1       2.977   7.965  17.732  0.00  0.00    +0.000 A 
ATOM     10  C   UNL     1       3.858   6.908  17.493  0.00  0.00    +0.000 A 
ENDBRANCH   1   4
BRANCH   1  11
ATOM     11  C   UNL     1       4.298   3.463  17.047  0.00  0.00    +0.000 C 
BRANCH  11  12
ATOM     12  C   UNL     1       2.832   3.333  17.427  0.00  0.00    +0.000 C 
BRANCH  12  13
ATOM     13  C   UNL     1       2.631   2.115  18.279  0.00  0.00    +0.000 C 
ATOM     14  O   UNL     1       3.488   1.271  18.504  0.00  0.00    +0.000 OA
BRANCH  13  15
ATOM     15  O   UNL     1       1.331   2.050  18.677  0.00  0.00    +0.000 OA
BRANCH  15  17
ATOM     16  C   UNL     1       1.289   2.831  20.929  0.00  0.00    +0.000 C 
ATOM     17  C   UNL     1       0.886   3.138  19.498  0.00  0.00    +0.000 C 
ENDBRANCH  15  17
ENDBRANCH  13  15
ENDBRANCH  12  13
ENDBRANCH  11  12
ENDBRANCH   1  11
TORSDOF 6
ENDMDL
