MODEL 1
REMARK VINA RESULT:      -7.5      0.000      0.000
REMARK  Name = 
REMARK  6 active torsions:
REMARK  status: ('A' for Active; 'I' for Inactive)
REMARK    1  A    between atoms: C_1  and  C_2
REMARK    2  A    between atoms: C_3  and  C_4
REMARK    3  A    between atoms: C_4  and  N_5
REMARK    4  A    between atoms: C_6  and  C_8
REMARK    5  A    between atoms: N_13  and  C_14
REMARK    6  A    between atoms: C_18  and  C_19
REMARK                            x       y       z     vdW  Elec       q    Type
REMARK                         _______ _______ _______ _____ _____    ______ ____
ROOT
ATOM      1  C   UNL     1       2.489   6.295  20.011  0.00  0.00    +0.000 C 
ENDROOT
BRANCH   1   4
ATOM      2  C   UNL     1       1.139   8.395  21.783  0.00  0.00    +0.000 C 
ATOM      3  C   UNL     1       1.380   8.628  20.311  0.00  0.00    +0.000 A 
ATOM      4  C   UNL     1       2.055   7.664  19.514  0.00  0.00    +0.000 A 
ATOM      5  C   UNL     1       2.310   7.956  18.159  0.00  0.00    +0.000 A 
ATOM      6  C   UNL     1       1.862   9.136  17.575  0.00  0.00    +0.000 A 
ATOM      7  C   UNL     1       1.149  10.052  18.337  0.00  0.00    +0.000 A 
ATOM      8  C   UNL     1       0.896   9.822  19.705  0.00  0.00    +0.000 A 
BRANCH   8   9
ATOM      9  C   UNL     1       0.088  10.897  20.419  0.00  0.00    +0.000 C 
ATOM     10  F   UNL     1      -1.004  10.462  21.102  0.00  0.00    +0.000 F 
ATOM     11  F   UNL     1       0.841  11.582  21.328  0.00  0.00    +0.000 F 
ATOM     12  F   UNL     1      -0.382  11.840  19.552  0.00  0.00    +0.000 F 
ENDBRANCH   8   9
ENDBRANCH   1   4
BRANCH   1  13
ATOM     13  N   UNL     1       3.803   5.918  19.540  0.00  0.00    +0.000 N 
ATOM     14  C   UNL     1       4.082   4.684  18.992  0.00  0.00    +0.000 C 
ATOM     15  O   UNL     1       3.264   3.763  18.958  0.00  0.00    +0.000 OA
ATOM     16  H   UNL     1       4.545   6.608  19.550  0.00  0.00    +0.000 HD
BRANCH  14  17
ATOM     17  C   UNL     1       5.552   4.472  18.576  0.00  0.00    +0.000 C 
ATOM     18  C   UNL     1       6.483   5.384  19.370  0.00  0.00    +0.000 C 
ATOM     19  C   UNL     1       7.569   5.819  18.393  0.00  0.00    +0.000 C 
ATOM     20  C   UNL     1       6.982   5.554  17.033  0.00  0.00    +0.000 C 
ATOM     21  O   UNL     1       7.489   5.891  15.976  0.00  0.00    +0.000 OA
ATOM     22  N   UNL     1       5.813   4.829  17.189  0.00  0.00    +0.000 N 
ATOM     23  C   UNL     1       5.169   4.134  16.092  0.00  0.00    +0.000 C 
ENDBRANCH  14  17
ENDBRANCH   1  13
TORSDOF 4
ENDMDL
MODEL 2
REMARK VINA RESULT:      -7.1      2.389      3.757
REMARK  Name = 
REMARK  6 active torsions:
REMARK  status: ('A' for Active; 'I' for Inactive)
REMARK    1  A    between atoms: C_1  and  C_2
REMARK    2  A    between atoms: C_3  and  C_4
REMARK    3  A    between atoms: C_4  and  N_5
REMARK    4  A    between atoms: C_6  and  C_8
REMARK    5  A    between atoms: N_13  and  C_14
REMARK    6  A    between atoms: C_18  and  C_19
REMARK                            x       y       z     vdW  Elec       q    Type
REMARK                         _______ _______ _______ _____ _____    ______ ____
ROOT
ATOM      1  C   UNL     1       2.689   7.366  18.014  0.00  0.00    +0.000 C 
ENDROOT
BRANCH   1   4
ATOM      2  C   UNL     1       1.714   7.145  20.907  0.00  0.00    +0.000 C 
ATOM      3  C   UNL     1       1.462   8.376  20.072  0.00  0.00    +0.000 A 
ATOM      4  C   UNL     1       1.967   8.484  18.747  0.00  0.00    +0.000 A 
ATOM      5  C   UNL     1       1.756   9.679  18.031  0.00  0.00    +0.000 A 
ATOM      6  C   UNL     1       1.015  10.726  18.570  0.00  0.00    +0.000 A 
ATOM      7  C   UNL     1       0.469  10.599  19.840  0.00  0.00    +0.000 A 
ATOM      8  C   UNL     1       0.678   9.437  20.610  0.00  0.00    +0.000 A 
BRANCH   8   9
ATOM      9  C   UNL     1       0.009   9.419  21.977  0.00  0.00    +0.000 C 
ATOM     10  F   UNL     1       0.845   9.323  23.045  0.00  0.00    +0.000 F 
ATOM     11  F   UNL     1      -0.737  10.541  22.195  0.00  0.00    +0.000 F 
ATOM     12  F   UNL     1      -0.859   8.375  22.105  0.00  0.00    +0.000 F 
ENDBRANCH   8   9
ENDBRANCH   1   4
BRANCH   1  13
ATOM     13  N   UNL     1       2.366   6.055  18.532  0.00  0.00    +0.000 N 
ATOM     14  C   UNL     1       2.972   4.899  18.088  0.00  0.00    +0.000 C 
ATOM     15  O   UNL     1       3.759   4.874  17.139  0.00  0.00    +0.000 OA
ATOM     16  H   UNL     1       1.711   5.978  19.301  0.00  0.00    +0.000 HD
BRANCH  14  17
ATOM     17  C   UNL     1       2.467   3.602  18.750  0.00  0.00    +0.000 C 
ATOM     18  C   UNL     1       1.065   3.789  19.323  0.00  0.00    +0.000 C 
ATOM     19  C   UNL     1       1.037   2.990  20.621  0.00  0.00    +0.000 C 
ATOM     20  C   UNL     1       2.486   2.790  20.972  0.00  0.00    +0.000 C 
ATOM     21  O   UNL     1       2.891   2.307  22.017  0.00  0.00    +0.000 OA
ATOM     22  N   UNL     1       3.262   3.196  19.900  0.00  0.00    +0.000 N 
ATOM     23  C   UNL     1       4.663   2.847  19.769  0.00  0.00    +0.000 C 
ENDBRANCH  14  17
ENDBRANCH   1  13
TORSDOF 4
ENDMDL
MODEL 3
REMARK VINA RESULT:      -7.1      2.471      4.091
REMARK  Name = 
REMARK  6 active torsions:
REMARK  status: ('A' for Active; 'I' for Inactive)
REMARK    1  A    between atoms: C_1  and  C_2
REMARK    2  A    between atoms: C_3  and  C_4
REMARK    3  A    between atoms: C_4  and  N_5
REMARK    4  A    between atoms: C_6  and  C_8
REMARK    5  A    between atoms: N_13  and  C_14
REMARK    6  A    between atoms: C_18  and  C_19
REMARK                            x       y       z     vdW  Elec       q    Type
REMARK                         _______ _______ _______ _____ _____    ______ ____
ROOT
ATOM      1  C   UNL     1       2.207   7.872  19.524  0.00  0.00    +0.000 C 
ENDROOT
BRANCH   1   4
ATOM      2  C   UNL     1       0.362   9.952  18.242  0.00  0.00    +0.000 C 
ATOM      3  C   UNL     1       0.403   9.732  19.735  0.00  0.00    +0.000 A 
ATOM      4  C   UNL     1       1.227   8.726  20.310  0.00  0.00    +0.000 A 
ATOM      5  C   UNL     1       1.182   8.520  21.703  0.00  0.00    +0.000 A 
ATOM      6  C   UNL     1       0.398   9.318  22.529  0.00  0.00    +0.000 A 
ATOM      7  C   UNL     1      -0.361  10.341  21.977  0.00  0.00    +0.000 A 
ATOM      8  C   UNL     1      -0.377  10.568  20.586  0.00  0.00    +0.000 A 
BRANCH   8   9
ATOM      9  C   UNL     1      -1.236  11.732  20.114  0.00  0.00    +0.000 C 
ATOM     10  F   UNL     1      -0.583  12.718  19.443  0.00  0.00    +0.000 F 
ATOM     11  F   UNL     1      -2.237  11.323  19.281  0.00  0.00    +0.000 F 
ATOM     12  F   UNL     1      -1.861  12.357  21.153  0.00  0.00    +0.000 F 
ENDBRANCH   8   9
ENDBRANCH   1   4
BRANCH   1  13
ATOM     13  N   UNL     1       2.033   6.456  19.761  0.00  0.00    +0.000 N 
ATOM     14  C   UNL     1       2.394   5.488  18.847  0.00  0.00    +0.000 C 
ATOM     15  O   UNL     1       2.791   5.752  17.710  0.00  0.00    +0.000 OA
ATOM     16  H   UNL     1       1.692   6.148  20.664  0.00  0.00    +0.000 HD
BRANCH  14  17
ATOM     17  C   UNL     1       2.102   4.038  19.283  0.00  0.00    +0.000 C 
ATOM     18  C   UNL     1       0.896   3.978  20.215  0.00  0.00    +0.000 C 
ATOM     19  C   UNL     1       1.222   2.906  21.247  0.00  0.00    +0.000 C 
ATOM     20  C   UNL     1       2.716   2.747  21.168  0.00  0.00    +0.000 C 
ATOM     21  O   UNL     1       3.388   2.073  21.930  0.00  0.00    +0.000 OA
ATOM     22  N   UNL     1       3.177   3.446  20.066  0.00  0.00    +0.000 N 
ATOM     23  C   UNL     1       4.502   3.250  19.509  0.00  0.00    +0.000 C 
ENDBRANCH  14  17
ENDBRANCH   1  13
TORSDOF 4
ENDMDL
MODEL 4
REMARK VINA RESULT:      -7.1      5.130      8.101
REMARK  Name = 
REMARK  6 active torsions:
REMARK  status: ('A' for Active; 'I' for Inactive)
REMARK    1  A    between atoms: C_1  and  C_2
REMARK    2  A    between atoms: C_3  and  C_4
REMARK    3  A    between atoms: C_4  and  N_5
REMARK    4  A    between atoms: C_6  and  C_8
REMARK    5  A    between atoms: N_13  and  C_14
REMARK    6  A    between atoms: C_18  and  C_19
REMARK                            x       y       z     vdW  Elec       q    Type
REMARK                         _______ _______ _______ _____ _____    ______ ____
ROOT
ATOM      1  C   UNL     1       2.326   7.165  19.221  0.00  0.00    +0.000 C 
ENDROOT
BRANCH   1   4
ATOM      2  C   UNL     1       3.629   5.083  17.395  0.00  0.00    +0.000 C 
ATOM      3  C   UNL     1       2.884   4.692  18.648  0.00  0.00    +0.000 A 
ATOM      4  C   UNL     1       2.330   5.674  19.513  0.00  0.00    +0.000 A 
ATOM      5  C   UNL     1       1.698   5.259  20.702  0.00  0.00    +0.000 A 
ATOM      6  C   UNL     1       1.552   3.912  21.013  0.00  0.00    +0.000 A 
ATOM      7  C   UNL     1       2.039   2.948  20.140  0.00  0.00    +0.000 A 
ATOM      8  C   UNL     1       2.708   3.311  18.954  0.00  0.00    +0.000 A 
BRANCH   8   9
ATOM      9  C   UNL     1       3.175   2.158  18.077  0.00  0.00    +0.000 C 
ATOM     10  F   UNL     1       4.285   2.394  17.329  0.00  0.00    +0.000 F 
ATOM     11  F   UNL     1       3.456   1.041  18.809  0.00  0.00    +0.000 F 
ATOM     12  F   UNL     1       2.215   1.776  17.186  0.00  0.00    +0.000 F 
ENDBRANCH   8   9
ENDBRANCH   1   4
BRANCH   1  13
ATOM     13  N   UNL     1       1.975   7.962  20.377  0.00  0.00    +0.000 N 
ATOM     14  C   UNL     1       1.139   9.057  20.311  0.00  0.00    +0.000 C 
ATOM     15  O   UNL     1       0.712   9.513  19.249  0.00  0.00    +0.000 OA
ATOM     16  H   UNL     1       2.301   7.671  21.291  0.00  0.00    +0.000 HD
BRANCH  14  17
ATOM     17  C   UNL     1       0.911   9.784  21.651  0.00  0.00    +0.000 C 
ATOM     18  C   UNL     1      -0.183   9.102  22.466  0.00  0.00    +0.000 C 
ATOM     19  C   UNL     1      -0.952  10.226  23.151  0.00  0.00    +0.000 C 
ATOM     20  C   UNL     1      -0.601  11.458  22.362  0.00  0.00    +0.000 C 
ATOM     21  O   UNL     1      -1.118  12.553  22.511  0.00  0.00    +0.000 OA
ATOM     22  N   UNL     1       0.428  11.148  21.490  0.00  0.00    +0.000 N 
ATOM     23  C   UNL     1       1.221  12.160  20.820  0.00  0.00    +0.000 C 
ENDBRANCH  14  17
ENDBRANCH   1  13
TORSDOF 4
ENDMDL
MODEL 5
REMARK VINA RESULT:      -7.0      2.722      3.871
REMARK  Name = 
REMARK  6 active torsions:
REMARK  status: ('A' for Active; 'I' for Inactive)
REMARK    1  A    between atoms: C_1  and  C_2
REMARK    2  A    between atoms: C_3  and  C_4
REMARK    3  A    between atoms: C_4  and  N_5
REMARK    4  A    between atoms: C_6  and  C_8
REMARK    5  A    between atoms: N_13  and  C_14
REMARK    6  A    between atoms: C_18  and  C_19
REMARK                            x       y       z     vdW  Elec       q    Type
REMARK                         _______ _______ _______ _____ _____    ______ ____
ROOT
ATOM      1  C   UNL     1       3.020   6.561  18.032  0.00  0.00    +0.000 C 
ENDROOT
BRANCH   1   4
ATOM      2  C   UNL     1       1.934   6.732  20.890  0.00  0.00    +0.000 C 
ATOM      3  C   UNL     1       1.736   7.848  19.892  0.00  0.00    +0.000 A 
ATOM      4  C   UNL     1       2.292   7.775  18.585  0.00  0.00    +0.000 A 
ATOM      5  C   UNL     1       2.131   8.869  17.712  0.00  0.00    +0.000 A 
ATOM      6  C   UNL     1       1.390   9.987  18.081  0.00  0.00    +0.000 A 
ATOM      7  C   UNL     1       0.795  10.035  19.334  0.00  0.00    +0.000 A 
ATOM      8  C   UNL     1       0.953   8.981  20.257  0.00  0.00    +0.000 A 
BRANCH   8   9
ATOM      9  C   UNL     1       0.234   9.151  21.587  0.00  0.00    +0.000 C 
ATOM     10  F   UNL     1      -0.422  10.329  21.761  0.00  0.00    +0.000 F 
ATOM     11  F   UNL     1      -0.701   8.178  21.790  0.00  0.00    +0.000 F 
ATOM     12  F   UNL     1       1.092   9.057  22.644  0.00  0.00    +0.000 F 
ENDBRANCH   8   9
ENDBRANCH   1   4
BRANCH   1  13
ATOM     13  N   UNL     1       2.716   5.347  18.757  0.00  0.00    +0.000 N 
ATOM     14  C   UNL     1       1.911   4.348  18.250  0.00  0.00    +0.000 C 
ATOM     15  O   UNL     1       1.296   4.455  17.187  0.00  0.00    +0.000 OA
ATOM     16  H   UNL     1       3.162   5.184  19.652  0.00  0.00    +0.000 HD
BRANCH  14  17
ATOM     17  C   UNL     1       1.692   3.147  19.192  0.00  0.00    +0.000 C 
ATOM     18  C   UNL     1       0.727   3.503  20.319  0.00  0.00    +0.000 C 
ATOM     19  C   UNL     1       1.254   2.787  21.557  0.00  0.00    +0.000 C 
ATOM     20  C   UNL     1       2.687   2.467  21.227  0.00  0.00    +0.000 C 
ATOM     21  O   UNL     1       3.498   2.007  22.013  0.00  0.00    +0.000 OA
ATOM     22  N   UNL     1       2.902   2.732  19.886  0.00  0.00    +0.000 N 
ATOM     23  C   UNL     1       4.060   2.241  19.164  0.00  0.00    +0.000 C 
ENDBRANCH  14  17
ENDBRANCH   1  13
TORSDOF 4
ENDMDL
MODEL 6
REMARK VINA RESULT:      -7.0      5.075      7.591
REMARK  Name = 
REMARK  6 active torsions:
REMARK  status: ('A' for Active; 'I' for Inactive)
REMARK    1  A    between atoms: C_1  and  C_2
REMARK    2  A    between atoms: C_3  and  C_4
REMARK    3  A    between atoms: C_4  and  N_5
REMARK    4  A    between atoms: C_6  and  C_8
REMARK    5  A    between atoms: N_13  and  C_14
REMARK    6  A    between atoms: C_18  and  C_19
REMARK                            x       y       z     vdW  Elec       q    Type
REMARK                         _______ _______ _______ _____ _____    ______ ____
ROOT
ATOM      1  C   UNL     1       1.777   6.681  21.119  0.00  0.00    +0.000 C 
ENDROOT
BRANCH   1   4
ATOM      2  C   UNL     1       1.005   3.745  20.727  0.00  0.00    +0.000 C 
ATOM      3  C   UNL     1       1.810   4.503  19.699  0.00  0.00    +0.000 A 
ATOM      4  C   UNL     1       2.115   5.881  19.872  0.00  0.00    +0.000 A 
ATOM      5  C   UNL     1       2.816   6.558  18.855  0.00  0.00    +0.000 A 
ATOM      6  C   UNL     1       3.266   5.894  17.719  0.00  0.00    +0.000 A 
ATOM      7  C   UNL     1       3.023   4.535  17.576  0.00  0.00    +0.000 A 
ATOM      8  C   UNL     1       2.297   3.818  18.549  0.00  0.00    +0.000 A 
BRANCH   8   9
ATOM      9  C   UNL     1       2.116   2.331  18.279  0.00  0.00    +0.000 C 
ATOM     10  F   UNL     1       0.851   1.852  18.421  0.00  0.00    +0.000 F 
ATOM     11  F   UNL     1       2.496   1.992  17.013  0.00  0.00    +0.000 F 
ATOM     12  F   UNL     1       2.885   1.566  19.107  0.00  0.00    +0.000 F 
ENDBRANCH   8   9
ENDBRANCH   1   4
BRANCH   1  13
ATOM     13  N   UNL     1       1.618   8.094  20.852  0.00  0.00    +0.000 N 
ATOM     14  C   UNL     1       0.481   8.800  21.183  0.00  0.00    +0.000 C 
ATOM     15  O   UNL     1      -0.535   8.266  21.632  0.00  0.00    +0.000 OA
ATOM     16  H   UNL     1       2.398   8.611  20.463  0.00  0.00    +0.000 HD
BRANCH  14  17
ATOM     17  C   UNL     1       0.502  10.291  20.791  0.00  0.00    +0.000 C 
ATOM     18  C   UNL     1      -0.200  11.145  21.842  0.00  0.00    +0.000 C 
ATOM     19  C   UNL     1      -0.936  12.233  21.069  0.00  0.00    +0.000 C 
ATOM     20  C   UNL     1      -1.026  11.702  19.664  0.00  0.00    +0.000 C 
ATOM     21  O   UNL     1      -1.662  12.221  18.762  0.00  0.00    +0.000 OA
ATOM     22  N   UNL     1      -0.232  10.573  19.566  0.00  0.00    +0.000 N 
ATOM     23  C   UNL     1       0.166  10.002  18.294  0.00  0.00    +0.000 C 
ENDBRANCH  14  17
ENDBRANCH   1  13
TORSDOF 4
ENDMDL
MODEL 7
REMARK VINA RESULT:      -7.0      5.107      7.880
REMARK  Name = 
REMARK  6 active torsions:
REMARK  status: ('A' for Active; 'I' for Inactive)
REMARK    1  A    between atoms: C_1  and  C_2
REMARK    2  A    between atoms: C_3  and  C_4
REMARK    3  A    between atoms: C_4  and  N_5
REMARK    4  A    between atoms: C_6  and  C_8
REMARK    5  A    between atoms: N_13  and  C_14
REMARK    6  A    between atoms: C_18  and  C_19
REMARK                            x       y       z     vdW  Elec       q    Type
REMARK                         _______ _______ _______ _____ _____    ______ ____
ROOT
ATOM      1  C   UNL     1       2.772   7.479  18.768  0.00  0.00    +0.000 C 
ENDROOT
BRANCH   1   4
ATOM      2  C   UNL     1       3.826   5.000  17.313  0.00  0.00    +0.000 C 
ATOM      3  C   UNL     1       2.944   4.895  18.533  0.00  0.00    +0.000 A 
ATOM      4  C   UNL     1       2.506   6.055  19.228  0.00  0.00    +0.000 A 
ATOM      5  C   UNL     1       1.735   5.901  20.398  0.00  0.00    +0.000 A 
ATOM      6  C   UNL     1       1.345   4.645  20.848  0.00  0.00    +0.000 A 
ATOM      7  C   UNL     1       1.720   3.513  20.137  0.00  0.00    +0.000 A 
ATOM      8  C   UNL     1       2.518   3.611  18.979  0.00  0.00    +0.000 A 
BRANCH   8   9
ATOM      9  C   UNL     1       2.843   2.296  18.285  0.00  0.00    +0.000 C 
ATOM     10  F   UNL     1       4.164   2.020  18.123  0.00  0.00    +0.000 F 
ATOM     11  F   UNL     1       2.324   1.224  18.952  0.00  0.00    +0.000 F 
ATOM     12  F   UNL     1       2.307   2.237  17.031  0.00  0.00    +0.000 F 
ENDBRANCH   8   9
ENDBRANCH   1   4
BRANCH   1  13
ATOM     13  N   UNL     1       1.707   8.391  19.121  0.00  0.00    +0.000 N 
ATOM     14  C   UNL     1       1.365   9.484  18.353  0.00  0.00    +0.000 C 
ATOM     15  O   UNL     1       2.008   9.837  17.362  0.00  0.00    +0.000 OA
ATOM     16  H   UNL     1       1.138   8.190  19.935  0.00  0.00    +0.000 HD
BRANCH  14  17
ATOM     17  C   UNL     1       0.217  10.345  18.918  0.00  0.00    +0.000 C 
ATOM     18  C   UNL     1      -1.025  10.249  18.037  0.00  0.00    +0.000 C 
ATOM     19  C   UNL     1      -1.643  11.643  18.040  0.00  0.00    +0.000 C 
ATOM     20  C   UNL     1      -0.531  12.548  18.494  0.00  0.00    +0.000 C 
ATOM     21  O   UNL     1      -0.583  13.767  18.503  0.00  0.00    +0.000 OA
ATOM     22  N   UNL     1       0.522  11.768  18.939  0.00  0.00    +0.000 N 
ATOM     23  C   UNL     1       1.612  12.299  19.734  0.00  0.00    +0.000 C 
ENDBRANCH  14  17
ENDBRANCH   1  13
TORSDOF 4
ENDMDL
MODEL 8
REMARK VINA RESULT:      -7.0      5.062      7.604
REMARK  Name = 
REMARK  6 active torsions:
REMARK  status: ('A' for Active; 'I' for Inactive)
REMARK    1  A    between atoms: C_1  and  C_2
REMARK    2  A    between atoms: C_3  and  C_4
REMARK    3  A    between atoms: C_4  and  N_5
REMARK    4  A    between atoms: C_6  and  C_8
REMARK    5  A    between atoms: N_13  and  C_14
REMARK    6  A    between atoms: C_18  and  C_19
REMARK                            x       y       z     vdW  Elec       q    Type
REMARK                         _______ _______ _______ _____ _____    ______ ____
ROOT
ATOM      1  C   UNL     1       1.789   6.908  20.942  0.00  0.00    +0.000 C 
ENDROOT
BRANCH   1   4
ATOM      2  C   UNL     1       0.962   3.972  20.679  0.00  0.00    +0.000 C 
ATOM      3  C   UNL     1       1.821   4.656  19.643  0.00  0.00    +0.000 A 
ATOM      4  C   UNL     1       2.152   6.034  19.753  0.00  0.00    +0.000 A 
ATOM      5  C   UNL     1       2.904   6.640  18.727  0.00  0.00    +0.000 A 
ATOM      6  C   UNL     1       3.379   5.905  17.646  0.00  0.00    +0.000 A 
ATOM      7  C   UNL     1       3.108   4.546  17.567  0.00  0.00    +0.000 A 
ATOM      8  C   UNL     1       2.332   3.899  18.550  0.00  0.00    +0.000 A 
BRANCH   8   9
ATOM      9  C   UNL     1       2.126   2.404  18.353  0.00  0.00    +0.000 C 
ATOM     10  F   UNL     1       0.844   1.962  18.460  0.00  0.00    +0.000 F 
ATOM     11  F   UNL     1       2.556   1.986  17.127  0.00  0.00    +0.000 F 
ATOM     12  F   UNL     1       2.836   1.669  19.257  0.00  0.00    +0.000 F 
ENDBRANCH   8   9
ENDBRANCH   1   4
BRANCH   1  13
ATOM     13  N   UNL     1       1.381   8.240  20.554  0.00  0.00    +0.000 N 
ATOM     14  C   UNL     1       0.226   8.838  21.014  0.00  0.00    +0.000 C 
ATOM     15  O   UNL     1      -0.608   8.248  21.703  0.00  0.00    +0.000 OA
ATOM     16  H   UNL     1       1.997   8.792  19.970  0.00  0.00    +0.000 HD
BRANCH  14  17
ATOM     17  C   UNL     1      -0.040  10.252  20.461  0.00  0.00    +0.000 C 
ATOM     18  C   UNL     1       0.985  10.626  19.394  0.00  0.00    +0.000 C 
ATOM     19  C   UNL     1       1.271  12.109  19.596  0.00  0.00    +0.000 C 
ATOM     20  C   UNL     1       0.800  12.398  20.995  0.00  0.00    +0.000 C 
ATOM     21  O   UNL     1       0.975  13.450  21.587  0.00  0.00    +0.000 OA
ATOM     22  N   UNL     1       0.102  11.298  21.463  0.00  0.00    +0.000 N 
ATOM     23  C   UNL     1      -0.754  11.351  22.632  0.00  0.00    +0.000 C 
ENDBRANCH  14  17
ENDBRANCH   1  13
TORSDOF 4
ENDMDL
MODEL 9
REMARK VINA RESULT:      -6.9      1.147      1.614
REMARK  Name = 
REMARK  6 active torsions:
REMARK  status: ('A' for Active; 'I' for Inactive)
REMARK    1  A    between atoms: C_1  and  C_2
REMARK    2  A    between atoms: C_3  and  C_4
REMARK    3  A    between atoms: C_4  and  N_5
REMARK    4  A    between atoms: C_6  and  C_8
REMARK    5  A    between atoms: N_13  and  C_14
REMARK    6  A    between atoms: C_18  and  C_19
REMARK                            x       y       z     vdW  Elec       q    Type
REMARK                         _______ _______ _______ _____ _____    ______ ____
ROOT
ATOM      1  C   UNL     1       2.216   5.869  18.184  0.00  0.00    +0.000 C 
ENDROOT
BRANCH   1   4
ATOM      2  C   UNL     1       1.537   6.502  21.102  0.00  0.00    +0.000 C 
ATOM      3  C   UNL     1       1.567   7.573  20.038  0.00  0.00    +0.000 A 
ATOM      4  C   UNL     1       1.935   7.271  18.699  0.00  0.00    +0.000 A 
ATOM      5  C   UNL     1       2.007   8.318  17.758  0.00  0.00    +0.000 A 
ATOM      6  C   UNL     1       1.666   9.623  18.098  0.00  0.00    +0.000 A 
ATOM      7  C   UNL     1       1.247   9.909  19.390  0.00  0.00    +0.000 A 
ATOM      8  C   UNL     1       1.190   8.904  20.377  0.00  0.00    +0.000 A 
BRANCH   8   9
ATOM      9  C   UNL     1       0.697   9.348  21.747  0.00  0.00    +0.000 C 
ATOM     10  F   UNL     1       0.349  10.658  21.856  0.00  0.00    +0.000 F 
ATOM     11  F   UNL     1      -0.400   8.643  22.148  0.00  0.00    +0.000 F 
ATOM     12  F   UNL     1       1.635   9.143  22.716  0.00  0.00    +0.000 F 
ENDBRANCH   8   9
ENDBRANCH   1   4
BRANCH   1  13
ATOM     13  N   UNL     1       3.626   5.620  17.979  0.00  0.00    +0.000 N 
ATOM     14  C   UNL     1       4.315   4.613  18.623  0.00  0.00    +0.000 C 
ATOM     15  O   UNL     1       3.814   3.916  19.507  0.00  0.00    +0.000 OA
ATOM     16  H   UNL     1       4.124   6.162  17.283  0.00  0.00    +0.000 HD
BRANCH  14  17
ATOM     17  C   UNL     1       5.816   4.531  18.284  0.00  0.00    +0.000 C 
ATOM     18  C   UNL     1       6.599   5.634  18.989  0.00  0.00    +0.000 C 
ATOM     19  C   UNL     1       7.672   6.077  18.001  0.00  0.00    +0.000 C 
ATOM     20  C   UNL     1       7.184   5.584  16.666  0.00  0.00    +0.000 C 
ATOM     21  O   UNL     1       7.698   5.851  15.593  0.00  0.00    +0.000 OA
ATOM     22  N   UNL     1       6.100   4.748  16.873  0.00  0.00    +0.000 N 
ATOM     23  C   UNL     1       5.591   3.856  15.850  0.00  0.00    +0.000 C 
ENDBRANCH  14  17
ENDBRANCH   1  13
TORSDOF 4
ENDMDL
