MODEL 1
REMARK VINA RESULT:      -7.8      0.000      0.000
REMARK  Name = 
REMARK  4 active torsions:
REMARK  status: ('A' for Active; 'I' for Inactive)
REMARK    1  A    between atoms: O_1  and  C_2
REMARK    2  A    between atoms: C_5  and  C_6
REMARK    3  A    between atoms: C_12  and  C_13
REMARK    4  A    between atoms: C_16  and  O_17
REMARK                            x       y       z     vdW  Elec       q    Type
REMARK                         _______ _______ _______ _____ _____    ______ ____
ROOT
ATOM      1  C   UNL     1       3.693   5.950  17.898  0.00  0.00    +0.000 A 
ATOM      2  C   UNL     1       3.410   5.309  19.100  0.00  0.00    +0.000 A 
ATOM      3  N   UNL     1       2.657   5.820  20.107  0.00  0.00    +0.000 NA
ATOM      4  C   UNL     1       2.131   7.034  19.965  0.00  0.00    +0.000 A 
ATOM      5  N   UNL     1       1.385   7.524  20.953  0.00  0.00    +0.000 NA
ATOM      6  C   UNL     1       0.840   8.758  20.811  0.00  0.00    +0.000 A 
ATOM      7  C   UNL     1       0.985   9.584  19.701  0.00  0.00    +0.000 A 
ATOM      8  C   UNL     1       1.779   9.057  18.679  0.00  0.00    +0.000 A 
ATOM      9  C   UNL     1       2.356   7.781  18.799  0.00  0.00    +0.000 A 
ATOM     10  C   UNL     1       3.141   7.227  17.771  0.00  0.00    +0.000 A 
ENDROOT
BRANCH   1  14
ATOM     11  C   UNL     1       5.997   4.115  14.765  0.00  0.00    +0.000 A 
ATOM     12  C   UNL     1       5.401   3.322  15.736  0.00  0.00    +0.000 A 
ATOM     13  C   UNL     1       4.654   3.924  16.754  0.00  0.00    +0.000 A 
ATOM     14  C   UNL     1       4.497   5.322  16.827  0.00  0.00    +0.000 A 
ATOM     15  C   UNL     1       5.125   6.092  15.832  0.00  0.00    +0.000 A 
ATOM     16  C   UNL     1       5.864   5.495  14.805  0.00  0.00    +0.000 A 
BRANCH  11  17
ATOM     17  O   UNL     1       6.722   3.573  13.748  0.00  0.00    +0.000 OA
ATOM     18  H   UNL     1       7.621   3.940  13.776  0.00  0.00    +0.000 HD
ENDBRANCH  11  17
ENDBRANCH   1  14
BRANCH   7  19
ATOM     19  C   UNL     1       0.337  10.909  19.600  0.00  0.00    +0.000 A 
ATOM     20  C   UNL     1      -0.758  11.129  18.744  0.00  0.00    +0.000 A 
ATOM     21  C   UNL     1      -1.389  12.377  18.667  0.00  0.00    +0.000 A 
ATOM     22  C   UNL     1      -0.920  13.428  19.442  0.00  0.00    +0.000 A 
ATOM     23  C   UNL     1       0.163  13.249  20.289  0.00  0.00    +0.000 A 
ATOM     24  C   UNL     1       0.783  11.999  20.371  0.00  0.00    +0.000 A 
BRANCH  22  25
ATOM     25  O   UNL     1      -1.500  14.659  19.402  0.00  0.00    +0.000 OA
ATOM     26  H   UNL     1      -0.845  15.304  19.088  0.00  0.00    +0.000 HD
ENDBRANCH  22  25
ENDBRANCH   7  19
TORSDOF 4
ENDMDL
MODEL 2
REMARK VINA RESULT:      -7.7      2.795      9.426
REMARK  Name = 
REMARK  4 active torsions:
REMARK  status: ('A' for Active; 'I' for Inactive)
REMARK    1  A    between atoms: O_1  and  C_2
REMARK    2  A    between atoms: C_5  and  C_6
REMARK    3  A    between atoms: C_12  and  C_13
REMARK    4  A    between atoms: C_16  and  O_17
REMARK                            x       y       z     vdW  Elec       q    Type
REMARK                         _______ _______ _______ _____ _____    ______ ____
ROOT
ATOM      1  C   UNL     1      -0.220  10.769  20.282  0.00  0.00    +0.000 A 
ATOM      2  C   UNL     1       0.143  11.313  19.053  0.00  0.00    +0.000 A 
ATOM      3  N   UNL     1       0.983  10.738  18.155  0.00  0.00    +0.000 NA
ATOM      4  C   UNL     1       1.524   9.557  18.444  0.00  0.00    +0.000 A 
ATOM      5  N   UNL     1       2.339   8.996  17.553  0.00  0.00    +0.000 NA
ATOM      6  C   UNL     1       2.888   7.789  17.838  0.00  0.00    +0.000 A 
ATOM      7  C   UNL     1       2.673   7.057  19.002  0.00  0.00    +0.000 A 
ATOM      8  C   UNL     1       1.823   7.666  19.928  0.00  0.00    +0.000 A 
ATOM      9  C   UNL     1       1.240   8.916  19.659  0.00  0.00    +0.000 A 
ATOM     10  C   UNL     1       0.366   9.535  20.572  0.00  0.00    +0.000 A 
ENDROOT
BRANCH   1  14
ATOM     11  C   UNL     1      -3.003  12.679  22.945  0.00  0.00    +0.000 A 
ATOM     12  C   UNL     1      -3.008  13.004  21.595  0.00  0.00    +0.000 A 
ATOM     13  C   UNL     1      -2.099  12.381  20.733  0.00  0.00    +0.000 A 
ATOM     14  C   UNL     1      -1.167  11.434  21.202  0.00  0.00    +0.000 A 
ATOM     15  C   UNL     1      -1.185  11.141  22.577  0.00  0.00    +0.000 A 
ATOM     16  C   UNL     1      -2.100  11.752  23.442  0.00  0.00    +0.000 A 
BRANCH  11  17
ATOM     17  O   UNL     1      -3.878  13.250  23.819  0.00  0.00    +0.000 OA
ATOM     18  H   UNL     1      -4.774  13.182  23.452  0.00  0.00    +0.000 HD
ENDBRANCH  11  17
ENDBRANCH   1  14
BRANCH   7  19
ATOM     19  C   UNL     1       3.281   5.730  19.236  0.00  0.00    +0.000 A 
ATOM     20  C   UNL     1       2.600   4.722  19.944  0.00  0.00    +0.000 A 
ATOM     21  C   UNL     1       3.165   3.456  20.143  0.00  0.00    +0.000 A 
ATOM     22  C   UNL     1       4.431   3.187  19.642  0.00  0.00    +0.000 A 
ATOM     23  C   UNL     1       5.135   4.159  18.947  0.00  0.00    +0.000 A 
ATOM     24  C   UNL     1       4.562   5.417  18.742  0.00  0.00    +0.000 A 
BRANCH  22  25
ATOM     25  O   UNL     1       5.021   1.971  19.809  0.00  0.00    +0.000 OA
ATOM     26  H   UNL     1       5.894   2.101  20.217  0.00  0.00    +0.000 HD
ENDBRANCH  22  25
ENDBRANCH   7  19
TORSDOF 4
ENDMDL
MODEL 3
REMARK VINA RESULT:      -7.7      0.926      8.758
REMARK  Name = 
REMARK  4 active torsions:
REMARK  status: ('A' for Active; 'I' for Inactive)
REMARK    1  A    between atoms: O_1  and  C_2
REMARK    2  A    between atoms: C_5  and  C_6
REMARK    3  A    between atoms: C_12  and  C_13
REMARK    4  A    between atoms: C_16  and  O_17
REMARK                            x       y       z     vdW  Elec       q    Type
REMARK                         _______ _______ _______ _____ _____    ______ ____
ROOT
ATOM      1  C   UNL     1       0.800  10.304  19.753  0.00  0.00    +0.000 A 
ATOM      2  C   UNL     1       0.561   9.550  20.898  0.00  0.00    +0.000 A 
ATOM      3  N   UNL     1       0.998   8.283  21.112  0.00  0.00    +0.000 NA
ATOM      4  C   UNL     1       1.716   7.682  20.165  0.00  0.00    +0.000 A 
ATOM      5  N   UNL     1       2.149   6.442  20.387  0.00  0.00    +0.000 NA
ATOM      6  C   UNL     1       2.888   5.827  19.429  0.00  0.00    +0.000 A 
ATOM      7  C   UNL     1       3.249   6.381  18.205  0.00  0.00    +0.000 A 
ATOM      8  C   UNL     1       2.778   7.679  17.988  0.00  0.00    +0.000 A 
ATOM      9  C   UNL     1       2.011   8.340  18.962  0.00  0.00    +0.000 A 
ATOM     10  C   UNL     1       1.545   9.654  18.768  0.00  0.00    +0.000 A 
ENDROOT
BRANCH   1  14
ATOM     11  C   UNL     1      -0.611  14.337  19.265  0.00  0.00    +0.000 A 
ATOM     12  C   UNL     1       0.556  13.935  18.631  0.00  0.00    +0.000 A 
ATOM     13  C   UNL     1       1.013  12.622  18.794  0.00  0.00    +0.000 A 
ATOM     14  C   UNL     1       0.320  11.695  19.598  0.00  0.00    +0.000 A 
ATOM     15  C   UNL     1      -0.852  12.143  20.233  0.00  0.00    +0.000 A 
ATOM     16  C   UNL     1      -1.319  13.451  20.064  0.00  0.00    +0.000 A 
BRANCH  11  17
ATOM     17  O   UNL     1      -1.100  15.600  19.125  0.00  0.00    +0.000 OA
ATOM     18  H   UNL     1      -1.591  15.835  19.930  0.00  0.00    +0.000 HD
ENDBRANCH  11  17
ENDBRANCH   1  14
BRANCH   7  19
ATOM     19  C   UNL     1       4.083   5.664  17.218  0.00  0.00    +0.000 A 
ATOM     20  C   UNL     1       4.895   6.355  16.298  0.00  0.00    +0.000 A 
ATOM     21  C   UNL     1       5.704   5.675  15.380  0.00  0.00    +0.000 A 
ATOM     22  C   UNL     1       5.702   4.288  15.364  0.00  0.00    +0.000 A 
ATOM     23  C   UNL     1       4.908   3.575  16.249  0.00  0.00    +0.000 A 
ATOM     24  C   UNL     1       4.110   4.257  17.171  0.00  0.00    +0.000 A 
BRANCH  22  25
ATOM     25  O   UNL     1       6.473   3.583  14.490  0.00  0.00    +0.000 OA
ATOM     26  H   UNL     1       6.029   3.562  13.627  0.00  0.00    +0.000 HD
ENDBRANCH  22  25
ENDBRANCH   7  19
TORSDOF 4
ENDMDL
MODEL 4
REMARK VINA RESULT:      -7.7      0.581      1.156
REMARK  Name = 
REMARK  4 active torsions:
REMARK  status: ('A' for Active; 'I' for Inactive)
REMARK    1  A    between atoms: O_1  and  C_2
REMARK    2  A    between atoms: C_5  and  C_6
REMARK    3  A    between atoms: C_12  and  C_13
REMARK    4  A    between atoms: C_16  and  O_17
REMARK                            x       y       z     vdW  Elec       q    Type
REMARK                         _______ _______ _______ _____ _____    ______ ____
ROOT
ATOM      1  C   UNL     1       3.711   5.975  17.861  0.00  0.00    +0.000 A 
ATOM      2  C   UNL     1       3.440   5.343  19.071  0.00  0.00    +0.000 A 
ATOM      3  N   UNL     1       2.705   5.866  20.085  0.00  0.00    +0.000 NA
ATOM      4  C   UNL     1       2.187   7.084  19.943  0.00  0.00    +0.000 A 
ATOM      5  N   UNL     1       1.459   7.584  20.939  0.00  0.00    +0.000 NA
ATOM      6  C   UNL     1       0.921   8.822  20.797  0.00  0.00    +0.000 A 
ATOM      7  C   UNL     1       1.058   9.641  19.680  0.00  0.00    +0.000 A 
ATOM      8  C   UNL     1       1.833   9.102  18.650  0.00  0.00    +0.000 A 
ATOM      9  C   UNL     1       2.402   7.822  18.770  0.00  0.00    +0.000 A 
ATOM     10  C   UNL     1       3.168   7.256  17.734  0.00  0.00    +0.000 A 
ENDROOT
BRANCH   1  14
ATOM     11  C   UNL     1       6.025   4.121  14.747  0.00  0.00    +0.000 A 
ATOM     12  C   UNL     1       5.959   5.506  14.824  0.00  0.00    +0.000 A 
ATOM     13  C   UNL     1       5.203   6.104  15.837  0.00  0.00    +0.000 A 
ATOM     14  C   UNL     1       4.495   5.335  16.783  0.00  0.00    +0.000 A 
ATOM     15  C   UNL     1       4.578   3.936  16.665  0.00  0.00    +0.000 A 
ATOM     16  C   UNL     1       5.341   3.332  15.660  0.00  0.00    +0.000 A 
BRANCH  11  17
ATOM     17  O   UNL     1       6.759   3.494  13.786  0.00  0.00    +0.000 OA
ATOM     18  H   UNL     1       7.695   3.720  13.912  0.00  0.00    +0.000 HD
ENDBRANCH  11  17
ENDBRANCH   1  14
BRANCH   7  19
ATOM     19  C   UNL     1       0.419  10.970  19.580  0.00  0.00    +0.000 A 
ATOM     20  C   UNL     1      -0.824  11.238  20.186  0.00  0.00    +0.000 A 
ATOM     21  C   UNL     1      -1.417  12.504  20.114  0.00  0.00    +0.000 A 
ATOM     22  C   UNL     1      -0.775  13.520  19.420  0.00  0.00    +0.000 A 
ATOM     23  C   UNL     1       0.446  13.290  18.804  0.00  0.00    +0.000 A 
ATOM     24  C   UNL     1       1.039  12.027  18.888  0.00  0.00    +0.000 A 
BRANCH  22  25
ATOM     25  O   UNL     1      -1.312  14.768  19.323  0.00  0.00    +0.000 OA
ATOM     26  H   UNL     1      -1.237  15.069  18.403  0.00  0.00    +0.000 HD
ENDBRANCH  22  25
ENDBRANCH   7  19
TORSDOF 4
ENDMDL
MODEL 5
REMARK VINA RESULT:      -7.7      2.804      9.388
REMARK  Name = 
REMARK  4 active torsions:
REMARK  status: ('A' for Active; 'I' for Inactive)
REMARK    1  A    between atoms: O_1  and  C_2
REMARK    2  A    between atoms: C_5  and  C_6
REMARK    3  A    between atoms: C_12  and  C_13
REMARK    4  A    between atoms: C_16  and  O_17
REMARK                            x       y       z     vdW  Elec       q    Type
REMARK                         _______ _______ _______ _____ _____    ______ ____
ROOT
ATOM      1  C   UNL     1      -0.107  10.694  20.288  0.00  0.00    +0.000 A 
ATOM      2  C   UNL     1       0.242  11.228  19.051  0.00  0.00    +0.000 A 
ATOM      3  N   UNL     1       1.061  10.640  18.143  0.00  0.00    +0.000 NA
ATOM      4  C   UNL     1       1.593   9.453  18.430  0.00  0.00    +0.000 A 
ATOM      5  N   UNL     1       2.388   8.879  17.529  0.00  0.00    +0.000 NA
ATOM      6  C   UNL     1       2.927   7.667  17.811  0.00  0.00    +0.000 A 
ATOM      7  C   UNL     1       2.723   6.943  18.982  0.00  0.00    +0.000 A 
ATOM      8  C   UNL     1       1.894   7.566  19.919  0.00  0.00    +0.000 A 
ATOM      9  C   UNL     1       1.321   8.822  19.652  0.00  0.00    +0.000 A 
ATOM     10  C   UNL     1       0.468   9.455  20.575  0.00  0.00    +0.000 A 
ENDROOT
BRANCH   1  14
ATOM     11  C   UNL     1      -2.765  12.695  23.012  0.00  0.00    +0.000 A 
ATOM     12  C   UNL     1      -1.982  11.642  23.464  0.00  0.00    +0.000 A 
ATOM     13  C   UNL     1      -1.121  10.992  22.574  0.00  0.00    +0.000 A 
ATOM     14  C   UNL     1      -1.032  11.375  21.220  0.00  0.00    +0.000 A 
ATOM     15  C   UNL     1      -1.850  12.439  20.798  0.00  0.00    +0.000 A 
ATOM     16  C   UNL     1      -2.705  13.099  21.687  0.00  0.00    +0.000 A 
BRANCH  11  17
ATOM     17  O   UNL     1      -3.609  13.365  23.846  0.00  0.00    +0.000 OA
ATOM     18  H   UNL     1      -3.385  13.139  24.763  0.00  0.00    +0.000 HD
ENDBRANCH  11  17
ENDBRANCH   1  14
BRANCH   7  19
ATOM     19  C   UNL     1       3.319   5.610  19.213  0.00  0.00    +0.000 A 
ATOM     20  C   UNL     1       4.615   5.295  18.761  0.00  0.00    +0.000 A 
ATOM     21  C   UNL     1       5.190   4.041  19.002  0.00  0.00    +0.000 A 
ATOM     22  C   UNL     1       4.467   3.079  19.692  0.00  0.00    +0.000 A 
ATOM     23  C   UNL     1       3.184   3.352  20.144  0.00  0.00    +0.000 A 
ATOM     24  C   UNL     1       2.618   4.608  19.910  0.00  0.00    +0.000 A 
BRANCH  22  25
ATOM     25  O   UNL     1       4.984   1.846  19.951  0.00  0.00    +0.000 OA
ATOM     26  H   UNL     1       4.258   1.201  19.974  0.00  0.00    +0.000 HD
ENDBRANCH  22  25
ENDBRANCH   7  19
TORSDOF 4
ENDMDL
MODEL 6
REMARK VINA RESULT:      -7.6      0.741      8.704
REMARK  Name = 
REMARK  4 active torsions:
REMARK  status: ('A' for Active; 'I' for Inactive)
REMARK    1  A    between atoms: O_1  and  C_2
REMARK    2  A    between atoms: C_5  and  C_6
REMARK    3  A    between atoms: C_12  and  C_13
REMARK    4  A    between atoms: C_16  and  O_17
REMARK                            x       y       z     vdW  Elec       q    Type
REMARK                         _______ _______ _______ _____ _____    ______ ____
ROOT
ATOM      1  C   UNL     1       0.685   9.897  19.897  0.00  0.00    +0.000 A 
ATOM      2  C   UNL     1       0.524   9.103  21.029  0.00  0.00    +0.000 A 
ATOM      3  N   UNL     1       1.050   7.864  21.203  0.00  0.00    +0.000 NA
ATOM      4  C   UNL     1       1.784   7.334  20.227  0.00  0.00    +0.000 A 
ATOM      5  N   UNL     1       2.304   6.122  20.411  0.00  0.00    +0.000 NA
ATOM      6  C   UNL     1       3.060   5.579  19.424  0.00  0.00    +0.000 A 
ATOM      7  C   UNL     1       3.355   6.183  18.205  0.00  0.00    +0.000 A 
ATOM      8  C   UNL     1       2.792   7.449  18.028  0.00  0.00    +0.000 A 
ATOM      9  C   UNL     1       2.006   8.036  19.034  0.00  0.00    +0.000 A 
ATOM     10  C   UNL     1       1.449   9.319  18.881  0.00  0.00    +0.000 A 
ENDROOT
BRANCH   1  14
ATOM     11  C   UNL     1      -0.962  13.857  19.597  0.00  0.00    +0.000 A 
ATOM     12  C   UNL     1      -1.305  13.049  20.672  0.00  0.00    +0.000 A 
ATOM     13  C   UNL     1      -0.768  11.760  20.764  0.00  0.00    +0.000 A 
ATOM     14  C   UNL     1       0.109  11.254  19.784  0.00  0.00    +0.000 A 
ATOM     15  C   UNL     1       0.423  12.099  18.705  0.00  0.00    +0.000 A 
ATOM     16  C   UNL     1      -0.102  13.393  18.613  0.00  0.00    +0.000 A 
BRANCH  11  17
ATOM     17  O   UNL     1      -1.450  15.123  19.472  0.00  0.00    +0.000 OA
ATOM     18  H   UNL     1      -2.129  15.128  18.778  0.00  0.00    +0.000 HD
ENDBRANCH  11  17
ENDBRANCH   1  14
BRANCH   7  19
ATOM     19  C   UNL     1       4.212   5.545  17.183  0.00  0.00    +0.000 A 
ATOM     20  C   UNL     1       4.352   4.146  17.108  0.00  0.00    +0.000 A 
ATOM     21  C   UNL     1       5.142   3.540  16.124  0.00  0.00    +0.000 A 
ATOM     22  C   UNL     1       5.815   4.332  15.206  0.00  0.00    +0.000 A 
ATOM     23  C   UNL     1       5.708   5.714  15.255  0.00  0.00    +0.000 A 
ATOM     24  C   UNL     1       4.909   6.314  16.232  0.00  0.00    +0.000 A 
BRANCH  22  25
ATOM     25  O   UNL     1       6.595   3.789  14.230  0.00  0.00    +0.000 OA
ATOM     26  H   UNL     1       6.642   4.411  13.485  0.00  0.00    +0.000 HD
ENDBRANCH  22  25
ENDBRANCH   7  19
TORSDOF 4
ENDMDL
MODEL 7
REMARK VINA RESULT:      -7.6      0.490      8.728
REMARK  Name = 
REMARK  4 active torsions:
REMARK  status: ('A' for Active; 'I' for Inactive)
REMARK    1  A    between atoms: O_1  and  C_2
REMARK    2  A    between atoms: C_5  and  C_6
REMARK    3  A    between atoms: C_12  and  C_13
REMARK    4  A    between atoms: C_16  and  O_17
REMARK                            x       y       z     vdW  Elec       q    Type
REMARK                         _______ _______ _______ _____ _____    ______ ____
ROOT
ATOM      1  C   UNL     1       0.827   9.873  19.831  0.00  0.00    +0.000 A 
ATOM      2  C   UNL     1       0.700   9.082  20.970  0.00  0.00    +0.000 A 
ATOM      3  N   UNL     1       1.231   7.844  21.132  0.00  0.00    +0.000 NA
ATOM      4  C   UNL     1       1.937   7.311  20.136  0.00  0.00    +0.000 A 
ATOM      5  N   UNL     1       2.462   6.100  20.308  0.00  0.00    +0.000 NA
ATOM      6  C   UNL     1       3.189   5.554  19.300  0.00  0.00    +0.000 A 
ATOM      7  C   UNL     1       3.449   6.155  18.072  0.00  0.00    +0.000 A 
ATOM      8  C   UNL     1       2.880   7.421  17.908  0.00  0.00    +0.000 A 
ATOM      9  C   UNL     1       2.124   8.011  18.935  0.00  0.00    +0.000 A 
ATOM     10  C   UNL     1       1.562   9.293  18.795  0.00  0.00    +0.000 A 
ENDROOT
BRANCH   1  14
ATOM     11  C   UNL     1      -0.869  13.816  19.581  0.00  0.00    +0.000 A 
ATOM     12  C   UNL     1      -1.695  12.704  19.485  0.00  0.00    +0.000 A 
ATOM     13  C   UNL     1      -1.138  11.423  19.564  0.00  0.00    +0.000 A 
ATOM     14  C   UNL     1       0.248  11.230  19.732  0.00  0.00    +0.000 A 
ATOM     15  C   UNL     1       1.052  12.380  19.814  0.00  0.00    +0.000 A 
ATOM     16  C   UNL     1       0.500  13.664  19.746  0.00  0.00    +0.000 A 
BRANCH  11  17
ATOM     17  O   UNL     1      -1.368  15.082  19.522  0.00  0.00    +0.000 OA
ATOM     18  H   UNL     1      -1.312  15.480  20.406  0.00  0.00    +0.000 HD
ENDBRANCH  11  17
ENDBRANCH   1  14
BRANCH   7  19
ATOM     19  C   UNL     1       4.275   5.514  17.028  0.00  0.00    +0.000 A 
ATOM     20  C   UNL     1       5.031   6.276  16.116  0.00  0.00    +0.000 A 
ATOM     21  C   UNL     1       5.835   5.670  15.143  0.00  0.00    +0.000 A 
ATOM     22  C   UNL     1       5.882   4.286  15.063  0.00  0.00    +0.000 A 
ATOM     23  C   UNL     1       5.144   3.503  15.938  0.00  0.00    +0.000 A 
ATOM     24  C   UNL     1       4.351   4.113  16.915  0.00  0.00    +0.000 A 
BRANCH  22  25
ATOM     25  O   UNL     1       6.650   3.650  14.135  0.00  0.00    +0.000 OA
ATOM     26  H   UNL     1       7.533   3.499  14.509  0.00  0.00    +0.000 HD
ENDBRANCH  22  25
ENDBRANCH   7  19
TORSDOF 4
ENDMDL
MODEL 8
REMARK VINA RESULT:      -7.6      1.773      2.743
REMARK  Name = 
REMARK  4 active torsions:
REMARK  status: ('A' for Active; 'I' for Inactive)
REMARK    1  A    between atoms: O_1  and  C_2
REMARK    2  A    between atoms: C_5  and  C_6
REMARK    3  A    between atoms: C_12  and  C_13
REMARK    4  A    between atoms: C_16  and  O_17
REMARK                            x       y       z     vdW  Elec       q    Type
REMARK                         _______ _______ _______ _____ _____    ______ ____
ROOT
ATOM      1  C   UNL     1       4.649   4.636  16.690  0.00  0.00    +0.000 A 
ATOM      2  C   UNL     1       4.402   3.538  17.508  0.00  0.00    +0.000 A 
ATOM      3  N   UNL     1       3.686   3.560  18.661  0.00  0.00    +0.000 NA
ATOM      4  C   UNL     1       3.164   4.713  19.073  0.00  0.00    +0.000 A 
ATOM      5  N   UNL     1       2.455   4.724  20.199  0.00  0.00    +0.000 NA
ATOM      6  C   UNL     1       1.914   5.895  20.620  0.00  0.00    +0.000 A 
ATOM      7  C   UNL     1       2.030   7.120  19.970  0.00  0.00    +0.000 A 
ATOM      8  C   UNL     1       2.786   7.090  18.795  0.00  0.00    +0.000 A 
ATOM      9  C   UNL     1       3.357   5.891  18.335  0.00  0.00    +0.000 A 
ATOM     10  C   UNL     1       4.104   5.839  17.144  0.00  0.00    +0.000 A 
ENDROOT
BRANCH   1  14
ATOM     11  C   UNL     1       6.847   4.375  13.004  0.00  0.00    +0.000 A 
ATOM     12  C   UNL     1       5.619   3.738  13.120  0.00  0.00    +0.000 A 
ATOM     13  C   UNL     1       4.909   3.824  14.322  0.00  0.00    +0.000 A 
ATOM     14  C   UNL     1       5.413   4.537  15.428  0.00  0.00    +0.000 A 
ATOM     15  C   UNL     1       6.665   5.158  15.276  0.00  0.00    +0.000 A 
ATOM     16  C   UNL     1       7.375   5.085  14.072  0.00  0.00    +0.000 A 
BRANCH  11  17
ATOM     17  O   UNL     1       7.568   4.329  11.849  0.00  0.00    +0.000 OA
ATOM     18  H   UNL     1       7.385   5.133  11.336  0.00  0.00    +0.000 HD
ENDBRANCH  11  17
ENDBRANCH   1  14
BRANCH   7  19
ATOM     19  C   UNL     1       1.389   8.354  20.470  0.00  0.00    +0.000 A 
ATOM     20  C   UNL     1       1.058   9.415  19.606  0.00  0.00    +0.000 A 
ATOM     21  C   UNL     1       0.427  10.573  20.075  0.00  0.00    +0.000 A 
ATOM     22  C   UNL     1       0.129  10.689  21.425  0.00  0.00    +0.000 A 
ATOM     23  C   UNL     1       0.449   9.668  22.307  0.00  0.00    +0.000 A 
ATOM     24  C   UNL     1       1.069   8.509  21.833  0.00  0.00    +0.000 A 
BRANCH  22  25
ATOM     25  O   UNL     1      -0.485  11.796  21.928  0.00  0.00    +0.000 OA
ATOM     26  H   UNL     1      -1.423  11.775  21.676  0.00  0.00    +0.000 HD
ENDBRANCH  22  25
ENDBRANCH   7  19
TORSDOF 4
ENDMDL
MODEL 9
REMARK VINA RESULT:      -7.6      0.907      1.453
REMARK  Name = 
REMARK  4 active torsions:
REMARK  status: ('A' for Active; 'I' for Inactive)
REMARK    1  A    between atoms: O_1  and  C_2
REMARK    2  A    between atoms: C_5  and  C_6
REMARK    3  A    between atoms: C_12  and  C_13
REMARK    4  A    between atoms: C_16  and  O_17
REMARK                            x       y       z     vdW  Elec       q    Type
REMARK                         _______ _______ _______ _____ _____    ______ ____
ROOT
ATOM      1  C   UNL     1       3.275   6.373  18.232  0.00  0.00    +0.000 A 
ATOM      2  C   UNL     1       2.850   5.785  19.420  0.00  0.00    +0.000 A 
ATOM      3  N   UNL     1       2.083   6.385  20.365  0.00  0.00    +0.000 NA
ATOM      4  C   UNL     1       1.688   7.641  20.171  0.00  0.00    +0.000 A 
ATOM      5  N   UNL     1       0.927   8.219  21.098  0.00  0.00    +0.000 NA
ATOM      6  C   UNL     1       0.514   9.496  20.903  0.00  0.00    +0.000 A 
ATOM      7  C   UNL     1       0.814  10.283  19.795  0.00  0.00    +0.000 A 
ATOM      8  C   UNL     1       1.622   9.663  18.838  0.00  0.00    +0.000 A 
ATOM      9  C   UNL     1       2.063   8.340  19.014  0.00  0.00    +0.000 A 
ATOM     10  C   UNL     1       2.859   7.693  18.051  0.00  0.00    +0.000 A 
ENDROOT
BRANCH   1  14
ATOM     11  C   UNL     1       5.666   4.277  15.337  0.00  0.00    +0.000 A 
ATOM     12  C   UNL     1       5.693   5.665  15.378  0.00  0.00    +0.000 A 
ATOM     13  C   UNL     1       4.912   6.342  16.320  0.00  0.00    +0.000 A 
ATOM     14  C   UNL     1       4.086   5.650  17.228  0.00  0.00    +0.000 A 
ATOM     15  C   UNL     1       4.076   4.246  17.148  0.00  0.00    +0.000 A 
ATOM     16  C   UNL     1       4.864   3.563  16.215  0.00  0.00    +0.000 A 
BRANCH  11  17
ATOM     17  O   UNL     1       6.419   3.575  14.446  0.00  0.00    +0.000 OA
ATOM     18  H   UNL     1       5.913   2.798  14.155  0.00  0.00    +0.000 HD
ENDBRANCH  11  17
ENDBRANCH   1  14
BRANCH   7  19
ATOM     19  C   UNL     1       0.306  11.662  19.632  0.00  0.00    +0.000 A 
ATOM     20  C   UNL     1       0.998  12.616  18.861  0.00  0.00    +0.000 A 
ATOM     21  C   UNL     1       0.503  13.914  18.685  0.00  0.00    +0.000 A 
ATOM     22  C   UNL     1      -0.691  14.277  19.291  0.00  0.00    +0.000 A 
ATOM     23  C   UNL     1      -1.395  13.366  20.064  0.00  0.00    +0.000 A 
ATOM     24  C   UNL     1      -0.903  12.069  20.228  0.00  0.00    +0.000 A 
BRANCH  22  25
ATOM     25  O   UNL     1      -1.212  15.527  19.148  0.00  0.00    +0.000 OA
ATOM     26  H   UNL     1      -0.873  15.915  18.324  0.00  0.00    +0.000 HD
ENDBRANCH  22  25
ENDBRANCH   7  19
TORSDOF 4
ENDMDL
