MODEL 1
REMARK VINA RESULT:      -8.9      0.000      0.000
REMARK  Name = 
REMARK  4 active torsions:
REMARK  status: ('A' for Active; 'I' for Inactive)
REMARK    1  A    between atoms: C_2  and  C_11
REMARK    2  A    between atoms: N_3  and  C_4
REMARK    3  A    between atoms: C_4  and  C_5
REMARK    4  A    between atoms: C_14  and  N_15
REMARK                            x       y       z     vdW  Elec       q    Type
REMARK                         _______ _______ _______ _____ _____    ______ ____
ROOT
ATOM      1  C   UNL     1       0.838   9.225  20.622  0.00  0.00    +0.000 A 
ATOM      2  C   UNL     1       0.836   9.107  22.016  0.00  0.00    +0.000 A 
ATOM      3  C   UNL     1       0.049   9.965  22.797  0.00  0.00    +0.000 A 
ATOM      4  C   UNL     1      -0.699  10.981  22.197  0.00  0.00    +0.000 A 
ATOM      5  C   UNL     1      -0.718  11.087  20.802  0.00  0.00    +0.000 A 
ATOM      6  C   UNL     1       0.036  10.203  20.018  0.00  0.00    +0.000 A 
ENDROOT
BRANCH   4   7
ATOM      7  N   UNL     1      -1.420  11.869  23.028  0.00  0.00    +0.000 N 
ATOM      8  C   UNL     1      -1.093  13.203  23.129  0.00  0.00    +0.000 C 
ATOM      9  O   UNL     1      -0.047  13.652  22.652  0.00  0.00    +0.000 OA
ATOM     10  N   UNL     1      -1.943  14.006  23.911  0.00  0.00    +0.000 N 
ATOM     11  C   UNL     1      -1.358  15.338  24.186  0.00  0.00    +0.000 C 
ATOM     12  C   UNL     1      -2.230  16.177  25.102  0.00  0.00    +0.000 C 
ATOM     13  C   UNL     1      -1.815  17.639  25.256  0.00  0.00    +0.000 C 
ATOM     14  C   UNL     1      -3.116  18.278  25.746  0.00  0.00    +0.000 C 
ATOM     15  C   UNL     1      -4.218  17.522  24.986  0.00  0.00    +0.000 C 
ATOM     16  N   UNL     1      -3.545  16.326  24.503  0.00  0.00    +0.000 N 
ATOM     17  C   UNL     1      -4.114  15.221  23.910  0.00  0.00    +0.000 A 
ATOM     18  C   UNL     1      -5.393  15.300  23.340  0.00  0.00    +0.000 A 
ATOM     19  C   UNL     1      -6.034  14.172  22.839  0.00  0.00    +0.000 A 
ATOM     20  C   UNL     1      -5.440  12.930  22.989  0.00  0.00    +0.000 A 
ATOM     21  C   UNL     1      -4.130  12.840  23.464  0.00  0.00    +0.000 A 
ATOM     22  C   UNL     1      -3.400  13.990  23.790  0.00  0.00    +0.000 A 
ATOM     23  H   UNL     1      -1.750  11.497  23.906  0.00  0.00    +0.000 HD
ENDBRANCH   4   7
BRANCH   1  25
ATOM     24  O   UNL     1       1.805   8.603  18.571  0.00  0.00    +0.000 OA
ATOM     25  C   UNL     1       1.634   8.314  19.752  0.00  0.00    +0.000 C 
ATOM     26  N   UNL     1       2.185   7.191  20.342  0.00  0.00    +0.000 N 
ATOM     27  H   UNL     1       2.068   7.019  21.330  0.00  0.00    +0.000 HD
BRANCH  26  28
ATOM     28  C   UNL     1       2.954   6.241  19.569  0.00  0.00    +0.000 C 
BRANCH  28  29
ATOM     29  C   UNL     1       2.219   4.935  19.404  0.00  0.00    +0.000 A 
ATOM     30  C   UNL     1       2.326   4.189  18.224  0.00  0.00    +0.000 A 
ATOM     31  C   UNL     1       1.652   2.971  18.093  0.00  0.00    +0.000 A 
ATOM     32  C   UNL     1       0.863   2.490  19.135  0.00  0.00    +0.000 A 
ATOM     33  C   UNL     1       0.740   3.229  20.310  0.00  0.00    +0.000 A 
ATOM     34  C   UNL     1       1.404   4.452  20.438  0.00  0.00    +0.000 A 
ENDBRANCH  28  29
ENDBRANCH  26  28
ENDBRANCH   1  25
TORSDOF 4
ENDMDL
MODEL 2
REMARK VINA RESULT:      -8.9      0.472      1.294
REMARK  Name = 
REMARK  4 active torsions:
REMARK  status: ('A' for Active; 'I' for Inactive)
REMARK    1  A    between atoms: C_2  and  C_11
REMARK    2  A    between atoms: N_3  and  C_4
REMARK    3  A    between atoms: C_4  and  C_5
REMARK    4  A    between atoms: C_14  and  N_15
REMARK                            x       y       z     vdW  Elec       q    Type
REMARK                         _______ _______ _______ _____ _____    ______ ____
ROOT
ATOM      1  C   UNL     1       0.940   9.105  20.523  0.00  0.00    +0.000 A 
ATOM      2  C   UNL     1       0.202  10.117  19.900  0.00  0.00    +0.000 A 
ATOM      3  C   UNL     1      -0.577  10.995  20.667  0.00  0.00    +0.000 A 
ATOM      4  C   UNL     1      -0.668  10.837  22.051  0.00  0.00    +0.000 A 
ATOM      5  C   UNL     1       0.088   9.840  22.679  0.00  0.00    +0.000 A 
ATOM      6  C   UNL     1       0.899   8.988  21.919  0.00  0.00    +0.000 A 
ENDROOT
BRANCH   4   7
ATOM      7  N   UNL     1      -1.523  11.700  22.775  0.00  0.00    +0.000 N 
ATOM      8  C   UNL     1      -1.201  13.018  23.010  0.00  0.00    +0.000 C 
ATOM      9  O   UNL     1      -0.075  13.463  22.769  0.00  0.00    +0.000 OA
ATOM     10  N   UNL     1      -2.174  13.803  23.656  0.00  0.00    +0.000 N 
ATOM     11  C   UNL     1      -1.633  15.103  24.112  0.00  0.00    +0.000 C 
ATOM     12  C   UNL     1      -2.652  15.917  24.887  0.00  0.00    +0.000 C 
ATOM     13  C   UNL     1      -2.252  17.357  25.199  0.00  0.00    +0.000 C 
ATOM     14  C   UNL     1      -3.614  18.004  25.462  0.00  0.00    +0.000 C 
ATOM     15  C   UNL     1      -4.558  17.317  24.463  0.00  0.00    +0.000 C 
ATOM     16  N   UNL     1      -3.823  16.130  24.054  0.00  0.00    +0.000 N 
ATOM     17  C   UNL     1      -4.284  15.072  23.302  0.00  0.00    +0.000 A 
ATOM     18  C   UNL     1      -5.426  15.214  22.501  0.00  0.00    +0.000 A 
ATOM     19  C   UNL     1      -5.975  14.130  21.824  0.00  0.00    +0.000 A 
ATOM     20  C   UNL     1      -5.441  12.867  22.018  0.00  0.00    +0.000 A 
ATOM     21  C   UNL     1      -4.250  12.719  22.731  0.00  0.00    +0.000 A 
ATOM     22  C   UNL     1      -3.579  13.831  23.255  0.00  0.00    +0.000 A 
ATOM     23  H   UNL     1      -2.023  11.293  23.550  0.00  0.00    +0.000 HD
ENDBRANCH   4   7
BRANCH   1  25
ATOM     24  O   UNL     1       2.110   8.443  18.592  0.00  0.00    +0.000 OA
ATOM     25  C   UNL     1       1.807   8.169  19.751  0.00  0.00    +0.000 C 
ATOM     26  N   UNL     1       2.268   7.041  20.405  0.00  0.00    +0.000 N 
ATOM     27  H   UNL     1       2.041   6.880  21.375  0.00  0.00    +0.000 HD
BRANCH  26  28
ATOM     28  C   UNL     1       3.096   6.069  19.726  0.00  0.00    +0.000 C 
BRANCH  28  29
ATOM     29  C   UNL     1       2.331   4.806  19.420  0.00  0.00    +0.000 A 
ATOM     30  C   UNL     1       1.483   4.225  20.371  0.00  0.00    +0.000 A 
ATOM     31  C   UNL     1       0.767   3.064  20.067  0.00  0.00    +0.000 A 
ATOM     32  C   UNL     1       0.894   2.470  18.814  0.00  0.00    +0.000 A 
ATOM     33  C   UNL     1       1.744   3.032  17.863  0.00  0.00    +0.000 A 
ATOM     34  C   UNL     1       2.469   4.186  18.170  0.00  0.00    +0.000 A 
ENDBRANCH  28  29
ENDBRANCH  26  28
ENDBRANCH   1  25
TORSDOF 4
ENDMDL
MODEL 3
REMARK VINA RESULT:      -8.4      9.229     10.862
REMARK  Name = 
REMARK  4 active torsions:
REMARK  status: ('A' for Active; 'I' for Inactive)
REMARK    1  A    between atoms: C_2  and  C_11
REMARK    2  A    between atoms: N_3  and  C_4
REMARK    3  A    between atoms: C_4  and  C_5
REMARK    4  A    between atoms: C_14  and  N_15
REMARK                            x       y       z     vdW  Elec       q    Type
REMARK                         _______ _______ _______ _____ _____    ______ ____
ROOT
ATOM      1  C   UNL     1       7.312   6.465  17.527  0.00  0.00    +0.000 A 
ATOM      2  C   UNL     1       7.976   6.267  18.743  0.00  0.00    +0.000 A 
ATOM      3  C   UNL     1       8.578   7.348  19.402  0.00  0.00    +0.000 A 
ATOM      4  C   UNL     1       8.569   8.621  18.829  0.00  0.00    +0.000 A 
ATOM      5  C   UNL     1       7.885   8.827  17.625  0.00  0.00    +0.000 A 
ATOM      6  C   UNL     1       7.248   7.755  16.985  0.00  0.00    +0.000 A 
ENDROOT
BRANCH   4   7
ATOM      7  N   UNL     1       9.251   9.666  19.494  0.00  0.00    +0.000 N 
ATOM      8  C   UNL     1       9.694  10.788  18.829  0.00  0.00    +0.000 C 
ATOM      9  O   UNL     1       9.687  10.856  17.596  0.00  0.00    +0.000 OA
ATOM     10  N   UNL     1      10.272  11.803  19.614  0.00  0.00    +0.000 N 
ATOM     11  C   UNL     1      10.962  12.822  18.791  0.00  0.00    +0.000 C 
ATOM     12  C   UNL     1      11.663  13.871  19.635  0.00  0.00    +0.000 C 
ATOM     13  C   UNL     1      12.207  15.078  18.873  0.00  0.00    +0.000 C 
ATOM     14  C   UNL     1      12.333  16.115  19.992  0.00  0.00    +0.000 C 
ATOM     15  C   UNL     1      11.123  15.841  20.899  0.00  0.00    +0.000 C 
ATOM     16  N   UNL     1      10.690  14.509  20.505  0.00  0.00    +0.000 N 
ATOM     17  C   UNL     1       9.753  13.712  21.122  0.00  0.00    +0.000 A 
ATOM     18  C   UNL     1       8.808  14.271  21.993  0.00  0.00    +0.000 A 
ATOM     19  C   UNL     1       7.925  13.473  22.715  0.00  0.00    +0.000 A 
ATOM     20  C   UNL     1       8.044  12.095  22.644  0.00  0.00    +0.000 A 
ATOM     21  C   UNL     1       8.910  11.520  21.713  0.00  0.00    +0.000 A 
ATOM     22  C   UNL     1       9.664  12.315  20.840  0.00  0.00    +0.000 A 
ATOM     23  H   UNL     1       9.884   9.394  20.230  0.00  0.00    +0.000 HD
ENDBRANCH   4   7
BRANCH   1  25
ATOM     24  O   UNL     1       7.274   4.651  16.030  0.00  0.00    +0.000 OA
ATOM     25  C   UNL     1       6.631   5.351  16.808  0.00  0.00    +0.000 C 
ATOM     26  N   UNL     1       5.295   5.132  17.093  0.00  0.00    +0.000 N 
ATOM     27  H   UNL     1       4.817   5.694  17.781  0.00  0.00    +0.000 HD
BRANCH  26  28
ATOM     28  C   UNL     1       4.550   4.087  16.426  0.00  0.00    +0.000 C 
BRANCH  28  29
ATOM     29  C   UNL     1       3.432   3.563  17.292  0.00  0.00    +0.000 A 
ATOM     30  C   UNL     1       2.303   4.344  17.566  0.00  0.00    +0.000 A 
ATOM     31  C   UNL     1       1.267   3.839  18.357  0.00  0.00    +0.000 A 
ATOM     32  C   UNL     1       1.350   2.552  18.883  0.00  0.00    +0.000 A 
ATOM     33  C   UNL     1       2.474   1.769  18.627  0.00  0.00    +0.000 A 
ATOM     34  C   UNL     1       3.516   2.277  17.846  0.00  0.00    +0.000 A 
ENDBRANCH  28  29
ENDBRANCH  26  28
ENDBRANCH   1  25
TORSDOF 4
ENDMDL
MODEL 4
REMARK VINA RESULT:      -8.4      2.722      3.832
REMARK  Name = 
REMARK  4 active torsions:
REMARK  status: ('A' for Active; 'I' for Inactive)
REMARK    1  A    between atoms: C_2  and  C_11
REMARK    2  A    between atoms: N_3  and  C_4
REMARK    3  A    between atoms: C_4  and  C_5
REMARK    4  A    between atoms: C_14  and  N_15
REMARK                            x       y       z     vdW  Elec       q    Type
REMARK                         _______ _______ _______ _____ _____    ______ ____
ROOT
ATOM      1  C   UNL     1       1.457   8.718  19.167  0.00  0.00    +0.000 A 
ATOM      2  C   UNL     1       0.804   8.725  20.405  0.00  0.00    +0.000 A 
ATOM      3  C   UNL     1      -0.179   9.687  20.678  0.00  0.00    +0.000 A 
ATOM      4  C   UNL     1      -0.479  10.680  19.743  0.00  0.00    +0.000 A 
ATOM      5  C   UNL     1       0.156  10.660  18.495  0.00  0.00    +0.000 A 
ATOM      6  C   UNL     1       1.109   9.675  18.205  0.00  0.00    +0.000 A 
ENDROOT
BRANCH   4   7
ATOM      7  N   UNL     1      -1.424  11.672  20.090  0.00  0.00    +0.000 N 
ATOM      8  C   UNL     1      -2.706  11.667  19.587  0.00  0.00    +0.000 C 
ATOM      9  O   UNL     1      -3.039  10.912  18.669  0.00  0.00    +0.000 OA
ATOM     10  N   UNL     1      -3.584  12.649  20.081  0.00  0.00    +0.000 N 
ATOM     11  C   UNL     1      -4.829  12.739  19.285  0.00  0.00    +0.000 C 
ATOM     12  C   UNL     1      -5.741  13.856  19.758  0.00  0.00    +0.000 C 
ATOM     13  C   UNL     1      -7.138  13.876  19.141  0.00  0.00    +0.000 C 
ATOM     14  C   UNL     1      -7.915  14.705  20.166  0.00  0.00    +0.000 C 
ATOM     15  C   UNL     1      -7.316  14.289  21.520  0.00  0.00    +0.000 C 
ATOM     16  N   UNL     1      -6.061  13.647  21.159  0.00  0.00    +0.000 N 
ATOM     17  C   UNL     1      -5.049  13.246  22.002  0.00  0.00    +0.000 A 
ATOM     18  C   UNL     1      -5.295  13.055  23.368  0.00  0.00    +0.000 A 
ATOM     19  C   UNL     1      -4.265  12.762  24.257  0.00  0.00    +0.000 A 
ATOM     20  C   UNL     1      -2.958  12.750  23.800  0.00  0.00    +0.000 A 
ATOM     21  C   UNL     1      -2.700  12.841  22.431  0.00  0.00    +0.000 A 
ATOM     22  C   UNL     1      -3.745  12.940  21.505  0.00  0.00    +0.000 A 
ATOM     23  H   UNL     1      -1.071  12.610  20.205  0.00  0.00    +0.000 HD
ENDBRANCH   4   7
BRANCH   1  25
ATOM     24  O   UNL     1       3.113   7.800  17.772  0.00  0.00    +0.000 OA
ATOM     25  C   UNL     1       2.484   7.695  18.822  0.00  0.00    +0.000 C 
ATOM     26  N   UNL     1       2.711   6.685  19.740  0.00  0.00    +0.000 N 
ATOM     27  H   UNL     1       2.212   6.665  20.617  0.00  0.00    +0.000 HD
BRANCH  26  28
ATOM     28  C   UNL     1       3.674   5.638  19.477  0.00  0.00    +0.000 C 
BRANCH  28  29
ATOM     29  C   UNL     1       2.998   4.321  19.192  0.00  0.00    +0.000 A 
ATOM     30  C   UNL     1       1.713   4.047  19.678  0.00  0.00    +0.000 A 
ATOM     31  C   UNL     1       1.092   2.828  19.390  0.00  0.00    +0.000 A 
ATOM     32  C   UNL     1       1.749   1.871  18.621  0.00  0.00    +0.000 A 
ATOM     33  C   UNL     1       3.032   2.127  18.141  0.00  0.00    +0.000 A 
ATOM     34  C   UNL     1       3.658   3.340  18.437  0.00  0.00    +0.000 A 
ENDBRANCH  28  29
ENDBRANCH  26  28
ENDBRANCH   1  25
TORSDOF 4
ENDMDL
MODEL 5
REMARK VINA RESULT:      -8.3      1.164      1.385
REMARK  Name = 
REMARK  4 active torsions:
REMARK  status: ('A' for Active; 'I' for Inactive)
REMARK    1  A    between atoms: C_2  and  C_11
REMARK    2  A    between atoms: N_3  and  C_4
REMARK    3  A    between atoms: C_4  and  C_5
REMARK    4  A    between atoms: C_14  and  N_15
REMARK                            x       y       z     vdW  Elec       q    Type
REMARK                         _______ _______ _______ _____ _____    ______ ____
ROOT
ATOM      1  C   UNL     1       1.259   9.148  19.366  0.00  0.00    +0.000 A 
ATOM      2  C   UNL     1       1.232   8.888  20.741  0.00  0.00    +0.000 A 
ATOM      3  C   UNL     1       0.423   9.658  21.588  0.00  0.00    +0.000 A 
ATOM      4  C   UNL     1      -0.322  10.724  21.081  0.00  0.00    +0.000 A 
ATOM      5  C   UNL     1      -0.315  10.971  19.703  0.00  0.00    +0.000 A 
ATOM      6  C   UNL     1       0.461  10.177  18.849  0.00  0.00    +0.000 A 
ENDROOT
BRANCH   4   7
ATOM      7  N   UNL     1      -1.066  11.519  21.983  0.00  0.00    +0.000 N 
ATOM      8  C   UNL     1      -0.680  12.798  22.319  0.00  0.00    +0.000 C 
ATOM      9  O   UNL     1       0.425  13.246  22.002  0.00  0.00    +0.000 OA
ATOM     10  N   UNL     1      -1.553  13.524  23.150  0.00  0.00    +0.000 N 
ATOM     11  C   UNL     1      -0.927  14.757  23.677  0.00  0.00    +0.000 C 
ATOM     12  C   UNL     1      -1.830  15.500  24.644  0.00  0.00    +0.000 C 
ATOM     13  C   UNL     1      -1.356  16.891  25.059  0.00  0.00    +0.000 C 
ATOM     14  C   UNL     1      -2.661  17.530  25.541  0.00  0.00    +0.000 C 
ATOM     15  C   UNL     1      -3.729  16.972  24.587  0.00  0.00    +0.000 C 
ATOM     16  N   UNL     1      -3.079  15.823  23.975  0.00  0.00    +0.000 N 
ATOM     17  C   UNL     1      -3.651  14.862  23.172  0.00  0.00    +0.000 A 
ATOM     18  C   UNL     1      -4.869  15.110  22.524  0.00  0.00    +0.000 A 
ATOM     19  C   UNL     1      -5.521  14.115  21.802  0.00  0.00    +0.000 A 
ATOM     20  C   UNL     1      -5.007  12.829  21.799  0.00  0.00    +0.000 A 
ATOM     21  C   UNL     1      -3.750  12.584  22.355  0.00  0.00    +0.000 A 
ATOM     22  C   UNL     1      -2.992  13.621  22.914  0.00  0.00    +0.000 A 
ATOM     23  H   UNL     1      -1.489  11.039  22.762  0.00  0.00    +0.000 HD
ENDBRANCH   4   7
BRANCH   1  25
ATOM     24  O   UNL     1       2.312   8.766  17.298  0.00  0.00    +0.000 OA
ATOM     25  C   UNL     1       2.080   8.335  18.424  0.00  0.00    +0.000 C 
ATOM     26  N   UNL     1       2.581   7.132  18.891  0.00  0.00    +0.000 N 
ATOM     27  H   UNL     1       2.413   6.840  19.841  0.00  0.00    +0.000 HD
BRANCH  26  28
ATOM     28  C   UNL     1       3.369   6.269  18.038  0.00  0.00    +0.000 C 
BRANCH  28  29
ATOM     29  C   UNL     1       3.020   4.817  18.245  0.00  0.00    +0.000 A 
ATOM     30  C   UNL     1       1.716   4.351  18.039  0.00  0.00    +0.000 A 
ATOM     31  C   UNL     1       1.411   2.998  18.218  0.00  0.00    +0.000 A 
ATOM     32  C   UNL     1       2.403   2.101  18.607  0.00  0.00    +0.000 A 
ATOM     33  C   UNL     1       3.702   2.556  18.826  0.00  0.00    +0.000 A 
ATOM     34  C   UNL     1       4.005   3.909  18.659  0.00  0.00    +0.000 A 
ENDBRANCH  28  29
ENDBRANCH  26  28
ENDBRANCH   1  25
TORSDOF 4
ENDMDL
MODEL 6
REMARK VINA RESULT:      -8.3      9.045     10.877
REMARK  Name = 
REMARK  4 active torsions:
REMARK  status: ('A' for Active; 'I' for Inactive)
REMARK    1  A    between atoms: C_2  and  C_11
REMARK    2  A    between atoms: N_3  and  C_4
REMARK    3  A    between atoms: C_4  and  C_5
REMARK    4  A    between atoms: C_14  and  N_15
REMARK                            x       y       z     vdW  Elec       q    Type
REMARK                         _______ _______ _______ _____ _____    ______ ____
ROOT
ATOM      1  C   UNL     1       6.951   6.455  17.536  0.00  0.00    +0.000 A 
ATOM      2  C   UNL     1       6.954   7.763  17.041  0.00  0.00    +0.000 A 
ATOM      3  C   UNL     1       7.744   8.747  17.653  0.00  0.00    +0.000 A 
ATOM      4  C   UNL     1       8.491   8.448  18.794  0.00  0.00    +0.000 A 
ATOM      5  C   UNL     1       8.508   7.134  19.277  0.00  0.00    +0.000 A 
ATOM      6  C   UNL     1       7.752   6.140  18.642  0.00  0.00    +0.000 A 
ENDROOT
BRANCH   4   7
ATOM      7  N   UNL     1       9.214   9.489  19.420  0.00  0.00    +0.000 N 
ATOM      8  C   UNL     1       9.618  10.613  18.734  0.00  0.00    +0.000 C 
ATOM      9  O   UNL     1       9.537  10.686  17.504  0.00  0.00    +0.000 OA
ATOM     10  N   UNL     1      10.244  11.623  19.487  0.00  0.00    +0.000 N 
ATOM     11  C   UNL     1      10.885  12.644  18.628  0.00  0.00    +0.000 C 
ATOM     12  C   UNL     1      11.638  13.689  19.432  0.00  0.00    +0.000 C 
ATOM     13  C   UNL     1      12.138  14.898  18.644  0.00  0.00    +0.000 C 
ATOM     14  C   UNL     1      12.333  15.930  19.757  0.00  0.00    +0.000 C 
ATOM     15  C   UNL     1      11.179  15.655  20.734  0.00  0.00    +0.000 C 
ATOM     16  N   UNL     1      10.721  14.325  20.362  0.00  0.00    +0.000 N 
ATOM     17  C   UNL     1       9.821  13.527  21.031  0.00  0.00    +0.000 A 
ATOM     18  C   UNL     1       8.931  14.084  21.960  0.00  0.00    +0.000 A 
ATOM     19  C   UNL     1       8.092  13.285  22.731  0.00  0.00    +0.000 A 
ATOM     20  C   UNL     1       8.203  11.906  22.647  0.00  0.00    +0.000 A 
ATOM     21  C   UNL     1       9.011  11.334  21.663  0.00  0.00    +0.000 A 
ATOM     22  C   UNL     1       9.712  12.131  20.750  0.00  0.00    +0.000 A 
ATOM     23  H   UNL     1       9.890   9.212  20.116  0.00  0.00    +0.000 HD
ENDBRANCH   4   7
BRANCH   1  25
ATOM     24  O   UNL     1       6.582   4.818  15.888  0.00  0.00    +0.000 OA
ATOM     25  C   UNL     1       6.152   5.370  16.898  0.00  0.00    +0.000 C 
ATOM     26  N   UNL     1       4.967   5.006  17.511  0.00  0.00    +0.000 N 
ATOM     27  H   UNL     1       4.677   5.446  18.372  0.00  0.00    +0.000 HD
BRANCH  26  28
ATOM     28  C   UNL     1       4.119   3.978  16.949  0.00  0.00    +0.000 C 
BRANCH  28  29
ATOM     29  C   UNL     1       2.977   3.635  17.872  0.00  0.00    +0.000 A 
ATOM     30  C   UNL     1       2.327   2.398  17.790  0.00  0.00    +0.000 A 
ATOM     31  C   UNL     1       1.281   2.087  18.664  0.00  0.00    +0.000 A 
ATOM     32  C   UNL     1       0.872   3.010  19.623  0.00  0.00    +0.000 A 
ATOM     33  C   UNL     1       1.503   4.250  19.707  0.00  0.00    +0.000 A 
ATOM     34  C   UNL     1       2.541   4.565  18.827  0.00  0.00    +0.000 A 
ENDBRANCH  28  29
ENDBRANCH  26  28
ENDBRANCH   1  25
TORSDOF 4
ENDMDL
MODEL 7
REMARK VINA RESULT:      -8.3      1.334      1.729
REMARK  Name = 
REMARK  4 active torsions:
REMARK  status: ('A' for Active; 'I' for Inactive)
REMARK    1  A    between atoms: C_2  and  C_11
REMARK    2  A    between atoms: N_3  and  C_4
REMARK    3  A    between atoms: C_4  and  C_5
REMARK    4  A    between atoms: C_14  and  N_15
REMARK                            x       y       z     vdW  Elec       q    Type
REMARK                         _______ _______ _______ _____ _____    ______ ____
ROOT
ATOM      1  C   UNL     1       1.283   9.100  19.139  0.00  0.00    +0.000 A 
ATOM      2  C   UNL     1       0.583  10.199  18.629  0.00  0.00    +0.000 A 
ATOM      3  C   UNL     1      -0.200  10.993  19.479  0.00  0.00    +0.000 A 
ATOM      4  C   UNL     1      -0.333  10.667  20.830  0.00  0.00    +0.000 A 
ATOM      5  C   UNL     1       0.385   9.582  21.348  0.00  0.00    +0.000 A 
ATOM      6  C   UNL     1       1.200   8.812  20.508  0.00  0.00    +0.000 A 
ENDROOT
BRANCH   4   7
ATOM      7  N   UNL     1      -1.190  11.453  21.633  0.00  0.00    +0.000 N 
ATOM      8  C   UNL     1      -0.793  12.663  22.158  0.00  0.00    +0.000 C 
ATOM      9  O   UNL     1       0.383  13.034  22.113  0.00  0.00    +0.000 OA
ATOM     10  N   UNL     1      -1.766  13.399  22.859  0.00  0.00    +0.000 N 
ATOM     11  C   UNL     1      -1.177  14.527  23.614  0.00  0.00    +0.000 C 
ATOM     12  C   UNL     1      -2.207  15.272  24.444  0.00  0.00    +0.000 C 
ATOM     13  C   UNL     1      -1.732  16.579  25.074  0.00  0.00    +0.000 C 
ATOM     14  C   UNL     1      -3.059  17.292  25.340  0.00  0.00    +0.000 C 
ATOM     15  C   UNL     1      -3.942  16.907  24.142  0.00  0.00    +0.000 C 
ATOM     16  N   UNL     1      -3.262  15.755  23.569  0.00  0.00    +0.000 N 
ATOM     17  C   UNL     1      -3.721  14.912  22.582  0.00  0.00    +0.000 A 
ATOM     18  C   UNL     1      -4.756  15.317  21.727  0.00  0.00    +0.000 A 
ATOM     19  C   UNL     1      -5.313  14.442  20.799  0.00  0.00    +0.000 A 
ATOM     20  C   UNL     1      -4.902  13.119  20.781  0.00  0.00    +0.000 A 
ATOM     21  C   UNL     1      -3.810  12.721  21.553  0.00  0.00    +0.000 A 
ATOM     22  C   UNL     1      -3.114  13.641  22.348  0.00  0.00    +0.000 A 
ATOM     23  H   UNL     1      -1.800  10.954  22.263  0.00  0.00    +0.000 HD
ENDBRANCH   4   7
BRANCH   1  25
ATOM     24  O   UNL     1       2.536   8.677  17.193  0.00  0.00    +0.000 OA
ATOM     25  C   UNL     1       2.152   8.248  18.278  0.00  0.00    +0.000 C 
ATOM     26  N   UNL     1       2.524   7.011  18.775  0.00  0.00    +0.000 N 
ATOM     27  H   UNL     1       2.233   6.718  19.695  0.00  0.00    +0.000 HD
BRANCH  26  28
ATOM     28  C   UNL     1       3.347   6.111  17.999  0.00  0.00    +0.000 C 
BRANCH  28  29
ATOM     29  C   UNL     1       2.872   4.685  18.115  0.00  0.00    +0.000 A 
ATOM     30  C   UNL     1       3.647   3.622  17.635  0.00  0.00    +0.000 A 
ATOM     31  C   UNL     1       3.201   2.304  17.766  0.00  0.00    +0.000 A 
ATOM     32  C   UNL     1       1.976   2.035  18.372  0.00  0.00    +0.000 A 
ATOM     33  C   UNL     1       1.190   3.084  18.844  0.00  0.00    +0.000 A 
ATOM     34  C   UNL     1       1.630   4.403  18.703  0.00  0.00    +0.000 A 
ENDBRANCH  28  29
ENDBRANCH  26  28
ENDBRANCH   1  25
TORSDOF 4
ENDMDL
MODEL 8
REMARK VINA RESULT:      -8.2      3.275      5.289
REMARK  Name = 
REMARK  4 active torsions:
REMARK  status: ('A' for Active; 'I' for Inactive)
REMARK    1  A    between atoms: C_2  and  C_11
REMARK    2  A    between atoms: N_3  and  C_4
REMARK    3  A    between atoms: C_4  and  C_5
REMARK    4  A    between atoms: C_14  and  N_15
REMARK                            x       y       z     vdW  Elec       q    Type
REMARK                         _______ _______ _______ _____ _____    ______ ____
ROOT
ATOM      1  C   UNL     1       2.538   7.210  18.919  0.00  0.00    +0.000 A 
ATOM      2  C   UNL     1       2.282   8.087  17.859  0.00  0.00    +0.000 A 
ATOM      3  C   UNL     1       1.464   9.209  18.054  0.00  0.00    +0.000 A 
ATOM      4  C   UNL     1       0.855   9.436  19.290  0.00  0.00    +0.000 A 
ATOM      5  C   UNL     1       1.129   8.574  20.358  0.00  0.00    +0.000 A 
ATOM      6  C   UNL     1       1.978   7.475  20.176  0.00  0.00    +0.000 A 
ENDROOT
BRANCH   4   7
ATOM      7  N   UNL     1      -0.019  10.540  19.419  0.00  0.00    +0.000 N 
ATOM      8  C   UNL     1      -1.348  10.465  19.065  0.00  0.00    +0.000 C 
ATOM      9  O   UNL     1      -1.799   9.498  18.444  0.00  0.00    +0.000 OA
ATOM     10  N   UNL     1      -2.139  11.597  19.331  0.00  0.00    +0.000 N 
ATOM     11  C   UNL     1      -3.460  11.526  18.666  0.00  0.00    +0.000 C 
ATOM     12  C   UNL     1      -4.284  12.783  18.875  0.00  0.00    +0.000 C 
ATOM     13  C   UNL     1      -5.739  12.705  18.416  0.00  0.00    +0.000 C 
ATOM     14  C   UNL     1      -6.376  13.839  19.222  0.00  0.00    +0.000 C 
ATOM     15  C   UNL     1      -5.646  13.797  20.575  0.00  0.00    +0.000 C 
ATOM     16  N   UNL     1      -4.457  13.006  20.300  0.00  0.00    +0.000 N 
ATOM     17  C   UNL     1      -3.370  12.807  21.122  0.00  0.00    +0.000 A 
ATOM     18  C   UNL     1      -3.473  13.034  22.502  0.00  0.00    +0.000 A 
ATOM     19  C   UNL     1      -2.361  12.950  23.335  0.00  0.00    +0.000 A 
ATOM     20  C   UNL     1      -1.111  12.730  22.779  0.00  0.00    +0.000 A 
ATOM     21  C   UNL     1      -1.001  12.407  21.426  0.00  0.00    +0.000 A 
ATOM     22  C   UNL     1      -2.137  12.295  20.615  0.00  0.00    +0.000 A 
ATOM     23  H   UNL     1       0.370  11.449  19.220  0.00  0.00    +0.000 HD
ENDBRANCH   4   7
BRANCH   1  25
ATOM     24  O   UNL     1       4.303   5.812  19.600  0.00  0.00    +0.000 OA
ATOM     25  C   UNL     1       3.426   6.023  18.766  0.00  0.00    +0.000 C 
ATOM     26  N   UNL     1       3.185   5.181  17.695  0.00  0.00    +0.000 N 
ATOM     27  H   UNL     1       2.419   5.359  17.063  0.00  0.00    +0.000 HD
BRANCH  26  28
ATOM     28  C   UNL     1       4.011   4.018  17.457  0.00  0.00    +0.000 C 
BRANCH  28  29
ATOM     29  C   UNL     1       5.101   4.307  16.456  0.00  0.00    +0.000 A 
ATOM     30  C   UNL     1       4.924   4.030  15.095  0.00  0.00    +0.000 A 
ATOM     31  C   UNL     1       5.937   4.319  14.176  0.00  0.00    +0.000 A 
ATOM     32  C   UNL     1       7.135   4.882  14.607  0.00  0.00    +0.000 A 
ATOM     33  C   UNL     1       7.328   5.151  15.961  0.00  0.00    +0.000 A 
ATOM     34  C   UNL     1       6.320   4.852  16.882  0.00  0.00    +0.000 A 
ENDBRANCH  28  29
ENDBRANCH  26  28
ENDBRANCH   1  25
TORSDOF 4
ENDMDL
MODEL 9
REMARK VINA RESULT:      -8.2      2.069      2.872
REMARK  Name = 
REMARK  4 active torsions:
REMARK  status: ('A' for Active; 'I' for Inactive)
REMARK    1  A    between atoms: C_2  and  C_11
REMARK    2  A    between atoms: N_3  and  C_4
REMARK    3  A    between atoms: C_4  and  C_5
REMARK    4  A    between atoms: C_14  and  N_15
REMARK                            x       y       z     vdW  Elec       q    Type
REMARK                         _______ _______ _______ _____ _____    ______ ____
ROOT
ATOM      1  C   UNL     1       1.468   8.837  19.140  0.00  0.00    +0.000 A 
ATOM      2  C   UNL     1       1.389   8.557  20.508  0.00  0.00    +0.000 A 
ATOM      3  C   UNL     1       0.587   9.345  21.345  0.00  0.00    +0.000 A 
ATOM      4  C   UNL     1      -0.098  10.450  20.834  0.00  0.00    +0.000 A 
ATOM      5  C   UNL     1      -0.040  10.718  19.461  0.00  0.00    +0.000 A 
ATOM      6  C   UNL     1       0.729   9.906  18.617  0.00  0.00    +0.000 A 
ENDROOT
BRANCH   4   7
ATOM      7  N   UNL     1      -0.836  11.259  21.728  0.00  0.00    +0.000 N 
ATOM      8  C   UNL     1      -0.422  12.526  22.078  0.00  0.00    +0.000 C 
ATOM      9  O   UNL     1       0.700  12.945  21.782  0.00  0.00    +0.000 OA
ATOM     10  N   UNL     1      -1.289  13.272  22.897  0.00  0.00    +0.000 N 
ATOM     11  C   UNL     1      -0.639  14.484  23.442  0.00  0.00    +0.000 C 
ATOM     12  C   UNL     1      -1.539  15.247  24.397  0.00  0.00    +0.000 C 
ATOM     13  C   UNL     1      -1.034  16.622  24.828  0.00  0.00    +0.000 C 
ATOM     14  C   UNL     1      -2.329  17.293  25.291  0.00  0.00    +0.000 C 
ATOM     15  C   UNL     1      -3.396  16.770  24.315  0.00  0.00    +0.000 C 
ATOM     16  N   UNL     1      -2.766  15.607  23.708  0.00  0.00    +0.000 N 
ATOM     17  C   UNL     1      -3.350  14.665  22.890  0.00  0.00    +0.000 A 
ATOM     18  C   UNL     1      -4.549  14.950  22.222  0.00  0.00    +0.000 A 
ATOM     19  C   UNL     1      -5.216  13.978  21.483  0.00  0.00    +0.000 A 
ATOM     20  C   UNL     1      -4.736  12.678  21.482  0.00  0.00    +0.000 A 
ATOM     21  C   UNL     1      -3.497  12.396  22.059  0.00  0.00    +0.000 A 
ATOM     22  C   UNL     1      -2.721  13.408  22.637  0.00  0.00    +0.000 A 
ATOM     23  H   UNL     1      -1.286  10.787  22.497  0.00  0.00    +0.000 HD
ENDBRANCH   4   7
BRANCH   1  25
ATOM     24  O   UNL     1       2.598   8.460  17.112  0.00  0.00    +0.000 OA
ATOM     25  C   UNL     1       2.283   8.006  18.209  0.00  0.00    +0.000 C 
ATOM     26  N   UNL     1       2.684   6.758  18.653  0.00  0.00    +0.000 N 
ATOM     27  H   UNL     1       2.450   6.444  19.583  0.00  0.00    +0.000 HD
BRANCH  26  28
ATOM     28  C   UNL     1       3.458   5.877  17.808  0.00  0.00    +0.000 C 
BRANCH  28  29
ATOM     29  C   UNL     1       4.938   6.042  18.042  0.00  0.00    +0.000 A 
ATOM     30  C   UNL     1       5.717   6.851  17.205  0.00  0.00    +0.000 A 
ATOM     31  C   UNL     1       7.085   7.009  17.445  0.00  0.00    +0.000 A 
ATOM     32  C   UNL     1       7.688   6.358  18.518  0.00  0.00    +0.000 A 
ATOM     33  C   UNL     1       6.926   5.541  19.351  0.00  0.00    +0.000 A 
ATOM     34  C   UNL     1       5.561   5.373  19.106  0.00  0.00    +0.000 A 
ENDBRANCH  28  29
ENDBRANCH  26  28
ENDBRANCH   1  25
TORSDOF 4
ENDMDL
