MODEL 1
REMARK VINA RESULT:      -7.7      0.000      0.000
REMARK  Name = 
REMARK  4 active torsions:
REMARK  status: ('A' for Active; 'I' for Inactive)
REMARK    1  A    between atoms: C_1  and  N_2
REMARK    2  A    between atoms: C_6  and  C_7
REMARK    3  A    between atoms: N_14  and  C_15
REMARK    4  A    between atoms: C_15  and  C_16
REMARK                            x       y       z     vdW  Elec       q    Type
REMARK                         _______ _______ _______ _____ _____    ______ ____
ROOT
ATOM      1  C   UNL     1       8.604  12.244  21.756  0.00  0.00    +0.000 C 
ATOM      2  C   UNL     1       9.553  13.424  21.997  0.00  0.00    +0.000 C 
ATOM      3  C   UNL     1      10.037  13.886  20.629  0.00  0.00    +0.000 C 
ATOM      4  C   UNL     1      10.728  12.736  19.880  0.00  0.00    +0.000 C 
ATOM      5  N   UNL     1       9.947  11.479  19.906  0.00  0.00    +0.000 N 
ATOM      6  C   UNL     1       9.515  10.971  18.693  0.00  0.00    +0.000 C 
ATOM      7  O   UNL     1       9.771  11.503  17.614  0.00  0.00    +0.000 OA
ATOM      8  N   UNL     1       8.760   9.823  18.765  0.00  0.00    +0.000 N 
ATOM      9  C   UNL     1       9.444  11.077  21.246  0.00  0.00    +0.000 C 
ATOM     10  H   UNL     1       8.859   9.241  19.577  0.00  0.00    +0.000 HD
ENDROOT
BRANCH   1  16
ATOM     11  C   UNL     1       6.166  13.921  22.207  0.00  0.00    +0.000 C 
ATOM     12  N   UNL     1       6.619  12.883  23.100  0.00  0.00    +0.000 N 
ATOM     13  C   UNL     1       6.102  12.570  24.318  0.00  0.00    +0.000 A 
ATOM     14  N   UNL     1       6.776  11.564  24.823  0.00  0.00    +0.000 NA
ATOM     15  N   UNL     1       7.785  11.237  23.941  0.00  0.00    +0.000 NA
ATOM     16  C   UNL     1       7.700  12.054  22.913  0.00  0.00    +0.000 A 
ENDBRANCH   1  16
BRANCH   8  17
ATOM     17  C   UNL     1       8.248   9.160  17.583  0.00  0.00    +0.000 C 
BRANCH  17  18
ATOM     18  C   UNL     1       7.663   7.805  17.912  0.00  0.00    +0.000 A 
ATOM     19  C   UNL     1       8.285   6.974  18.873  0.00  0.00    +0.000 A 
ATOM     20  C   UNL     1       7.780   5.701  19.166  0.00  0.00    +0.000 A 
ATOM     21  C   UNL     1       6.664   5.281  18.479  0.00  0.00    +0.000 A 
ATOM     22  C   UNL     1       6.049   6.078  17.545  0.00  0.00    +0.000 A 
ATOM     23  C   UNL     1       6.518   7.341  17.242  0.00  0.00    +0.000 A 
ATOM     24  O   UNL     1       4.970   5.474  16.977  0.00  0.00    +0.000 OA
ATOM     25  C   UNL     1       4.997   4.192  17.639  0.00  0.00    +0.000 C 
ATOM     26  O   UNL     1       6.049   4.075  18.619  0.00  0.00    +0.000 OA
ENDBRANCH  17  18
ENDBRANCH   8  17
TORSDOF 3
ENDMDL
MODEL 2
REMARK VINA RESULT:      -7.6      6.559      9.721
REMARK  Name = 
REMARK  4 active torsions:
REMARK  status: ('A' for Active; 'I' for Inactive)
REMARK    1  A    between atoms: C_1  and  N_2
REMARK    2  A    between atoms: C_6  and  C_7
REMARK    3  A    between atoms: N_14  and  C_15
REMARK    4  A    between atoms: C_15  and  C_16
REMARK                            x       y       z     vdW  Elec       q    Type
REMARK                         _______ _______ _______ _____ _____    ______ ____
ROOT
ATOM      1  C   UNL     1       4.410   3.728  18.327  0.00  0.00    +0.000 C 
ATOM      2  C   UNL     1       4.171   2.271  17.913  0.00  0.00    +0.000 C 
ATOM      3  C   UNL     1       2.672   2.025  18.016  0.00  0.00    +0.000 C 
ATOM      4  C   UNL     1       2.171   2.308  19.441  0.00  0.00    +0.000 C 
ATOM      5  N   UNL     1       2.660   3.598  19.978  0.00  0.00    +0.000 N 
ATOM      6  C   UNL     1       1.713   4.558  20.293  0.00  0.00    +0.000 C 
ATOM      7  O   UNL     1       0.503   4.373  20.167  0.00  0.00    +0.000 OA
ATOM      8  N   UNL     1       2.211   5.755  20.752  0.00  0.00    +0.000 N 
ATOM      9  C   UNL     1       4.119   3.834  19.820  0.00  0.00    +0.000 C 
ATOM     10  H   UNL     1       3.127   5.760  21.164  0.00  0.00    +0.000 HD
ENDROOT
BRANCH   1  16
ATOM     11  C   UNL     1       4.799   4.451  15.448  0.00  0.00    +0.000 C 
ATOM     12  N   UNL     1       5.838   4.494  16.447  0.00  0.00    +0.000 N 
ATOM     13  C   UNL     1       7.158   4.751  16.244  0.00  0.00    +0.000 A 
ATOM     14  N   UNL     1       7.784   4.709  17.395  0.00  0.00    +0.000 NA
ATOM     15  N   UNL     1       6.868   4.373  18.371  0.00  0.00    +0.000 NA
ATOM     16  C   UNL     1       5.699   4.220  17.787  0.00  0.00    +0.000 A 
ENDBRANCH   1  16
BRANCH   8  17
ATOM     17  C   UNL     1       1.349   6.853  21.140  0.00  0.00    +0.000 C 
BRANCH  17  18
ATOM     18  C   UNL     1       1.483   8.028  20.198  0.00  0.00    +0.000 A 
ATOM     19  C   UNL     1       2.138   7.874  18.953  0.00  0.00    +0.000 A 
ATOM     20  C   UNL     1       2.304   8.957  18.082  0.00  0.00    +0.000 A 
ATOM     21  C   UNL     1       1.818  10.182  18.482  0.00  0.00    +0.000 A 
ATOM     22  C   UNL     1       1.179  10.345  19.686  0.00  0.00    +0.000 A 
ATOM     23  C   UNL     1       0.991   9.294  20.562  0.00  0.00    +0.000 A 
ATOM     24  O   UNL     1       0.784  11.631  19.894  0.00  0.00    +0.000 OA
ATOM     25  C   UNL     1       1.278  12.263  18.694  0.00  0.00    +0.000 C 
ATOM     26  O   UNL     1       1.905  11.342  17.777  0.00  0.00    +0.000 OA
ENDBRANCH  17  18
ENDBRANCH   8  17
TORSDOF 3
ENDMDL
MODEL 3
REMARK VINA RESULT:      -7.5      5.024      8.791
REMARK  Name = 
REMARK  4 active torsions:
REMARK  status: ('A' for Active; 'I' for Inactive)
REMARK    1  A    between atoms: C_1  and  N_2
REMARK    2  A    between atoms: C_6  and  C_7
REMARK    3  A    between atoms: N_14  and  C_15
REMARK    4  A    between atoms: C_15  and  C_16
REMARK                            x       y       z     vdW  Elec       q    Type
REMARK                         _______ _______ _______ _____ _____    ______ ____
ROOT
ATOM      1  C   UNL     1       5.500   5.655  17.826  0.00  0.00    +0.000 C 
ATOM      2  C   UNL     1       5.777   4.432  16.943  0.00  0.00    +0.000 C 
ATOM      3  C   UNL     1       4.438   3.745  16.710  0.00  0.00    +0.000 C 
ATOM      4  C   UNL     1       3.788   3.354  18.046  0.00  0.00    +0.000 C 
ATOM      5  N   UNL     1       3.793   4.456  19.034  0.00  0.00    +0.000 N 
ATOM      6  C   UNL     1       2.567   4.929  19.469  0.00  0.00    +0.000 C 
ATOM      7  O   UNL     1       1.495   4.460  19.090  0.00  0.00    +0.000 OA
ATOM      8  N   UNL     1       2.616   5.978  20.357  0.00  0.00    +0.000 N 
ATOM      9  C   UNL     1       5.101   5.143  19.206  0.00  0.00    +0.000 C 
ATOM     10  H   UNL     1       3.453   6.103  20.897  0.00  0.00    +0.000 HD
ENDROOT
BRANCH   1  16
ATOM     11  C   UNL     1       7.938   5.650  19.563  0.00  0.00    +0.000 C 
ATOM     12  N   UNL     1       7.662   6.636  18.548  0.00  0.00    +0.000 N 
ATOM     13  C   UNL     1       8.377   7.762  18.286  0.00  0.00    +0.000 A 
ATOM     14  N   UNL     1       7.819   8.401  17.286  0.00  0.00    +0.000 NA
ATOM     15  N   UNL     1       6.688   7.706  16.910  0.00  0.00    +0.000 NA
ATOM     16  C   UNL     1       6.585   6.654  17.693  0.00  0.00    +0.000 A 
ENDBRANCH   1  16
BRANCH   8  17
ATOM     17  C   UNL     1       1.419   6.573  20.917  0.00  0.00    +0.000 C 
BRANCH  17  18
ATOM     18  C   UNL     1       1.277   8.025  20.519  0.00  0.00    +0.000 A 
ATOM     19  C   UNL     1       1.549   8.430  19.191  0.00  0.00    +0.000 A 
ATOM     20  C   UNL     1       1.458   9.774  18.811  0.00  0.00    +0.000 A 
ATOM     21  C   UNL     1       1.106  10.691  19.775  0.00  0.00    +0.000 A 
ATOM     22  C   UNL     1       0.838  10.311  21.067  0.00  0.00    +0.000 A 
ATOM     23  C   UNL     1       0.910   8.992  21.470  0.00  0.00    +0.000 A 
ATOM     24  O   UNL     1       0.517  11.368  21.862  0.00  0.00    +0.000 OA
ATOM     25  C   UNL     1       0.647  12.460  20.928  0.00  0.00    +0.000 C 
ATOM     26  O   UNL     1       0.987  12.034  19.591  0.00  0.00    +0.000 OA
ENDBRANCH  17  18
ENDBRANCH   8  17
TORSDOF 3
ENDMDL
MODEL 4
REMARK VINA RESULT:      -7.3      5.115      8.758
REMARK  Name = 
REMARK  4 active torsions:
REMARK  status: ('A' for Active; 'I' for Inactive)
REMARK    1  A    between atoms: C_1  and  N_2
REMARK    2  A    between atoms: C_6  and  C_7
REMARK    3  A    between atoms: N_14  and  C_15
REMARK    4  A    between atoms: C_15  and  C_16
REMARK                            x       y       z     vdW  Elec       q    Type
REMARK                         _______ _______ _______ _____ _____    ______ ____
ROOT
ATOM      1  C   UNL     1       5.338   5.426  17.789  0.00  0.00    +0.000 C 
ATOM      2  C   UNL     1       5.586   4.220  16.875  0.00  0.00    +0.000 C 
ATOM      3  C   UNL     1       4.240   3.536  16.675  0.00  0.00    +0.000 C 
ATOM      4  C   UNL     1       3.637   3.120  18.026  0.00  0.00    +0.000 C 
ATOM      5  N   UNL     1       3.675   4.203  19.032  0.00  0.00    +0.000 N 
ATOM      6  C   UNL     1       2.464   4.667  19.518  0.00  0.00    +0.000 C 
ATOM      7  O   UNL     1       1.380   4.204  19.168  0.00  0.00    +0.000 OA
ATOM      8  N   UNL     1       2.543   5.700  20.423  0.00  0.00    +0.000 N 
ATOM      9  C   UNL     1       4.987   4.888  19.172  0.00  0.00    +0.000 C 
ATOM     10  H   UNL     1       3.398   5.816  20.937  0.00  0.00    +0.000 HD
ENDROOT
BRANCH   1  16
ATOM     11  C   UNL     1       7.722   5.536  19.597  0.00  0.00    +0.000 C 
ATOM     12  N   UNL     1       7.468   6.466  18.524  0.00  0.00    +0.000 N 
ATOM     13  C   UNL     1       8.181   7.585  18.226  0.00  0.00    +0.000 A 
ATOM     14  N   UNL     1       7.648   8.166  17.178  0.00  0.00    +0.000 NA
ATOM     15  N   UNL     1       6.535   7.441  16.804  0.00  0.00    +0.000 NA
ATOM     16  C   UNL     1       6.418   6.429  17.637  0.00  0.00    +0.000 A 
ENDBRANCH   1  16
BRANCH   8  17
ATOM     17  C   UNL     1       1.366   6.283  21.035  0.00  0.00    +0.000 C 
BRANCH  17  18
ATOM     18  C   UNL     1       1.263   7.764  20.751  0.00  0.00    +0.000 A 
ATOM     19  C   UNL     1       0.648   8.629  21.686  0.00  0.00    +0.000 A 
ATOM     20  C   UNL     1       0.511   9.998  21.425  0.00  0.00    +0.000 A 
ATOM     21  C   UNL     1       0.985  10.473  20.223  0.00  0.00    +0.000 A 
ATOM     22  C   UNL     1       1.585   9.645  19.308  0.00  0.00    +0.000 A 
ATOM     23  C   UNL     1       1.744   8.293  19.540  0.00  0.00    +0.000 A 
ATOM     24  O   UNL     1       1.975  10.308  18.185  0.00  0.00    +0.000 OA
ATOM     25  C   UNL     1       1.520  11.644  18.489  0.00  0.00    +0.000 C 
ATOM     26  O   UNL     1       0.921  11.763  19.796  0.00  0.00    +0.000 OA
ENDBRANCH  17  18
ENDBRANCH   8  17
TORSDOF 3
ENDMDL
MODEL 5
REMARK VINA RESULT:      -7.3      6.614      9.824
REMARK  Name = 
REMARK  4 active torsions:
REMARK  status: ('A' for Active; 'I' for Inactive)
REMARK    1  A    between atoms: C_1  and  N_2
REMARK    2  A    between atoms: C_6  and  C_7
REMARK    3  A    between atoms: N_14  and  C_15
REMARK    4  A    between atoms: C_15  and  C_16
REMARK                            x       y       z     vdW  Elec       q    Type
REMARK                         _______ _______ _______ _____ _____    ______ ____
ROOT
ATOM      1  C   UNL     1       3.829   4.041  17.680  0.00  0.00    +0.000 C 
ATOM      2  C   UNL     1       3.766   2.514  17.557  0.00  0.00    +0.000 C 
ATOM      3  C   UNL     1       2.474   2.071  18.230  0.00  0.00    +0.000 C 
ATOM      4  C   UNL     1       2.439   2.532  19.695  0.00  0.00    +0.000 C 
ATOM      5  N   UNL     1       2.806   3.956  19.861  0.00  0.00    +0.000 N 
ATOM      6  C   UNL     1       1.848   4.806  20.385  0.00  0.00    +0.000 C 
ATOM      7  O   UNL     1       0.732   4.424  20.734  0.00  0.00    +0.000 OA
ATOM      8  N   UNL     1       2.216   6.128  20.486  0.00  0.00    +0.000 N 
ATOM      9  C   UNL     1       4.045   4.374  19.152  0.00  0.00    +0.000 C 
ATOM     10  H   UNL     1       3.196   6.344  20.530  0.00  0.00    +0.000 HD
ENDROOT
BRANCH   1  16
ATOM     11  C   UNL     1       4.229   6.986  17.324  0.00  0.00    +0.000 C 
ATOM     12  N   UNL     1       4.842   5.974  16.499  0.00  0.00    +0.000 N 
ATOM     13  C   UNL     1       5.591   6.173  15.382  0.00  0.00    +0.000 A 
ATOM     14  N   UNL     1       5.978   5.011  14.913  0.00  0.00    +0.000 NA
ATOM     15  N   UNL     1       5.436   4.024  15.711  0.00  0.00    +0.000 NA
ATOM     16  C   UNL     1       4.730   4.613  16.652  0.00  0.00    +0.000 A 
ENDBRANCH   1  16
BRANCH   8  17
ATOM     17  C   UNL     1       1.332   7.138  21.031  0.00  0.00    +0.000 C 
BRANCH  17  18
ATOM     18  C   UNL     1       1.348   8.401  20.200  0.00  0.00    +0.000 A 
ATOM     19  C   UNL     1       1.831   8.375  18.871  0.00  0.00    +0.000 A 
ATOM     20  C   UNL     1       1.888   9.540  18.097  0.00  0.00    +0.000 A 
ATOM     21  C   UNL     1       1.467  10.716  18.677  0.00  0.00    +0.000 A 
ATOM     22  C   UNL     1       0.994  10.755  19.965  0.00  0.00    +0.000 A 
ATOM     23  C   UNL     1       0.917   9.621  20.750  0.00  0.00    +0.000 A 
ATOM     24  O   UNL     1       0.637  12.011  20.349  0.00  0.00    +0.000 OA
ATOM     25  C   UNL     1       0.973  12.762  19.164  0.00  0.00    +0.000 C 
ATOM     26  O   UNL     1       1.468  11.941  18.085  0.00  0.00    +0.000 OA
ENDBRANCH  17  18
ENDBRANCH   8  17
TORSDOF 3
ENDMDL
MODEL 6
REMARK VINA RESULT:      -7.3     10.699     12.999
REMARK  Name = 
REMARK  4 active torsions:
REMARK  status: ('A' for Active; 'I' for Inactive)
REMARK    1  A    between atoms: C_1  and  N_2
REMARK    2  A    between atoms: C_6  and  C_7
REMARK    3  A    between atoms: N_14  and  C_15
REMARK    4  A    between atoms: C_15  and  C_16
REMARK                            x       y       z     vdW  Elec       q    Type
REMARK                         _______ _______ _______ _____ _____    ______ ____
ROOT
ATOM      1  C   UNL     1      -1.623  11.292  18.762  0.00  0.00    +0.000 C 
ATOM      2  C   UNL     1      -0.512  10.265  18.513  0.00  0.00    +0.000 C 
ATOM      3  C   UNL     1       0.065   9.903  19.874  0.00  0.00    +0.000 C 
ATOM      4  C   UNL     1       0.590  11.156  20.593  0.00  0.00    +0.000 C 
ATOM      5  N   UNL     1      -0.372  12.279  20.570  0.00  0.00    +0.000 N 
ATOM      6  C   UNL     1      -0.851  12.734  21.787  0.00  0.00    +0.000 C 
ATOM      7  O   UNL     1      -0.494  12.264  22.866  0.00  0.00    +0.000 OA
ATOM      8  N   UNL     1      -1.772  13.754  21.720  0.00  0.00    +0.000 N 
ATOM      9  C   UNL     1      -0.959  12.580  19.238  0.00  0.00    +0.000 C 
ATOM     10  H   UNL     1      -1.780  14.331  20.898  0.00  0.00    +0.000 HD
ENDROOT
BRANCH   1  16
ATOM     11  C   UNL     1      -4.512  12.013  19.071  0.00  0.00    +0.000 C 
ATOM     12  N   UNL     1      -3.899  11.617  17.827  0.00  0.00    +0.000 N 
ATOM     13  C   UNL     1      -4.525  11.397  16.640  0.00  0.00    +0.000 A 
ATOM     14  N   UNL     1      -3.632  11.060  15.741  0.00  0.00    +0.000 NA
ATOM     15  N   UNL     1      -2.398  11.012  16.357  0.00  0.00    +0.000 NA
ATOM     16  C   UNL     1      -2.571  11.325  17.624  0.00  0.00    +0.000 A 
ENDBRANCH   1  16
BRANCH   8  17
ATOM     17  C   UNL     1      -2.354  14.350  22.905  0.00  0.00    +0.000 C 
BRANCH  17  18
ATOM     18  C   UNL     1      -3.669  13.701  23.270  0.00  0.00    +0.000 A 
ATOM     19  C   UNL     1      -3.790  12.960  24.470  0.00  0.00    +0.000 A 
ATOM     20  C   UNL     1      -4.988  12.321  24.809  0.00  0.00    +0.000 A 
ATOM     21  C   UNL     1      -6.043  12.428  23.931  0.00  0.00    +0.000 A 
ATOM     22  C   UNL     1      -5.939  13.145  22.765  0.00  0.00    +0.000 A 
ATOM     23  C   UNL     1      -4.774  13.794  22.408  0.00  0.00    +0.000 A 
ATOM     24  O   UNL     1      -7.089  13.119  22.037  0.00  0.00    +0.000 OA
ATOM     25  C   UNL     1      -7.916  12.276  22.865  0.00  0.00    +0.000 C 
ATOM     26  O   UNL     1      -7.270  11.861  24.087  0.00  0.00    +0.000 OA
ENDBRANCH  17  18
ENDBRANCH   8  17
TORSDOF 3
ENDMDL
MODEL 7
REMARK VINA RESULT:      -7.2      6.502      9.091
REMARK  Name = 
REMARK  4 active torsions:
REMARK  status: ('A' for Active; 'I' for Inactive)
REMARK    1  A    between atoms: C_1  and  N_2
REMARK    2  A    between atoms: C_6  and  C_7
REMARK    3  A    between atoms: N_14  and  C_15
REMARK    4  A    between atoms: C_15  and  C_16
REMARK                            x       y       z     vdW  Elec       q    Type
REMARK                         _______ _______ _______ _____ _____    ______ ____
ROOT
ATOM      1  C   UNL     1       3.808   4.540  19.343  0.00  0.00    +0.000 C 
ATOM      2  C   UNL     1       5.149   3.999  18.833  0.00  0.00    +0.000 C 
ATOM      3  C   UNL     1       5.934   5.194  18.309  0.00  0.00    +0.000 C 
ATOM      4  C   UNL     1       5.149   5.919  17.205  0.00  0.00    +0.000 C 
ATOM      5  N   UNL     1       3.740   6.176  17.574  0.00  0.00    +0.000 N 
ATOM      6  C   UNL     1       3.330   7.496  17.651  0.00  0.00    +0.000 C 
ATOM      7  O   UNL     1       4.074   8.444  17.405  0.00  0.00    +0.000 OA
ATOM      8  N   UNL     1       2.024   7.692  18.035  0.00  0.00    +0.000 N 
ATOM      9  C   UNL     1       3.010   5.006  18.130  0.00  0.00    +0.000 C 
ATOM     10  H   UNL     1       1.371   6.943  17.891  0.00  0.00    +0.000 HD
ENDROOT
BRANCH   1  16
ATOM     11  C   UNL     1       1.097   4.966  20.538  0.00  0.00    +0.000 C 
ATOM     12  N   UNL     1       1.971   3.867  20.869  0.00  0.00    +0.000 N 
ATOM     13  C   UNL     1       1.774   2.927  21.831  0.00  0.00    +0.000 A 
ATOM     14  N   UNL     1       2.783   2.090  21.825  0.00  0.00    +0.000 NA
ATOM     15  N   UNL     1       3.685   2.512  20.870  0.00  0.00    +0.000 NA
ATOM     16  C   UNL     1       3.200   3.601  20.313  0.00  0.00    +0.000 A 
ENDBRANCH   1  16
BRANCH   8  17
ATOM     17  C   UNL     1       1.440   9.014  18.146  0.00  0.00    +0.000 C 
BRANCH  17  18
ATOM     18  C   UNL     1       1.045   9.333  19.569  0.00  0.00    +0.000 A 
ATOM     19  C   UNL     1       1.571   8.576  20.643  0.00  0.00    +0.000 A 
ATOM     20  C   UNL     1       1.190   8.832  21.965  0.00  0.00    +0.000 A 
ATOM     21  C   UNL     1       0.277   9.838  22.186  0.00  0.00    +0.000 A 
ATOM     22  C   UNL     1      -0.240  10.581  21.154  0.00  0.00    +0.000 A 
ATOM     23  C   UNL     1       0.124  10.359  19.841  0.00  0.00    +0.000 A 
ATOM     24  O   UNL     1      -1.129  11.518  21.584  0.00  0.00    +0.000 OA
ATOM     25  C   UNL     1      -1.135  11.254  23.003  0.00  0.00    +0.000 C 
ATOM     26  O   UNL     1      -0.219  10.212  23.397  0.00  0.00    +0.000 OA
ENDBRANCH  17  18
ENDBRANCH   8  17
TORSDOF 3
ENDMDL
MODEL 8
REMARK VINA RESULT:      -7.2      3.744      8.064
REMARK  Name = 
REMARK  4 active torsions:
REMARK  status: ('A' for Active; 'I' for Inactive)
REMARK    1  A    between atoms: C_1  and  N_2
REMARK    2  A    between atoms: C_6  and  C_7
REMARK    3  A    between atoms: N_14  and  C_15
REMARK    4  A    between atoms: C_15  and  C_16
REMARK                            x       y       z     vdW  Elec       q    Type
REMARK                         _______ _______ _______ _____ _____    ______ ____
ROOT
ATOM      1  C   UNL     1       4.157   5.183  18.208  0.00  0.00    +0.000 C 
ATOM      2  C   UNL     1       3.543   4.455  17.006  0.00  0.00    +0.000 C 
ATOM      3  C   UNL     1       4.668   4.234  16.005  0.00  0.00    +0.000 C 
ATOM      4  C   UNL     1       5.309   5.572  15.602  0.00  0.00    +0.000 C 
ATOM      5  N   UNL     1       5.629   6.430  16.764  0.00  0.00    +0.000 N 
ATOM      6  C   UNL     1       6.959   6.749  16.975  0.00  0.00    +0.000 C 
ATOM      7  O   UNL     1       7.865   6.372  16.233  0.00  0.00    +0.000 OA
ATOM      8  N   UNL     1       7.217   7.517  18.087  0.00  0.00    +0.000 N 
ATOM      9  C   UNL     1       4.529   6.589  17.752  0.00  0.00    +0.000 C 
ATOM     10  H   UNL     1       6.473   8.081  18.456  0.00  0.00    +0.000 HD
ENDROOT
BRANCH   1  16
ATOM     11  C   UNL     1       4.205   2.676  19.843  0.00  0.00    +0.000 C 
ATOM     12  N   UNL     1       3.346   3.804  20.106  0.00  0.00    +0.000 N 
ATOM     13  C   UNL     1       2.360   3.882  21.039  0.00  0.00    +0.000 A 
ATOM     14  N   UNL     1       1.807   5.070  20.980  0.00  0.00    +0.000 NA
ATOM     15  N   UNL     1       2.410   5.774  19.957  0.00  0.00    +0.000 NA
ATOM     16  C   UNL     1       3.322   4.994  19.417  0.00  0.00    +0.000 A 
ENDBRANCH   1  16
BRANCH   8  17
ATOM     17  C   UNL     1       8.556   7.948  18.435  0.00  0.00    +0.000 C 
BRANCH  17  18
ATOM     18  C   UNL     1       8.662   9.455  18.487  0.00  0.00    +0.000 A 
ATOM     19  C   UNL     1       9.433  10.082  19.495  0.00  0.00    +0.000 A 
ATOM     20  C   UNL     1       9.515  11.477  19.582  0.00  0.00    +0.000 A 
ATOM     21  C   UNL     1       8.811  12.220  18.661  0.00  0.00    +0.000 A 
ATOM     22  C   UNL     1       8.061  11.624  17.677  0.00  0.00    +0.000 A 
ATOM     23  C   UNL     1       7.969  10.252  17.560  0.00  0.00    +0.000 A 
ATOM     24  O   UNL     1       7.440  12.533  16.877  0.00  0.00    +0.000 OA
ATOM     25  C   UNL     1       7.861  13.769  17.493  0.00  0.00    +0.000 C 
ATOM     26  O   UNL     1       8.760  13.578  18.606  0.00  0.00    +0.000 OA
ENDBRANCH  17  18
ENDBRANCH   8  17
TORSDOF 3
ENDMDL
MODEL 9
REMARK VINA RESULT:      -7.2     10.621     12.374
REMARK  Name = 
REMARK  4 active torsions:
REMARK  status: ('A' for Active; 'I' for Inactive)
REMARK    1  A    between atoms: C_1  and  N_2
REMARK    2  A    between atoms: C_6  and  C_7
REMARK    3  A    between atoms: N_14  and  C_15
REMARK    4  A    between atoms: C_15  and  C_16
REMARK                            x       y       z     vdW  Elec       q    Type
REMARK                         _______ _______ _______ _____ _____    ______ ____
ROOT
ATOM      1  C   UNL     1      -5.939  12.278  20.730  0.00  0.00    +0.000 C 
ATOM      2  C   UNL     1      -7.271  11.571  20.451  0.00  0.00    +0.000 C 
ATOM      3  C   UNL     1      -6.954  10.363  19.580  0.00  0.00    +0.000 C 
ATOM      4  C   UNL     1      -6.250  10.797  18.285  0.00  0.00    +0.000 C 
ATOM      5  N   UNL     1      -5.136  11.741  18.522  0.00  0.00    +0.000 N 
ATOM      6  C   UNL     1      -3.865  11.334  18.155  0.00  0.00    +0.000 C 
ATOM      7  O   UNL     1      -3.636  10.247  17.626  0.00  0.00    +0.000 OA
ATOM      8  N   UNL     1      -2.853  12.224  18.428  0.00  0.00    +0.000 N 
ATOM      9  C   UNL     1      -5.458  12.884  19.417  0.00  0.00    +0.000 C 
ATOM     10  H   UNL     1      -3.090  13.196  18.525  0.00  0.00    +0.000 HD
ENDROOT
BRANCH   1  16
ATOM     11  C   UNL     1      -3.694  12.588  22.686  0.00  0.00    +0.000 C 
ATOM     12  N   UNL     1      -4.994  13.193  22.834  0.00  0.00    +0.000 N 
ATOM     13  C   UNL     1      -5.452  13.893  23.906  0.00  0.00    +0.000 A 
ATOM     14  N   UNL     1      -6.679  14.291  23.665  0.00  0.00    +0.000 NA
ATOM     15  N   UNL     1      -7.053  13.806  22.429  0.00  0.00    +0.000 NA
ATOM     16  C   UNL     1      -6.039  13.122  21.943  0.00  0.00    +0.000 A 
ENDBRANCH   1  16
BRANCH   8  17
ATOM     17  C   UNL     1      -1.471  11.953  18.089  0.00  0.00    +0.000 C 
BRANCH  17  18
ATOM     18  C   UNL     1      -0.776  11.156  19.169  0.00  0.00    +0.000 A 
ATOM     19  C   UNL     1       0.217  10.207  18.829  0.00  0.00    +0.000 A 
ATOM     20  C   UNL     1       0.846   9.433  19.811  0.00  0.00    +0.000 A 
ATOM     21  C   UNL     1       0.460   9.619  21.119  0.00  0.00    +0.000 A 
ATOM     22  C   UNL     1      -0.500  10.538  21.463  0.00  0.00    +0.000 A 
ATOM     23  C   UNL     1      -1.132  11.322  20.518  0.00  0.00    +0.000 A 
ATOM     24  O   UNL     1      -0.740  10.560  22.803  0.00  0.00    +0.000 OA
ATOM     25  C   UNL     1       0.157   9.525  23.256  0.00  0.00    +0.000 C 
ATOM     26  O   UNL     1       0.948   8.947  22.197  0.00  0.00    +0.000 OA
ENDBRANCH  17  18
ENDBRANCH   8  17
TORSDOF 3
ENDMDL
