MODEL 1
REMARK VINA RESULT:      -7.9      0.000      0.000
REMARK  Name = 
REMARK  10 active torsions:
REMARK  status: ('A' for Active; 'I' for Inactive)
REMARK    1  A    between atoms: C_1  and  C_2
REMARK    2  A    between atoms: C_2  and  C_3
REMARK    3  A    between atoms: C_3  and  S_4
REMARK    4  A    between atoms: S_4  and  N_7
REMARK    5  A    between atoms: N_7  and  C_8
REMARK    6  A    between atoms: C_8  and  C_9
REMARK    7  A    between atoms: C_9  and  C_10
REMARK    8  A    between atoms: C_14  and  C_15
REMARK    9  A    between atoms: C_16  and  C_17
REMARK   10  A    between atoms: C_21  and  O_22
REMARK                            x       y       z     vdW  Elec       q    Type
REMARK                         _______ _______ _______ _____ _____    ______ ____
ROOT
ATOM      1  C   UNL     1       5.915   4.280  16.885  0.00  0.00    +0.000 A 
ATOM      2  C   UNL     1       4.621   3.779  16.762  0.00  0.00    +0.000 A 
ATOM      3  C   UNL     1       3.888   3.448  17.908  0.00  0.00    +0.000 A 
ATOM      4  C   UNL     1       2.552   3.027  17.824  0.00  0.00    +0.000 A 
ATOM      5  C   UNL     1       1.795   2.793  18.981  0.00  0.00    +0.000 A 
ATOM      6  C   UNL     1       0.334   2.471  18.838  0.00  0.00    +0.000 C 
ATOM      7  C   UNL     1       2.414   2.923  20.235  0.00  0.00    +0.000 A 
ATOM      8  C   UNL     1       1.689   2.731  21.538  0.00  0.00    +0.000 C 
ATOM      9  C   UNL     1       3.773   3.290  20.295  0.00  0.00    +0.000 A 
ATOM     10  C   UNL     1       4.511   3.591  19.161  0.00  0.00    +0.000 A 
ATOM     11  N   UNL     1       5.767   4.045  19.295  0.00  0.00    +0.000 NA
ATOM     12  C   UNL     1       6.408   4.398  18.172  0.00  0.00    +0.000 A 
ENDROOT
BRANCH  12  13
ATOM     13  O   UNL     1       7.631   4.930  18.412  0.00  0.00    +0.000 OA
ATOM     14  H   UNL     1       7.904   5.134  17.497  0.00  0.00    +0.000 HD
ENDBRANCH  12  13
BRANCH   1  15
ATOM     15  C   UNL     1       6.696   4.697  15.673  0.00  0.00    +0.000 C 
BRANCH  15  16
ATOM     16  C   UNL     1       5.941   4.528  14.356  0.00  0.00    +0.000 C 
BRANCH  16  17
ATOM     17  N   UNL     1       6.262   3.235  13.708  0.00  0.00    +0.000 NA
ATOM     18  H   UNL     1       7.187   2.867  13.962  0.00  0.00    +0.000 HD
BRANCH  17  19
ATOM     19  S   UNL     1       6.150   3.234  12.019  0.00  0.00    +0.000 S 
ATOM     20  O   UNL     1       6.106   1.840  11.627  0.00  0.00    +0.000 OA
ATOM     21  O   UNL     1       7.165   4.126  11.517  0.00  0.00    +0.000 OA
BRANCH  19  22
ATOM     22  C   UNL     1       4.535   3.968  11.756  0.00  0.00    +0.000 C 
BRANCH  22  24
ATOM     23  C   UNL     1       3.028   3.939   9.742  0.00  0.00    +0.000 C 
ATOM     24  C   UNL     1       3.709   3.108  10.813  0.00  0.00    +0.000 C 
ENDBRANCH  22  24
ENDBRANCH  19  22
ENDBRANCH  17  19
ENDBRANCH  16  17
ENDBRANCH  15  16
ENDBRANCH   1  15
TORSDOF 7
ENDMDL
MODEL 2
REMARK VINA RESULT:      -7.7      3.911      5.315
REMARK  Name = 
REMARK  10 active torsions:
REMARK  status: ('A' for Active; 'I' for Inactive)
REMARK    1  A    between atoms: C_1  and  C_2
REMARK    2  A    between atoms: C_2  and  C_3
REMARK    3  A    between atoms: C_3  and  S_4
REMARK    4  A    between atoms: S_4  and  N_7
REMARK    5  A    between atoms: N_7  and  C_8
REMARK    6  A    between atoms: C_8  and  C_9
REMARK    7  A    between atoms: C_9  and  C_10
REMARK    8  A    between atoms: C_14  and  C_15
REMARK    9  A    between atoms: C_16  and  C_17
REMARK   10  A    between atoms: C_21  and  O_22
REMARK                            x       y       z     vdW  Elec       q    Type
REMARK                         _______ _______ _______ _____ _____    ______ ____
ROOT
ATOM      1  C   UNL     1       3.486   4.290  18.328  0.00  0.00    +0.000 A 
ATOM      2  C   UNL     1       3.136   5.513  17.762  0.00  0.00    +0.000 A 
ATOM      3  C   UNL     1       2.531   6.501  18.549  0.00  0.00    +0.000 A 
ATOM      4  C   UNL     1       2.249   7.775  18.033  0.00  0.00    +0.000 A 
ATOM      5  C   UNL     1       1.735   8.789  18.855  0.00  0.00    +0.000 A 
ATOM      6  C   UNL     1       1.575  10.170  18.285  0.00  0.00    +0.000 C 
ATOM      7  C   UNL     1       1.443   8.492  20.196  0.00  0.00    +0.000 A 
ATOM      8  C   UNL     1       0.924   9.510  21.172  0.00  0.00    +0.000 C 
ATOM      9  C   UNL     1       1.679   7.190  20.678  0.00  0.00    +0.000 A 
ATOM     10  C   UNL     1       2.251   6.200  19.894  0.00  0.00    +0.000 A 
ATOM     11  N   UNL     1       2.555   5.016  20.448  0.00  0.00    +0.000 NA
ATOM     12  C   UNL     1       3.180   4.123  19.668  0.00  0.00    +0.000 A 
ENDROOT
BRANCH  12  13
ATOM     13  O   UNL     1       3.530   2.997  20.335  0.00  0.00    +0.000 OA
ATOM     14  H   UNL     1       4.359   3.302  20.748  0.00  0.00    +0.000 HD
ENDBRANCH  12  13
BRANCH   1  15
ATOM     15  C   UNL     1       4.188   3.240  17.517  0.00  0.00    +0.000 C 
BRANCH  15  16
ATOM     16  C   UNL     1       4.752   3.749  16.193  0.00  0.00    +0.000 C 
BRANCH  16  17
ATOM     17  N   UNL     1       6.206   4.020  16.291  0.00  0.00    +0.000 NA
ATOM     18  H   UNL     1       6.577   3.930  17.244  0.00  0.00    +0.000 HD
BRANCH  17  19
ATOM     19  S   UNL     1       6.696   5.522  15.682  0.00  0.00    +0.000 S 
ATOM     20  O   UNL     1       5.490   6.167  15.204  0.00  0.00    +0.000 OA
ATOM     21  O   UNL     1       7.822   5.290  14.812  0.00  0.00    +0.000 OA
BRANCH  19  22
ATOM     22  C   UNL     1       7.258   6.356  17.167  0.00  0.00    +0.000 C 
BRANCH  22  24
ATOM     23  C   UNL     1       6.654   5.486  19.449  0.00  0.00    +0.000 C 
ATOM     24  C   UNL     1       7.579   5.344  18.255  0.00  0.00    +0.000 C 
ENDBRANCH  22  24
ENDBRANCH  19  22
ENDBRANCH  17  19
ENDBRANCH  16  17
ENDBRANCH  15  16
ENDBRANCH   1  15
TORSDOF 7
ENDMDL
MODEL 3
REMARK VINA RESULT:      -7.5      4.427      5.819
REMARK  Name = 
REMARK  10 active torsions:
REMARK  status: ('A' for Active; 'I' for Inactive)
REMARK    1  A    between atoms: C_1  and  C_2
REMARK    2  A    between atoms: C_2  and  C_3
REMARK    3  A    between atoms: C_3  and  S_4
REMARK    4  A    between atoms: S_4  and  N_7
REMARK    5  A    between atoms: N_7  and  C_8
REMARK    6  A    between atoms: C_8  and  C_9
REMARK    7  A    between atoms: C_9  and  C_10
REMARK    8  A    between atoms: C_14  and  C_15
REMARK    9  A    between atoms: C_16  and  C_17
REMARK   10  A    between atoms: C_21  and  O_22
REMARK                            x       y       z     vdW  Elec       q    Type
REMARK                         _______ _______ _______ _____ _____    ______ ____
ROOT
ATOM      1  C   UNL     1       2.991   4.866  18.597  0.00  0.00    +0.000 A 
ATOM      2  C   UNL     1       2.727   6.113  18.036  0.00  0.00    +0.000 A 
ATOM      3  C   UNL     1       2.146   7.122  18.814  0.00  0.00    +0.000 A 
ATOM      4  C   UNL     1       1.952   8.415  18.306  0.00  0.00    +0.000 A 
ATOM      5  C   UNL     1       1.462   9.445  19.122  0.00  0.00    +0.000 A 
ATOM      6  C   UNL     1       1.396  10.840  18.567  0.00  0.00    +0.000 C 
ATOM      7  C   UNL     1       1.104   9.148  20.448  0.00  0.00    +0.000 A 
ATOM      8  C   UNL     1       0.603  10.181  21.418  0.00  0.00    +0.000 C 
ATOM      9  C   UNL     1       1.253   7.830  20.920  0.00  0.00    +0.000 A 
ATOM     10  C   UNL     1       1.801   6.820  20.144  0.00  0.00    +0.000 A 
ATOM     11  N   UNL     1       2.021   5.615  20.692  0.00  0.00    +0.000 NA
ATOM     12  C   UNL     1       2.627   4.700  19.922  0.00  0.00    +0.000 A 
ENDROOT
BRANCH  12  13
ATOM     13  O   UNL     1       2.891   3.549  20.586  0.00  0.00    +0.000 OA
ATOM     14  H   UNL     1       3.696   3.266  20.112  0.00  0.00    +0.000 HD
ENDBRANCH  12  13
BRANCH   1  15
ATOM     15  C   UNL     1       3.666   3.790  17.798  0.00  0.00    +0.000 C 
BRANCH  15  16
ATOM     16  C   UNL     1       5.191   3.825  17.871  0.00  0.00    +0.000 C 
BRANCH  16  17
ATOM     17  N   UNL     1       5.797   3.928  16.523  0.00  0.00    +0.000 NA
ATOM     18  H   UNL     1       6.005   3.017  16.095  0.00  0.00    +0.000 HD
BRANCH  17  19
ATOM     19  S   UNL     1       7.200   4.872  16.440  0.00  0.00    +0.000 S 
ATOM     20  O   UNL     1       7.443   5.094  15.029  0.00  0.00    +0.000 OA
ATOM     21  O   UNL     1       8.189   4.253  17.286  0.00  0.00    +0.000 OA
BRANCH  19  22
ATOM     22  C   UNL     1       6.656   6.408  17.191  0.00  0.00    +0.000 C 
BRANCH  22  24
ATOM     23  C   UNL     1       7.933   8.493  17.782  0.00  0.00    +0.000 C 
ATOM     24  C   UNL     1       7.769   7.007  18.036  0.00  0.00    +0.000 C 
ENDBRANCH  22  24
ENDBRANCH  19  22
ENDBRANCH  17  19
ENDBRANCH  16  17
ENDBRANCH  15  16
ENDBRANCH   1  15
TORSDOF 7
ENDMDL
MODEL 4
REMARK VINA RESULT:      -7.5      4.710      5.062
REMARK  Name = 
REMARK  10 active torsions:
REMARK  status: ('A' for Active; 'I' for Inactive)
REMARK    1  A    between atoms: C_1  and  C_2
REMARK    2  A    between atoms: C_2  and  C_3
REMARK    3  A    between atoms: C_3  and  S_4
REMARK    4  A    between atoms: S_4  and  N_7
REMARK    5  A    between atoms: N_7  and  C_8
REMARK    6  A    between atoms: C_8  and  C_9
REMARK    7  A    between atoms: C_9  and  C_10
REMARK    8  A    between atoms: C_14  and  C_15
REMARK    9  A    between atoms: C_16  and  C_17
REMARK   10  A    between atoms: C_21  and  O_22
REMARK                            x       y       z     vdW  Elec       q    Type
REMARK                         _______ _______ _______ _____ _____    ______ ____
ROOT
ATOM      1  C   UNL     1       3.426   6.301  18.124  0.00  0.00    +0.000 A 
ATOM      2  C   UNL     1       2.898   7.550  17.806  0.00  0.00    +0.000 A 
ATOM      3  C   UNL     1       2.111   8.235  18.741  0.00  0.00    +0.000 A 
ATOM      4  C   UNL     1       1.641   9.532  18.488  0.00  0.00    +0.000 A 
ATOM      5  C   UNL     1       0.937  10.248  19.468  0.00  0.00    +0.000 A 
ATOM      6  C   UNL     1       0.570  11.679  19.195  0.00  0.00    +0.000 C 
ATOM      7  C   UNL     1       0.651   9.621  20.692  0.00  0.00    +0.000 A 
ATOM      8  C   UNL     1      -0.064  10.307  21.823  0.00  0.00    +0.000 C 
ATOM      9  C   UNL     1       1.082   8.297  20.902  0.00  0.00    +0.000 A 
ATOM     10  C   UNL     1       1.837   7.605  19.969  0.00  0.00    +0.000 A 
ATOM     11  N   UNL     1       2.314   6.389  20.278  0.00  0.00    +0.000 NA
ATOM     12  C   UNL     1       3.105   5.797  19.372  0.00  0.00    +0.000 A 
ENDROOT
BRANCH  12  13
ATOM     13  O   UNL     1       3.612   4.619  19.808  0.00  0.00    +0.000 OA
ATOM     14  H   UNL     1       2.794   4.200  20.137  0.00  0.00    +0.000 HD
ENDBRANCH  12  13
BRANCH   1  15
ATOM     15  C   UNL     1       4.320   5.576  17.160  0.00  0.00    +0.000 C 
BRANCH  15  16
ATOM     16  C   UNL     1       5.523   6.393  16.694  0.00  0.00    +0.000 C 
BRANCH  16  17
ATOM     17  N   UNL     1       5.777   6.207  15.245  0.00  0.00    +0.000 NA
ATOM     18  H   UNL     1       4.929   6.001  14.703  0.00  0.00    +0.000 HD
BRANCH  17  19
ATOM     19  S   UNL     1       6.933   5.031  14.867  0.00  0.00    +0.000 S 
ATOM     20  O   UNL     1       7.458   4.570  16.136  0.00  0.00    +0.000 OA
ATOM     21  O   UNL     1       7.796   5.583  13.852  0.00  0.00    +0.000 OA
BRANCH  19  22
ATOM     22  C   UNL     1       5.922   3.737  14.145  0.00  0.00    +0.000 C 
BRANCH  22  24
ATOM     23  C   UNL     1       5.064   3.289  11.823  0.00  0.00    +0.000 C 
ATOM     24  C   UNL     1       6.289   3.530  12.684  0.00  0.00    +0.000 C 
ENDBRANCH  22  24
ENDBRANCH  19  22
ENDBRANCH  17  19
ENDBRANCH  16  17
ENDBRANCH  15  16
ENDBRANCH   1  15
TORSDOF 7
ENDMDL
MODEL 5
REMARK VINA RESULT:      -7.5      3.544      7.090
REMARK  Name = 
REMARK  10 active torsions:
REMARK  status: ('A' for Active; 'I' for Inactive)
REMARK    1  A    between atoms: C_1  and  C_2
REMARK    2  A    between atoms: C_2  and  C_3
REMARK    3  A    between atoms: C_3  and  S_4
REMARK    4  A    between atoms: S_4  and  N_7
REMARK    5  A    between atoms: N_7  and  C_8
REMARK    6  A    between atoms: C_8  and  C_9
REMARK    7  A    between atoms: C_9  and  C_10
REMARK    8  A    between atoms: C_14  and  C_15
REMARK    9  A    between atoms: C_16  and  C_17
REMARK   10  A    between atoms: C_21  and  O_22
REMARK                            x       y       z     vdW  Elec       q    Type
REMARK                         _______ _______ _______ _____ _____    ______ ____
ROOT
ATOM      1  C   UNL     1       5.726   4.285  18.159  0.00  0.00    +0.000 A 
ATOM      2  C   UNL     1       4.978   4.000  17.018  0.00  0.00    +0.000 A 
ATOM      3  C   UNL     1       5.545   4.176  15.750  0.00  0.00    +0.000 A 
ATOM      4  C   UNL     1       4.853   3.813  14.585  0.00  0.00    +0.000 A 
ATOM      5  C   UNL     1       5.465   3.900  13.325  0.00  0.00    +0.000 A 
ATOM      6  C   UNL     1       4.728   3.376  12.125  0.00  0.00    +0.000 C 
ATOM      7  C   UNL     1       6.766   4.420  13.238  0.00  0.00    +0.000 A 
ATOM      8  C   UNL     1       7.528   4.523  11.946  0.00  0.00    +0.000 C 
ATOM      9  C   UNL     1       7.421   4.832  14.415  0.00  0.00    +0.000 A 
ATOM     10  C   UNL     1       6.853   4.687  15.670  0.00  0.00    +0.000 A 
ATOM     11  N   UNL     1       7.576   4.994  16.759  0.00  0.00    +0.000 NA
ATOM     12  C   UNL     1       7.009   4.759  17.951  0.00  0.00    +0.000 A 
ENDROOT
BRANCH  12  13
ATOM     13  O   UNL     1       7.844   5.010  18.987  0.00  0.00    +0.000 OA
ATOM     14  H   UNL     1       7.766   4.166  19.470  0.00  0.00    +0.000 HD
ENDBRANCH  12  13
BRANCH   1  15
ATOM     15  C   UNL     1       5.159   4.047  19.529  0.00  0.00    +0.000 C 
BRANCH  15  16
ATOM     16  C   UNL     1       4.468   2.695  19.691  0.00  0.00    +0.000 C 
BRANCH  16  17
ATOM     17  N   UNL     1       3.894   2.538  21.048  0.00  0.00    +0.000 NA
ATOM     18  H   UNL     1       4.014   1.595  21.438  0.00  0.00    +0.000 HD
BRANCH  17  19
ATOM     19  S   UNL     1       2.258   2.951  21.184  0.00  0.00    +0.000 S 
ATOM     20  O   UNL     1       2.222   4.397  21.271  0.00  0.00    +0.000 OA
ATOM     21  O   UNL     1       1.686   2.120  22.214  0.00  0.00    +0.000 OA
BRANCH  19  22
ATOM     22  C   UNL     1       1.615   2.443  19.589  0.00  0.00    +0.000 C 
BRANCH  22  24
ATOM     23  C   UNL     1       1.503   4.152  17.746  0.00  0.00    +0.000 C 
ATOM     24  C   UNL     1       0.807   3.568  18.961  0.00  0.00    +0.000 C 
ENDBRANCH  22  24
ENDBRANCH  19  22
ENDBRANCH  17  19
ENDBRANCH  16  17
ENDBRANCH  15  16
ENDBRANCH   1  15
TORSDOF 7
ENDMDL
MODEL 6
REMARK VINA RESULT:      -7.5      5.085      5.752
REMARK  Name = 
REMARK  10 active torsions:
REMARK  status: ('A' for Active; 'I' for Inactive)
REMARK    1  A    between atoms: C_1  and  C_2
REMARK    2  A    between atoms: C_2  and  C_3
REMARK    3  A    between atoms: C_3  and  S_4
REMARK    4  A    between atoms: S_4  and  N_7
REMARK    5  A    between atoms: N_7  and  C_8
REMARK    6  A    between atoms: C_8  and  C_9
REMARK    7  A    between atoms: C_9  and  C_10
REMARK    8  A    between atoms: C_14  and  C_15
REMARK    9  A    between atoms: C_16  and  C_17
REMARK   10  A    between atoms: C_21  and  O_22
REMARK                            x       y       z     vdW  Elec       q    Type
REMARK                         _______ _______ _______ _____ _____    ______ ____
ROOT
ATOM      1  C   UNL     1       3.010   7.114  18.208  0.00  0.00    +0.000 A 
ATOM      2  C   UNL     1       2.344   8.332  18.093  0.00  0.00    +0.000 A 
ATOM      3  C   UNL     1       1.573   8.810  19.160  0.00  0.00    +0.000 A 
ATOM      4  C   UNL     1       0.965  10.074  19.112  0.00  0.00    +0.000 A 
ATOM      5  C   UNL     1       0.278  10.586  20.222  0.00  0.00    +0.000 A 
ATOM      6  C   UNL     1      -0.243  11.995  20.164  0.00  0.00    +0.000 C 
ATOM      7  C   UNL     1       0.151   9.786  21.370  0.00  0.00    +0.000 A 
ATOM      8  C   UNL     1      -0.532  10.250  22.627  0.00  0.00    +0.000 C 
ATOM      9  C   UNL     1       0.720   8.498  21.376  0.00  0.00    +0.000 A 
ATOM     10  C   UNL     1       1.460   8.009  20.311  0.00  0.00    +0.000 A 
ATOM     11  N   UNL     1       2.072   6.820  20.426  0.00  0.00    +0.000 NA
ATOM     12  C   UNL     1       2.840   6.430  19.399  0.00  0.00    +0.000 A 
ENDROOT
BRANCH  12  13
ATOM     13  O   UNL     1       3.489   5.266  19.642  0.00  0.00    +0.000 OA
ATOM     14  H   UNL     1       2.942   4.659  19.108  0.00  0.00    +0.000 HD
ENDBRANCH  12  13
BRANCH   1  15
ATOM     15  C   UNL     1       3.889   6.611  17.100  0.00  0.00    +0.000 C 
BRANCH  15  16
ATOM     16  C   UNL     1       5.384   6.731  17.386  0.00  0.00    +0.000 C 
BRANCH  16  17
ATOM     17  N   UNL     1       5.990   5.410  17.672  0.00  0.00    +0.000 NA
ATOM     18  H   UNL     1       6.402   5.342  18.611  0.00  0.00    +0.000 HD
BRANCH  17  19
ATOM     19  S   UNL     1       7.157   4.902  16.556  0.00  0.00    +0.000 S 
ATOM     20  O   UNL     1       8.150   4.178  17.324  0.00  0.00    +0.000 OA
ATOM     21  O   UNL     1       7.512   6.043  15.751  0.00  0.00    +0.000 OA
BRANCH  19  22
ATOM     22  C   UNL     1       6.227   3.738  15.555  0.00  0.00    +0.000 C 
BRANCH  22  24
ATOM     23  C   UNL     1       5.934   3.633  13.059  0.00  0.00    +0.000 C 
ATOM     24  C   UNL     1       5.667   4.429  14.323  0.00  0.00    +0.000 C 
ENDBRANCH  22  24
ENDBRANCH  19  22
ENDBRANCH  17  19
ENDBRANCH  16  17
ENDBRANCH  15  16
ENDBRANCH   1  15
TORSDOF 7
ENDMDL
MODEL 7
REMARK VINA RESULT:      -7.4      3.585      3.960
REMARK  Name = 
REMARK  10 active torsions:
REMARK  status: ('A' for Active; 'I' for Inactive)
REMARK    1  A    between atoms: C_1  and  C_2
REMARK    2  A    between atoms: C_2  and  C_3
REMARK    3  A    between atoms: C_3  and  S_4
REMARK    4  A    between atoms: S_4  and  N_7
REMARK    5  A    between atoms: N_7  and  C_8
REMARK    6  A    between atoms: C_8  and  C_9
REMARK    7  A    between atoms: C_9  and  C_10
REMARK    8  A    between atoms: C_14  and  C_15
REMARK    9  A    between atoms: C_16  and  C_17
REMARK   10  A    between atoms: C_21  and  O_22
REMARK                            x       y       z     vdW  Elec       q    Type
REMARK                         _______ _______ _______ _____ _____    ______ ____
ROOT
ATOM      1  C   UNL     1       4.674   4.843  18.145  0.00  0.00    +0.000 A 
ATOM      2  C   UNL     1       4.101   6.036  17.710  0.00  0.00    +0.000 A 
ATOM      3  C   UNL     1       3.156   6.691  18.510  0.00  0.00    +0.000 A 
ATOM      4  C   UNL     1       2.629   7.939  18.143  0.00  0.00    +0.000 A 
ATOM      5  C   UNL     1       1.759   8.633  18.997  0.00  0.00    +0.000 A 
ATOM      6  C   UNL     1       1.327  10.021  18.617  0.00  0.00    +0.000 C 
ATOM      7  C   UNL     1       1.369   8.031  20.205  0.00  0.00    +0.000 A 
ATOM      8  C   UNL     1       0.473   8.700  21.209  0.00  0.00    +0.000 C 
ATOM      9  C   UNL     1       1.866   6.752  20.526  0.00  0.00    +0.000 A 
ATOM     10  C   UNL     1       2.779   6.087  19.723  0.00  0.00    +0.000 A 
ATOM     11  N   UNL     1       3.300   4.923  20.143  0.00  0.00    +0.000 NA
ATOM     12  C   UNL     1       4.237   4.363  19.367  0.00  0.00    +0.000 A 
ENDROOT
BRANCH  12  13
ATOM     13  O   UNL     1       4.770   3.244  19.915  0.00  0.00    +0.000 OA
ATOM     14  H   UNL     1       5.392   3.650  20.547  0.00  0.00    +0.000 HD
ENDBRANCH  12  13
BRANCH   1  15
ATOM     15  C   UNL     1       5.730   4.155  17.331  0.00  0.00    +0.000 C 
BRANCH  15  16
ATOM     16  C   UNL     1       6.969   5.010  17.068  0.00  0.00    +0.000 C 
BRANCH  16  17
ATOM     17  N   UNL     1       7.679   4.575  15.843  0.00  0.00    +0.000 NA
ATOM     18  H   UNL     1       8.674   4.829  15.833  0.00  0.00    +0.000 HD
BRANCH  17  19
ATOM     19  S   UNL     1       6.993   5.108  14.391  0.00  0.00    +0.000 S 
ATOM     20  O   UNL     1       8.104   5.520  13.556  0.00  0.00    +0.000 OA
ATOM     21  O   UNL     1       5.925   6.017  14.724  0.00  0.00    +0.000 OA
BRANCH  19  22
ATOM     22  C   UNL     1       6.295   3.592  13.733  0.00  0.00    +0.000 C 
BRANCH  22  24
ATOM     23  C   UNL     1       4.851   3.212  11.708  0.00  0.00    +0.000 C 
ATOM     24  C   UNL     1       6.207   3.664  12.217  0.00  0.00    +0.000 C 
ENDBRANCH  22  24
ENDBRANCH  19  22
ENDBRANCH  17  19
ENDBRANCH  16  17
ENDBRANCH  15  16
ENDBRANCH   1  15
TORSDOF 7
ENDMDL
MODEL 8
REMARK VINA RESULT:      -7.4      3.519      6.948
REMARK  Name = 
REMARK  10 active torsions:
REMARK  status: ('A' for Active; 'I' for Inactive)
REMARK    1  A    between atoms: C_1  and  C_2
REMARK    2  A    between atoms: C_2  and  C_3
REMARK    3  A    between atoms: C_3  and  S_4
REMARK    4  A    between atoms: S_4  and  N_7
REMARK    5  A    between atoms: N_7  and  C_8
REMARK    6  A    between atoms: C_8  and  C_9
REMARK    7  A    between atoms: C_9  and  C_10
REMARK    8  A    between atoms: C_14  and  C_15
REMARK    9  A    between atoms: C_16  and  C_17
REMARK   10  A    between atoms: C_21  and  O_22
REMARK                            x       y       z     vdW  Elec       q    Type
REMARK                         _______ _______ _______ _____ _____    ______ ____
ROOT
ATOM      1  C   UNL     1       5.749   4.210  17.967  0.00  0.00    +0.000 A 
ATOM      2  C   UNL     1       5.000   3.927  16.827  0.00  0.00    +0.000 A 
ATOM      3  C   UNL     1       5.557   4.126  15.558  0.00  0.00    +0.000 A 
ATOM      4  C   UNL     1       4.865   3.765  14.392  0.00  0.00    +0.000 A 
ATOM      5  C   UNL     1       5.469   3.877  13.131  0.00  0.00    +0.000 A 
ATOM      6  C   UNL     1       4.734   3.355  11.928  0.00  0.00    +0.000 C 
ATOM      7  C   UNL     1       6.761   4.418  13.043  0.00  0.00    +0.000 A 
ATOM      8  C   UNL     1       7.515   4.549  11.748  0.00  0.00    +0.000 C 
ATOM      9  C   UNL     1       7.416   4.828  14.220  0.00  0.00    +0.000 A 
ATOM     10  C   UNL     1       6.857   4.659  15.477  0.00  0.00    +0.000 A 
ATOM     11  N   UNL     1       7.580   4.965  16.566  0.00  0.00    +0.000 NA
ATOM     12  C   UNL     1       7.023   4.707  17.757  0.00  0.00    +0.000 A 
ENDROOT
BRANCH  12  13
ATOM     13  O   UNL     1       7.860   4.960  18.793  0.00  0.00    +0.000 OA
ATOM     14  H   UNL     1       7.582   5.870  19.010  0.00  0.00    +0.000 HD
ENDBRANCH  12  13
BRANCH   1  15
ATOM     15  C   UNL     1       5.193   3.948  19.337  0.00  0.00    +0.000 C 
BRANCH  15  16
ATOM     16  C   UNL     1       4.321   2.698  19.426  0.00  0.00    +0.000 C 
BRANCH  16  17
ATOM     17  N   UNL     1       3.456   2.724  20.629  0.00  0.00    +0.000 NA
ATOM     18  H   UNL     1       3.597   1.921  21.253  0.00  0.00    +0.000 HD
BRANCH  17  19
ATOM     19  S   UNL     1       1.798   2.851  20.314  0.00  0.00    +0.000 S 
ATOM     20  O   UNL     1       1.134   2.571  21.572  0.00  0.00    +0.000 OA
ATOM     21  O   UNL     1       1.521   2.079  19.129  0.00  0.00    +0.000 OA
BRANCH  19  22
ATOM     22  C   UNL     1       1.626   4.597  19.937  0.00  0.00    +0.000 C 
BRANCH  22  24
ATOM     23  C   UNL     1       2.407   6.164  18.131  0.00  0.00    +0.000 C 
ATOM     24  C   UNL     1       1.753   4.831  18.441  0.00  0.00    +0.000 C 
ENDBRANCH  22  24
ENDBRANCH  19  22
ENDBRANCH  17  19
ENDBRANCH  16  17
ENDBRANCH  15  16
ENDBRANCH   1  15
TORSDOF 7
ENDMDL
MODEL 9
REMARK VINA RESULT:      -7.4      1.212      1.227
REMARK  Name = 
REMARK  10 active torsions:
REMARK  status: ('A' for Active; 'I' for Inactive)
REMARK    1  A    between atoms: C_1  and  C_2
REMARK    2  A    between atoms: C_2  and  C_3
REMARK    3  A    between atoms: C_3  and  S_4
REMARK    4  A    between atoms: S_4  and  N_7
REMARK    5  A    between atoms: N_7  and  C_8
REMARK    6  A    between atoms: C_8  and  C_9
REMARK    7  A    between atoms: C_9  and  C_10
REMARK    8  A    between atoms: C_14  and  C_15
REMARK    9  A    between atoms: C_16  and  C_17
REMARK   10  A    between atoms: C_21  and  O_22
REMARK                            x       y       z     vdW  Elec       q    Type
REMARK                         _______ _______ _______ _____ _____    ______ ____
ROOT
ATOM      1  C   UNL     1       5.341   5.239  15.952  0.00  0.00    +0.000 A 
ATOM      2  C   UNL     1       4.337   4.296  16.159  0.00  0.00    +0.000 A 
ATOM      3  C   UNL     1       3.740   4.177  17.420  0.00  0.00    +0.000 A 
ATOM      4  C   UNL     1       2.664   3.302  17.639  0.00  0.00    +0.000 A 
ATOM      5  C   UNL     1       2.008   3.261  18.878  0.00  0.00    +0.000 A 
ATOM      6  C   UNL     1       0.782   2.404  19.019  0.00  0.00    +0.000 C 
ATOM      7  C   UNL     1       2.485   4.066  19.925  0.00  0.00    +0.000 A 
ATOM      8  C   UNL     1       1.836   4.127  21.280  0.00  0.00    +0.000 C 
ATOM      9  C   UNL     1       3.602   4.894  19.701  0.00  0.00    +0.000 A 
ATOM     10  C   UNL     1       4.215   4.994  18.462  0.00  0.00    +0.000 A 
ATOM     11  N   UNL     1       5.202   5.887  18.286  0.00  0.00    +0.000 NA
ATOM     12  C   UNL     1       5.705   6.001  17.049  0.00  0.00    +0.000 A 
ENDROOT
BRANCH  12  13
ATOM     13  O   UNL     1       6.627   6.987  16.947  0.00  0.00    +0.000 OA
ATOM     14  H   UNL     1       6.086   7.749  17.227  0.00  0.00    +0.000 HD
ENDBRANCH  12  13
BRANCH   1  15
ATOM     15  C   UNL     1       5.954   5.425  14.594  0.00  0.00    +0.000 C 
BRANCH  15  16
ATOM     16  C   UNL     1       6.940   4.327  14.201  0.00  0.00    +0.000 C 
BRANCH  16  17
ATOM     17  N   UNL     1       6.243   3.150  13.631  0.00  0.00    +0.000 NA
ATOM     18  H   UNL     1       6.679   2.254  13.881  0.00  0.00    +0.000 HD
BRANCH  17  19
ATOM     19  S   UNL     1       6.045   3.180  11.950  0.00  0.00    +0.000 S 
ATOM     20  O   UNL     1       6.037   1.794  11.529  0.00  0.00    +0.000 OA
ATOM     21  O   UNL     1       6.997   4.123  11.419  0.00  0.00    +0.000 OA
BRANCH  19  22
ATOM     22  C   UNL     1       4.390   3.853  11.785  0.00  0.00    +0.000 C 
BRANCH  22  24
ATOM     23  C   UNL     1       3.000   4.134   9.708  0.00  0.00    +0.000 C 
ATOM     24  C   UNL     1       3.641   3.148  10.666  0.00  0.00    +0.000 C 
ENDBRANCH  22  24
ENDBRANCH  19  22
ENDBRANCH  17  19
ENDBRANCH  16  17
ENDBRANCH  15  16
ENDBRANCH   1  15
TORSDOF 7
ENDMDL
