MODEL 1
REMARK VINA RESULT:      -7.7      0.000      0.000
REMARK  Name = 
REMARK  6 active torsions:
REMARK  status: ('A' for Active; 'I' for Inactive)
REMARK    1  A    between atoms: N_10  and  C_11
REMARK    2  A    between atoms: C_11  and  C_12
REMARK    3  A    between atoms: C_12  and  O_13
REMARK    4  A    between atoms: O_13  and  C_14
REMARK    5  A    between atoms: C_14  and  C_15
REMARK    6  A    between atoms: C_15  and  N_16
REMARK                            x       y       z     vdW  Elec       q    Type
REMARK                         _______ _______ _______ _____ _____    ______ ____
ROOT
ATOM      1  O   UNL     1       2.676   3.211  20.460  0.00  0.00    +0.000 OA
ENDROOT
BRANCH   1   2
ATOM      2  C   UNL     1       3.757   2.654  19.694  0.00  0.00    +0.000 C 
BRANCH   2   3
ATOM      3  C   UNL     1       3.960   3.283  18.312  0.00  0.00    +0.000 C 
BRANCH   3  13
ATOM      4  C   UNL     1       6.862   4.825  14.417  0.00  0.00    +0.000 A 
ATOM      5  C   UNL     1       5.692   4.082  14.503  0.00  0.00    +0.000 A 
ATOM      6  C   UNL     1       5.108   3.865  15.757  0.00  0.00    +0.000 A 
ATOM      7  C   UNL     1       5.676   4.388  16.936  0.00  0.00    +0.000 A 
ATOM      8  C   UNL     1       6.874   5.153  16.821  0.00  0.00    +0.000 A 
ATOM      9  C   UNL     1       7.451   5.352  15.561  0.00  0.00    +0.000 A 
ATOM     10  C   UNL     1       7.453   5.714  17.955  0.00  0.00    +0.000 A 
ATOM     11  C   UNL     1       6.841   5.547  19.182  0.00  0.00    +0.000 A 
ATOM     12  C   UNL     1       5.678   4.803  19.264  0.00  0.00    +0.000 A 
ATOM     13  N   UNL     1       5.128   4.206  18.181  0.00  0.00    +0.000 N 
ENDBRANCH   3  13
ENDBRANCH   2   3
ENDBRANCH   1   2
BRANCH   1  14
ATOM     14  C   UNL     1       1.948   4.293  19.859  0.00  0.00    +0.000 C 
BRANCH  14  15
ATOM     15  C   UNL     1       2.105   5.639  20.568  0.00  0.00    +0.000 C 
BRANCH  15  16
ATOM     16  N   UNL     1       2.116   6.863  19.700  0.00  0.00    +0.000 N 
ATOM     17  C   UNL     1       2.726   6.855  18.488  0.00  0.00    +0.000 A 
ATOM     18  C   UNL     1       2.729   7.968  17.663  0.00  0.00    +0.000 A 
ATOM     19  C   UNL     1       2.085   9.118  18.073  0.00  0.00    +0.000 A 
ATOM     20  C   UNL     1       1.459   9.146  19.314  0.00  0.00    +0.000 A 
ATOM     21  C   UNL     1       0.794  10.309  19.738  0.00  0.00    +0.000 A 
ATOM     22  C   UNL     1       0.169  10.360  20.976  0.00  0.00    +0.000 A 
ATOM     23  C   UNL     1       0.229   9.267  21.828  0.00  0.00    +0.000 A 
ATOM     24  C   UNL     1       0.882   8.095  21.421  0.00  0.00    +0.000 A 
ATOM     25  C   UNL     1       1.487   8.001  20.161  0.00  0.00    +0.000 A 
ENDBRANCH  15  16
ENDBRANCH  14  15
ENDBRANCH   1  14
TORSDOF 6
ENDMDL
MODEL 2
REMARK VINA RESULT:      -7.7      0.369      6.961
REMARK  Name = 
REMARK  6 active torsions:
REMARK  status: ('A' for Active; 'I' for Inactive)
REMARK    1  A    between atoms: N_10  and  C_11
REMARK    2  A    between atoms: C_11  and  C_12
REMARK    3  A    between atoms: C_12  and  O_13
REMARK    4  A    between atoms: O_13  and  C_14
REMARK    5  A    between atoms: C_14  and  C_15
REMARK    6  A    between atoms: C_15  and  N_16
REMARK                            x       y       z     vdW  Elec       q    Type
REMARK                         _______ _______ _______ _____ _____    ______ ____
ROOT
ATOM      1  O   UNL     1       1.963   3.443  20.083  0.00  0.00    +0.000 OA
ENDROOT
BRANCH   1   2
ATOM      2  C   UNL     1       1.318   4.720  20.217  0.00  0.00    +0.000 C 
BRANCH   2   3
ATOM      3  C   UNL     1       2.243   5.873  20.618  0.00  0.00    +0.000 C 
BRANCH   3  13
ATOM      4  C   UNL     1       0.131  10.477  21.178  0.00  0.00    +0.000 A 
ATOM      5  C   UNL     1       0.320   9.400  22.035  0.00  0.00    +0.000 A 
ATOM      6  C   UNL     1       0.995   8.265  21.570  0.00  0.00    +0.000 A 
ATOM      7  C   UNL     1       1.492   8.189  20.253  0.00  0.00    +0.000 A 
ATOM      8  C   UNL     1       1.291   9.310  19.396  0.00  0.00    +0.000 A 
ATOM      9  C   UNL     1       0.606  10.434  19.872  0.00  0.00    +0.000 A 
ATOM     10  C   UNL     1       1.793   9.291  18.098  0.00  0.00    +0.000 A 
ATOM     11  C   UNL     1       2.509   8.192  17.663  0.00  0.00    +0.000 A 
ATOM     12  C   UNL     1       2.691   7.121  18.517  0.00  0.00    +0.000 A 
ATOM     13  N   UNL     1       2.166   7.098  19.765  0.00  0.00    +0.000 N 
ENDBRANCH   3  13
ENDBRANCH   2   3
ENDBRANCH   1   2
BRANCH   1  14
ATOM     14  C   UNL     1       3.389   3.455  19.913  0.00  0.00    +0.000 C 
BRANCH  14  15
ATOM     15  C   UNL     1       3.857   3.626  18.467  0.00  0.00    +0.000 C 
BRANCH  15  16
ATOM     16  N   UNL     1       5.130   4.391  18.255  0.00  0.00    +0.000 N 
ATOM     17  C   UNL     1       5.781   4.968  19.297  0.00  0.00    +0.000 A 
ATOM     18  C   UNL     1       6.969   5.661  19.124  0.00  0.00    +0.000 A 
ATOM     19  C   UNL     1       7.519   5.760  17.862  0.00  0.00    +0.000 A 
ATOM     20  C   UNL     1       6.864   5.179  16.783  0.00  0.00    +0.000 A 
ATOM     21  C   UNL     1       7.419   5.268  15.495  0.00  0.00    +0.000 A 
ATOM     22  C   UNL     1       6.777   4.702  14.403  0.00  0.00    +0.000 A 
ATOM     23  C   UNL     1       5.554   4.070  14.569  0.00  0.00    +0.000 A 
ATOM     24  C   UNL     1       4.985   3.965  15.847  0.00  0.00    +0.000 A 
ATOM     25  C   UNL     1       5.630   4.493  16.973  0.00  0.00    +0.000 A 
ENDBRANCH  15  16
ENDBRANCH  14  15
ENDBRANCH   1  14
TORSDOF 6
ENDMDL
MODEL 3
REMARK VINA RESULT:      -7.4      1.001      6.395
REMARK  Name = 
REMARK  6 active torsions:
REMARK  status: ('A' for Active; 'I' for Inactive)
REMARK    1  A    between atoms: N_10  and  C_11
REMARK    2  A    between atoms: C_11  and  C_12
REMARK    3  A    between atoms: C_12  and  O_13
REMARK    4  A    between atoms: O_13  and  C_14
REMARK    5  A    between atoms: C_14  and  C_15
REMARK    6  A    between atoms: C_15  and  N_16
REMARK                            x       y       z     vdW  Elec       q    Type
REMARK                         _______ _______ _______ _____ _____    ______ ____
ROOT
ATOM      1  O   UNL     1       2.305   3.730  19.424  0.00  0.00    +0.000 OA
ENDROOT
BRANCH   1   2
ATOM      2  C   UNL     1       1.378   4.552  20.153  0.00  0.00    +0.000 C 
BRANCH   2   3
ATOM      3  C   UNL     1       1.972   5.837  20.735  0.00  0.00    +0.000 C 
BRANCH   3  13
ATOM      4  C   UNL     1       0.105  10.573  20.497  0.00  0.00    +0.000 A 
ATOM      5  C   UNL     1       0.066   9.576  21.465  0.00  0.00    +0.000 A 
ATOM      6  C   UNL     1       0.736   8.369  21.232  0.00  0.00    +0.000 A 
ATOM      7  C   UNL     1       1.454   8.141  20.040  0.00  0.00    +0.000 A 
ATOM      8  C   UNL     1       1.483   9.181  19.066  0.00  0.00    +0.000 A 
ATOM      9  C   UNL     1       0.801  10.379  19.309  0.00  0.00    +0.000 A 
ATOM     10  C   UNL     1       2.205   9.011  17.888  0.00  0.00    +0.000 A 
ATOM     11  C   UNL     1       2.912   7.841  17.689  0.00  0.00    +0.000 A 
ATOM     12  C   UNL     1       2.868   6.850  18.652  0.00  0.00    +0.000 A 
ATOM     13  N   UNL     1       2.129   6.975  19.780  0.00  0.00    +0.000 N 
ENDBRANCH   3  13
ENDBRANCH   2   3
ENDBRANCH   1   2
BRANCH   1  14
ATOM     14  C   UNL     1       3.469   3.283  20.137  0.00  0.00    +0.000 C 
BRANCH  14  15
ATOM     15  C   UNL     1       4.663   2.926  19.249  0.00  0.00    +0.000 C 
BRANCH  15  16
ATOM     16  N   UNL     1       4.927   3.826  18.078  0.00  0.00    +0.000 N 
ATOM     17  C   UNL     1       4.212   3.708  16.930  0.00  0.00    +0.000 A 
ATOM     18  C   UNL     1       4.426   4.544  15.846  0.00  0.00    +0.000 A 
ATOM     19  C   UNL     1       5.383   5.534  15.931  0.00  0.00    +0.000 A 
ATOM     20  C   UNL     1       6.128   5.667  17.097  0.00  0.00    +0.000 A 
ATOM     21  C   UNL     1       7.100   6.677  17.198  0.00  0.00    +0.000 A 
ATOM     22  C   UNL     1       7.860   6.822  18.350  0.00  0.00    +0.000 A 
ATOM     23  C   UNL     1       7.690   5.939  19.406  0.00  0.00    +0.000 A 
ATOM     24  C   UNL     1       6.722   4.928  19.329  0.00  0.00    +0.000 A 
ATOM     25  C   UNL     1       5.914   4.784  18.194  0.00  0.00    +0.000 A 
ENDBRANCH  15  16
ENDBRANCH  14  15
ENDBRANCH   1  14
TORSDOF 6
ENDMDL
MODEL 4
REMARK VINA RESULT:      -7.4      3.221      8.336
REMARK  Name = 
REMARK  6 active torsions:
REMARK  status: ('A' for Active; 'I' for Inactive)
REMARK    1  A    between atoms: N_10  and  C_11
REMARK    2  A    between atoms: C_11  and  C_12
REMARK    3  A    between atoms: C_12  and  O_13
REMARK    4  A    between atoms: O_13  and  C_14
REMARK    5  A    between atoms: C_14  and  C_15
REMARK    6  A    between atoms: C_15  and  N_16
REMARK                            x       y       z     vdW  Elec       q    Type
REMARK                         _______ _______ _______ _____ _____    ______ ____
ROOT
ATOM      1  O   UNL     1       2.184   9.675  17.533  0.00  0.00    +0.000 OA
ENDROOT
BRANCH   1   2
ATOM      2  C   UNL     1       1.480  10.581  18.398  0.00  0.00    +0.000 C 
BRANCH   2   3
ATOM      3  C   UNL     1       0.396   9.936  19.267  0.00  0.00    +0.000 C 
BRANCH   3  13
ATOM      4  C   UNL     1      -3.746  10.724  16.403  0.00  0.00    +0.000 A 
ATOM      5  C   UNL     1      -2.654   9.872  16.294  0.00  0.00    +0.000 A 
ATOM      6  C   UNL     1      -1.682   9.869  17.301  0.00  0.00    +0.000 A 
ATOM      7  C   UNL     1      -1.786  10.709  18.428  0.00  0.00    +0.000 A 
ATOM      8  C   UNL     1      -2.918  11.570  18.521  0.00  0.00    +0.000 A 
ATOM      9  C   UNL     1      -3.877  11.568  17.501  0.00  0.00    +0.000 A 
ATOM     10  C   UNL     1      -3.077  12.394  19.632  0.00  0.00    +0.000 A 
ATOM     11  C   UNL     1      -2.145  12.346  20.650  0.00  0.00    +0.000 A 
ATOM     12  C   UNL     1      -1.058  11.499  20.536  0.00  0.00    +0.000 A 
ATOM     13  N   UNL     1      -0.858  10.729  19.440  0.00  0.00    +0.000 N 
ENDBRANCH   3  13
ENDBRANCH   2   3
ENDBRANCH   1   2
BRANCH   1  14
ATOM     14  C   UNL     1       1.875   8.279  17.672  0.00  0.00    +0.000 C 
BRANCH  14  15
ATOM     15  C   UNL     1       2.923   7.467  18.435  0.00  0.00    +0.000 C 
BRANCH  15  16
ATOM     16  N   UNL     1       3.546   6.314  17.706  0.00  0.00    +0.000 N 
ATOM     17  C   UNL     1       4.624   6.495  16.901  0.00  0.00    +0.000 A 
ATOM     18  C   UNL     1       5.227   5.439  16.237  0.00  0.00    +0.000 A 
ATOM     19  C   UNL     1       4.730   4.162  16.402  0.00  0.00    +0.000 A 
ATOM     20  C   UNL     1       3.624   3.958  17.218  0.00  0.00    +0.000 A 
ATOM     21  C   UNL     1       3.116   2.660  17.400  0.00  0.00    +0.000 A 
ATOM     22  C   UNL     1       2.008   2.436  18.205  0.00  0.00    +0.000 A 
ATOM     23  C   UNL     1       1.365   3.505  18.812  0.00  0.00    +0.000 A 
ATOM     24  C   UNL     1       1.860   4.807  18.649  0.00  0.00    +0.000 A 
ATOM     25  C   UNL     1       3.000   5.057  17.875  0.00  0.00    +0.000 A 
ENDBRANCH  15  16
ENDBRANCH  14  15
ENDBRANCH   1  14
TORSDOF 6
ENDMDL
MODEL 5
REMARK VINA RESULT:      -7.3      2.514      8.432
REMARK  Name = 
REMARK  6 active torsions:
REMARK  status: ('A' for Active; 'I' for Inactive)
REMARK    1  A    between atoms: N_10  and  C_11
REMARK    2  A    between atoms: C_11  and  C_12
REMARK    3  A    between atoms: C_12  and  O_13
REMARK    4  A    between atoms: O_13  and  C_14
REMARK    5  A    between atoms: C_14  and  C_15
REMARK    6  A    between atoms: C_15  and  N_16
REMARK                            x       y       z     vdW  Elec       q    Type
REMARK                         _______ _______ _______ _____ _____    ______ ____
ROOT
ATOM      1  O   UNL     1       2.081   9.687  17.502  0.00  0.00    +0.000 OA
ENDROOT
BRANCH   1   2
ATOM      2  C   UNL     1       1.598  10.608  18.494  0.00  0.00    +0.000 C 
BRANCH   2   3
ATOM      3  C   UNL     1       0.142  10.395  18.919  0.00  0.00    +0.000 C 
BRANCH   3  13
ATOM      4  C   UNL     1      -2.552  12.825  22.498  0.00  0.00    +0.000 A 
ATOM      5  C   UNL     1      -2.464  12.949  21.117  0.00  0.00    +0.000 A 
ATOM      6  C   UNL     1      -1.639  12.073  20.401  0.00  0.00    +0.000 A 
ATOM      7  C   UNL     1      -0.898  11.063  21.048  0.00  0.00    +0.000 A 
ATOM      8  C   UNL     1      -1.010  10.952  22.465  0.00  0.00    +0.000 A 
ATOM      9  C   UNL     1      -1.832  11.842  23.168  0.00  0.00    +0.000 A 
ATOM     10  C   UNL     1      -0.320   9.950  23.141  0.00  0.00    +0.000 A 
ATOM     11  C   UNL     1       0.447   9.052  22.424  0.00  0.00    +0.000 A 
ATOM     12  C   UNL     1       0.535   9.182  21.051  0.00  0.00    +0.000 A 
ATOM     13  N   UNL     1      -0.086  10.181  20.380  0.00  0.00    +0.000 N 
ENDBRANCH   3  13
ENDBRANCH   2   3
ENDBRANCH   1   2
BRANCH   1  14
ATOM     14  C   UNL     1       1.758   8.301  17.695  0.00  0.00    +0.000 C 
BRANCH  14  15
ATOM     15  C   UNL     1       2.798   7.509  18.490  0.00  0.00    +0.000 C 
BRANCH  15  16
ATOM     16  N   UNL     1       3.501   6.400  17.765  0.00  0.00    +0.000 N 
ATOM     17  C   UNL     1       4.603   6.645  17.012  0.00  0.00    +0.000 A 
ATOM     18  C   UNL     1       5.279   5.630  16.353  0.00  0.00    +0.000 A 
ATOM     19  C   UNL     1       4.831   4.330  16.469  0.00  0.00    +0.000 A 
ATOM     20  C   UNL     1       3.701   4.061  17.232  0.00  0.00    +0.000 A 
ATOM     21  C   UNL     1       3.241   2.740  17.364  0.00  0.00    +0.000 A 
ATOM     22  C   UNL     1       2.110   2.451  18.115  0.00  0.00    +0.000 A 
ATOM     23  C   UNL     1       1.397   3.478  18.716  0.00  0.00    +0.000 A 
ATOM     24  C   UNL     1       1.842   4.803  18.602  0.00  0.00    +0.000 A 
ATOM     25  C   UNL     1       3.002   5.118  17.883  0.00  0.00    +0.000 A 
ENDBRANCH  15  16
ENDBRANCH  14  15
ENDBRANCH   1  14
TORSDOF 6
ENDMDL
MODEL 6
REMARK VINA RESULT:      -7.3      0.962      1.198
REMARK  Name = 
REMARK  6 active torsions:
REMARK  status: ('A' for Active; 'I' for Inactive)
REMARK    1  A    between atoms: N_10  and  C_11
REMARK    2  A    between atoms: C_11  and  C_12
REMARK    3  A    between atoms: C_12  and  O_13
REMARK    4  A    between atoms: O_13  and  C_14
REMARK    5  A    between atoms: C_14  and  C_15
REMARK    6  A    between atoms: C_15  and  N_16
REMARK                            x       y       z     vdW  Elec       q    Type
REMARK                         _______ _______ _______ _____ _____    ______ ____
ROOT
ATOM      1  O   UNL     1       2.299   5.057  17.963  0.00  0.00    +0.000 OA
ENDROOT
BRANCH   1   2
ATOM      2  C   UNL     1       2.546   3.673  17.662  0.00  0.00    +0.000 C 
BRANCH   2   3
ATOM      3  C   UNL     1       3.895   3.136  18.149  0.00  0.00    +0.000 C 
BRANCH   3  13
ATOM      4  C   UNL     1       6.949   4.802  14.425  0.00  0.00    +0.000 A 
ATOM      5  C   UNL     1       5.799   4.023  14.443  0.00  0.00    +0.000 A 
ATOM      6  C   UNL     1       5.157   3.777  15.662  0.00  0.00    +0.000 A 
ATOM      7  C   UNL     1       5.646   4.306  16.874  0.00  0.00    +0.000 A 
ATOM      8  C   UNL     1       6.824   5.107  16.829  0.00  0.00    +0.000 A 
ATOM      9  C   UNL     1       7.461   5.336  15.603  0.00  0.00    +0.000 A 
ATOM     10  C   UNL     1       7.325   5.674  17.997  0.00  0.00    +0.000 A 
ATOM     11  C   UNL     1       6.655   5.477  19.188  0.00  0.00    +0.000 A 
ATOM     12  C   UNL     1       5.513   4.698  19.202  0.00  0.00    +0.000 A 
ATOM     13  N   UNL     1       5.039   4.095  18.087  0.00  0.00    +0.000 N 
ENDBRANCH   3  13
ENDBRANCH   2   3
ENDBRANCH   1   2
BRANCH   1  14
ATOM     14  C   UNL     1       1.805   5.353  19.279  0.00  0.00    +0.000 C 
BRANCH  14  15
ATOM     15  C   UNL     1       2.450   6.570  19.944  0.00  0.00    +0.000 C 
BRANCH  15  16
ATOM     16  N   UNL     1       1.980   7.919  19.485  0.00  0.00    +0.000 N 
ATOM     17  C   UNL     1       2.229   8.354  18.224  0.00  0.00    +0.000 A 
ATOM     18  C   UNL     1       1.785   9.588  17.775  0.00  0.00    +0.000 A 
ATOM     19  C   UNL     1       1.058  10.397  18.625  0.00  0.00    +0.000 A 
ATOM     20  C   UNL     1       0.799   9.969  19.921  0.00  0.00    +0.000 A 
ATOM     21  C   UNL     1       0.053  10.783  20.792  0.00  0.00    +0.000 A 
ATOM     22  C   UNL     1      -0.211  10.378  22.093  0.00  0.00    +0.000 A 
ATOM     23  C   UNL     1       0.295   9.173  22.560  0.00  0.00    +0.000 A 
ATOM     24  C   UNL     1       1.036   8.344  21.705  0.00  0.00    +0.000 A 
ATOM     25  C   UNL     1       1.284   8.710  20.376  0.00  0.00    +0.000 A 
ENDBRANCH  15  16
ENDBRANCH  14  15
ENDBRANCH   1  14
TORSDOF 6
ENDMDL
MODEL 7
REMARK VINA RESULT:      -7.2      2.424      8.359
REMARK  Name = 
REMARK  6 active torsions:
REMARK  status: ('A' for Active; 'I' for Inactive)
REMARK    1  A    between atoms: N_10  and  C_11
REMARK    2  A    between atoms: C_11  and  C_12
REMARK    3  A    between atoms: C_12  and  O_13
REMARK    4  A    between atoms: O_13  and  C_14
REMARK    5  A    between atoms: C_14  and  C_15
REMARK    6  A    between atoms: C_15  and  N_16
REMARK                            x       y       z     vdW  Elec       q    Type
REMARK                         _______ _______ _______ _____ _____    ______ ____
ROOT
ATOM      1  O   UNL     1       2.117   9.368  17.906  0.00  0.00    +0.000 OA
ENDROOT
BRANCH   1   2
ATOM      2  C   UNL     1       0.881  10.043  18.193  0.00  0.00    +0.000 C 
BRANCH   2   3
ATOM      3  C   UNL     1       0.951  11.062  19.334  0.00  0.00    +0.000 C 
BRANCH   3  13
ATOM      4  C   UNL     1      -2.667  12.714  22.520  0.00  0.00    +0.000 A 
ATOM      5  C   UNL     1      -2.294  13.069  21.230  0.00  0.00    +0.000 A 
ATOM      6  C   UNL     1      -1.256  12.370  20.600  0.00  0.00    +0.000 A 
ATOM      7  C   UNL     1      -0.583  11.312  21.243  0.00  0.00    +0.000 A 
ATOM      8  C   UNL     1      -0.988  10.963  22.564  0.00  0.00    +0.000 A 
ATOM      9  C   UNL     1      -2.021  11.677  23.184  0.00  0.00    +0.000 A 
ATOM     10  C   UNL     1      -0.372   9.904  23.225  0.00  0.00    +0.000 A 
ATOM     11  C   UNL     1       0.611   9.181  22.578  0.00  0.00    +0.000 A 
ATOM     12  C   UNL     1       0.982   9.539  21.295  0.00  0.00    +0.000 A 
ATOM     13  N   UNL     1       0.432  10.598  20.656  0.00  0.00    +0.000 N 
ENDBRANCH   3  13
ENDBRANCH   2   3
ENDBRANCH   1   2
BRANCH   1  14
ATOM     14  C   UNL     1       2.053   7.941  17.756  0.00  0.00    +0.000 C 
BRANCH  14  15
ATOM     15  C   UNL     1       3.075   7.165  18.588  0.00  0.00    +0.000 C 
BRANCH  15  16
ATOM     16  N   UNL     1       3.302   5.731  18.213  0.00  0.00    +0.000 N 
ATOM     17  C   UNL     1       4.135   5.398  17.194  0.00  0.00    +0.000 A 
ATOM     18  C   UNL     1       4.376   4.078  16.846  0.00  0.00    +0.000 A 
ATOM     19  C   UNL     1       3.763   3.067  17.559  0.00  0.00    +0.000 A 
ATOM     20  C   UNL     1       2.903   3.389  18.602  0.00  0.00    +0.000 A 
ATOM     21  C   UNL     1       2.281   2.367  19.339  0.00  0.00    +0.000 A 
ATOM     22  C   UNL     1       1.413   2.667  20.379  0.00  0.00    +0.000 A 
ATOM     23  C   UNL     1       1.122   3.990  20.678  0.00  0.00    +0.000 A 
ATOM     24  C   UNL     1       1.737   5.025  19.960  0.00  0.00    +0.000 A 
ATOM     25  C   UNL     1       2.647   4.751  18.931  0.00  0.00    +0.000 A 
ENDBRANCH  15  16
ENDBRANCH  14  15
ENDBRANCH   1  14
TORSDOF 6
ENDMDL
MODEL 8
REMARK VINA RESULT:      -7.2      2.854      8.184
REMARK  Name = 
REMARK  6 active torsions:
REMARK  status: ('A' for Active; 'I' for Inactive)
REMARK    1  A    between atoms: N_10  and  C_11
REMARK    2  A    between atoms: C_11  and  C_12
REMARK    3  A    between atoms: C_12  and  O_13
REMARK    4  A    between atoms: O_13  and  C_14
REMARK    5  A    between atoms: C_14  and  C_15
REMARK    6  A    between atoms: C_15  and  N_16
REMARK                            x       y       z     vdW  Elec       q    Type
REMARK                         _______ _______ _______ _____ _____    ______ ____
ROOT
ATOM      1  O   UNL     1       2.290   8.613  17.225  0.00  0.00    +0.000 OA
ENDROOT
BRANCH   1   2
ATOM      2  C   UNL     1       1.897   9.818  17.903  0.00  0.00    +0.000 C 
BRANCH   2   3
ATOM      3  C   UNL     1       0.406   9.915  18.238  0.00  0.00    +0.000 C 
BRANCH   3  13
ATOM      4  C   UNL     1      -0.747  10.025  23.201  0.00  0.00    +0.000 A 
ATOM      5  C   UNL     1      -0.251   9.041  22.354  0.00  0.00    +0.000 A 
ATOM      6  C   UNL     1       0.004   9.354  21.014  0.00  0.00    +0.000 A 
ATOM      7  C   UNL     1      -0.225  10.647  20.502  0.00  0.00    +0.000 A 
ATOM      8  C   UNL     1      -0.727  11.641  21.391  0.00  0.00    +0.000 A 
ATOM      9  C   UNL     1      -0.987  11.310  22.727  0.00  0.00    +0.000 A 
ATOM     10  C   UNL     1      -0.939  12.939  20.936  0.00  0.00    +0.000 A 
ATOM     11  C   UNL     1      -0.630  13.258  19.627  0.00  0.00    +0.000 A 
ATOM     12  C   UNL     1      -0.141  12.275  18.788  0.00  0.00    +0.000 A 
ATOM     13  N   UNL     1       0.022  10.994  19.197  0.00  0.00    +0.000 N 
ENDBRANCH   3  13
ENDBRANCH   2   3
ENDBRANCH   1   2
BRANCH   1  14
ATOM     14  C   UNL     1       3.556   8.047  17.597  0.00  0.00    +0.000 C 
BRANCH  14  15
ATOM     15  C   UNL     1       3.582   6.518  17.644  0.00  0.00    +0.000 C 
BRANCH  15  16
ATOM     16  N   UNL     1       2.786   5.862  18.733  0.00  0.00    +0.000 N 
ATOM     17  C   UNL     1       2.356   6.570  19.809  0.00  0.00    +0.000 A 
ATOM     18  C   UNL     1       1.602   5.987  20.815  0.00  0.00    +0.000 A 
ATOM     19  C   UNL     1       1.264   4.652  20.722  0.00  0.00    +0.000 A 
ATOM     20  C   UNL     1       1.700   3.911  19.630  0.00  0.00    +0.000 A 
ATOM     21  C   UNL     1       1.355   2.552  19.522  0.00  0.00    +0.000 A 
ATOM     22  C   UNL     1       1.786   1.792  18.444  0.00  0.00    +0.000 A 
ATOM     23  C   UNL     1       2.599   2.362  17.476  0.00  0.00    +0.000 A 
ATOM     24  C   UNL     1       2.949   3.717  17.561  0.00  0.00    +0.000 A 
ATOM     25  C   UNL     1       2.496   4.518  18.617  0.00  0.00    +0.000 A 
ENDBRANCH  15  16
ENDBRANCH  14  15
ENDBRANCH   1  14
TORSDOF 6
ENDMDL
MODEL 9
REMARK VINA RESULT:      -7.2      2.429      5.152
REMARK  Name = 
REMARK  6 active torsions:
REMARK  status: ('A' for Active; 'I' for Inactive)
REMARK    1  A    between atoms: N_10  and  C_11
REMARK    2  A    between atoms: C_11  and  C_12
REMARK    3  A    between atoms: C_12  and  O_13
REMARK    4  A    between atoms: O_13  and  C_14
REMARK    5  A    between atoms: C_14  and  C_15
REMARK    6  A    between atoms: C_15  and  N_16
REMARK                            x       y       z     vdW  Elec       q    Type
REMARK                         _______ _______ _______ _____ _____    ______ ____
ROOT
ATOM      1  O   UNL     1       2.499   9.593  18.147  0.00  0.00    +0.000 OA
ENDROOT
BRANCH   1   2
ATOM      2  C   UNL     1       2.042   8.240  17.985  0.00  0.00    +0.000 C 
BRANCH   2   3
ATOM      3  C   UNL     1       2.631   7.235  18.978  0.00  0.00    +0.000 C 
BRANCH   3  13
ATOM      4  C   UNL     1       1.565   2.395  20.167  0.00  0.00    +0.000 A 
ATOM      5  C   UNL     1       1.080   3.619  20.611  0.00  0.00    +0.000 A 
ATOM      6  C   UNL     1       1.564   4.799  20.034  0.00  0.00    +0.000 A 
ATOM      7  C   UNL     1       2.530   4.775  19.007  0.00  0.00    +0.000 A 
ATOM      8  C   UNL     1       3.007   3.508  18.564  0.00  0.00    +0.000 A 
ATOM      9  C   UNL     1       2.520   2.337  19.158  0.00  0.00    +0.000 A 
ATOM     10  C   UNL     1       3.937   3.436  17.531  0.00  0.00    +0.000 A 
ATOM     11  C   UNL     1       4.369   4.600  16.925  0.00  0.00    +0.000 A 
ATOM     12  C   UNL     1       3.887   5.816  17.373  0.00  0.00    +0.000 A 
ATOM     13  N   UNL     1       3.022   5.909  18.411  0.00  0.00    +0.000 N 
ENDBRANCH   3  13
ENDBRANCH   2   3
ENDBRANCH   1   2
BRANCH   1  14
ATOM     14  C   UNL     1       1.497  10.585  18.419  0.00  0.00    +0.000 C 
BRANCH  14  15
ATOM     15  C   UNL     1       0.166  10.025  18.926  0.00  0.00    +0.000 C 
BRANCH  15  16
ATOM     16  N   UNL     1      -0.053  10.045  20.410  0.00  0.00    +0.000 N 
ATOM     17  C   UNL     1       0.531   9.122  21.215  0.00  0.00    +0.000 A 
ATOM     18  C   UNL     1       0.358   9.137  22.591  0.00  0.00    +0.000 A 
ATOM     19  C   UNL     1      -0.420  10.122  23.166  0.00  0.00    +0.000 A 
ATOM     20  C   UNL     1      -1.030  11.072  22.355  0.00  0.00    +0.000 A 
ATOM     21  C   UNL     1      -1.817  12.084  22.932  0.00  0.00    +0.000 A 
ATOM     22  C   UNL     1      -2.441  13.038  22.140  0.00  0.00    +0.000 A 
ATOM     23  C   UNL     1      -2.322  12.978  20.759  0.00  0.00    +0.000 A 
ATOM     24  C   UNL     1      -1.536  11.980  20.165  0.00  0.00    +0.000 A 
ATOM     25  C   UNL     1      -0.863  11.029  20.941  0.00  0.00    +0.000 A 
ENDBRANCH  15  16
ENDBRANCH  14  15
ENDBRANCH   1  14
TORSDOF 6
ENDMDL
