MODEL 1
REMARK VINA RESULT:      -7.4      0.000      0.000
REMARK  Name = 
REMARK  6 active torsions:
REMARK  status: ('A' for Active; 'I' for Inactive)
REMARK    1  A    between atoms: C_1  and  C_2
REMARK    2  A    between atoms: C_2  and  C_3
REMARK    3  A    between atoms: C_2  and  C_4
REMARK    4  A    between atoms: C_2  and  N_5
REMARK    5  A    between atoms: C_7  and  C_8
REMARK    6  A    between atoms: C_8  and  C_10
REMARK                            x       y       z     vdW  Elec       q    Type
REMARK                         _______ _______ _______ _____ _____    ______ ____
ROOT
ATOM      1  N   UNL     1       4.900   5.253  18.209  0.00  0.00    +0.000 N 
ATOM      2  C   UNL     1       4.972   5.765  16.846  0.00  0.00    +0.000 C 
ATOM      3  C   UNL     1       6.440   6.079  16.540  0.00  0.00    +0.000 C 
ATOM      4  C   UNL     1       6.943   6.327  17.920  0.00  0.00    +0.000 C 
ATOM      5  O   UNL     1       7.920   6.985  18.223  0.00  0.00    +0.000 OA
ATOM      6  C   UNL     1       6.058   5.571  18.903  0.00  0.00    +0.000 C 
ATOM      7  O   UNL     1       6.396   5.303  20.036  0.00  0.00    +0.000 OA
ENDROOT
BRANCH   1   9
ATOM      8  C   UNL     1       3.115   3.752  17.395  0.00  0.00    +0.000 C 
ATOM      9  C   UNL     1       3.890   4.248  18.629  0.00  0.00    +0.000 C 
ATOM     10  C   UNL     1       2.890   4.858  19.635  0.00  0.00    +0.000 C 
ATOM     11  C   UNL     1       4.539   3.033  19.321  0.00  0.00    +0.000 C 
ENDBRANCH   1   9
BRANCH   3  12
ATOM     12  C   UNL     1       7.131   4.891  15.905  0.00  0.00    +0.000 C 
ATOM     13  O   UNL     1       7.867   4.141  16.544  0.00  0.00    +0.000 OA
BRANCH  12  14
ATOM     14  C   UNL     1       6.941   4.614  14.456  0.00  0.00    +0.000 A 
ATOM     15  C   UNL     1       7.762   5.296  13.546  0.00  0.00    +0.000 A 
ATOM     16  C   UNL     1       7.653   5.046  12.178  0.00  0.00    +0.000 A 
ATOM     17  C   UNL     1       6.733   4.109  11.715  0.00  0.00    +0.000 A 
ATOM     18  C   UNL     1       5.918   3.424  12.618  0.00  0.00    +0.000 A 
ATOM     19  C   UNL     1       6.016   3.677  13.988  0.00  0.00    +0.000 A 
ENDBRANCH  12  14
ENDBRANCH   3  12
TORSDOF 3
ENDMDL
MODEL 2
REMARK VINA RESULT:      -7.2      0.148      1.117
REMARK  Name = 
REMARK  6 active torsions:
REMARK  status: ('A' for Active; 'I' for Inactive)
REMARK    1  A    between atoms: C_1  and  C_2
REMARK    2  A    between atoms: C_2  and  C_3
REMARK    3  A    between atoms: C_2  and  C_4
REMARK    4  A    between atoms: C_2  and  N_5
REMARK    5  A    between atoms: C_7  and  C_8
REMARK    6  A    between atoms: C_8  and  C_10
REMARK                            x       y       z     vdW  Elec       q    Type
REMARK                         _______ _______ _______ _____ _____    ______ ____
ROOT
ATOM      1  N   UNL     1       4.901   5.248  18.189  0.00  0.00    +0.000 N 
ATOM      2  C   UNL     1       4.969   5.739  16.818  0.00  0.00    +0.000 C 
ATOM      3  C   UNL     1       6.436   6.054  16.505  0.00  0.00    +0.000 C 
ATOM      4  C   UNL     1       6.939   6.324  17.881  0.00  0.00    +0.000 C 
ATOM      5  O   UNL     1       7.914   6.991  18.172  0.00  0.00    +0.000 OA
ATOM      6  C   UNL     1       6.058   5.580  18.877  0.00  0.00    +0.000 C 
ATOM      7  O   UNL     1       6.398   5.332  20.013  0.00  0.00    +0.000 OA
ENDROOT
BRANCH   1   9
ATOM      8  C   UNL     1       2.952   3.920  17.453  0.00  0.00    +0.000 C 
ATOM      9  C   UNL     1       3.894   4.246  18.625  0.00  0.00    +0.000 C 
ATOM     10  C   UNL     1       3.056   4.783  19.805  0.00  0.00    +0.000 C 
ATOM     11  C   UNL     1       4.555   2.937  19.102  0.00  0.00    +0.000 C 
ENDBRANCH   1   9
BRANCH   3  12
ATOM     12  C   UNL     1       7.130   4.857  15.888  0.00  0.00    +0.000 C 
ATOM     13  O   UNL     1       7.859   4.112  16.542  0.00  0.00    +0.000 OA
BRANCH  12  14
ATOM     14  C   UNL     1       6.955   4.568  14.441  0.00  0.00    +0.000 A 
ATOM     15  C   UNL     1       5.921   3.698  14.066  0.00  0.00    +0.000 A 
ATOM     16  C   UNL     1       5.688   3.422  12.719  0.00  0.00    +0.000 A 
ATOM     17  C   UNL     1       6.479   4.022  11.741  0.00  0.00    +0.000 A 
ATOM     18  C   UNL     1       7.505   4.894  12.109  0.00  0.00    +0.000 A 
ATOM     19  C   UNL     1       7.750   5.165  13.457  0.00  0.00    +0.000 A 
ENDBRANCH  12  14
ENDBRANCH   3  12
TORSDOF 3
ENDMDL
MODEL 3
REMARK VINA RESULT:      -7.1      1.341      1.658
REMARK  Name = 
REMARK  6 active torsions:
REMARK  status: ('A' for Active; 'I' for Inactive)
REMARK    1  A    between atoms: C_1  and  C_2
REMARK    2  A    between atoms: C_2  and  C_3
REMARK    3  A    between atoms: C_2  and  C_4
REMARK    4  A    between atoms: C_2  and  N_5
REMARK    5  A    between atoms: C_7  and  C_8
REMARK    6  A    between atoms: C_8  and  C_10
REMARK                            x       y       z     vdW  Elec       q    Type
REMARK                         _______ _______ _______ _____ _____    ______ ____
ROOT
ATOM      1  N   UNL     1       4.534   5.697  18.275  0.00  0.00    +0.000 N 
ATOM      2  C   UNL     1       5.099   6.264  17.057  0.00  0.00    +0.000 C 
ATOM      3  C   UNL     1       6.296   5.399  16.649  0.00  0.00    +0.000 C 
ATOM      4  C   UNL     1       6.676   4.843  17.979  0.00  0.00    +0.000 C 
ATOM      5  O   UNL     1       7.772   4.421  18.295  0.00  0.00    +0.000 OA
ATOM      6  C   UNL     1       5.444   4.841  18.875  0.00  0.00    +0.000 C 
ATOM      7  O   UNL     1       5.347   4.160  19.873  0.00  0.00    +0.000 OA
ENDROOT
BRANCH   1   9
ATOM      8  C   UNL     1       2.535   7.144  18.159  0.00  0.00    +0.000 C 
ATOM      9  C   UNL     1       3.083   5.771  18.587  0.00  0.00    +0.000 C 
ATOM     10  C   UNL     1       2.833   5.583  20.099  0.00  0.00    +0.000 C 
ATOM     11  C   UNL     1       2.281   4.674  17.859  0.00  0.00    +0.000 C 
ENDBRANCH   1   9
BRANCH   3  12
ATOM     12  C   UNL     1       5.876   4.302  15.693  0.00  0.00    +0.000 C 
ATOM     13  O   UNL     1       5.168   3.359  16.045  0.00  0.00    +0.000 OA
BRANCH  12  14
ATOM     14  C   UNL     1       6.340   4.337  14.281  0.00  0.00    +0.000 A 
ATOM     15  C   UNL     1       7.392   5.206  13.957  0.00  0.00    +0.000 A 
ATOM     16  C   UNL     1       7.892   5.251  12.656  0.00  0.00    +0.000 A 
ATOM     17  C   UNL     1       7.351   4.422  11.676  0.00  0.00    +0.000 A 
ATOM     18  C   UNL     1       6.308   3.551  11.995  0.00  0.00    +0.000 A 
ATOM     19  C   UNL     1       5.796   3.509  13.294  0.00  0.00    +0.000 A 
ENDBRANCH  12  14
ENDBRANCH   3  12
TORSDOF 3
ENDMDL
MODEL 4
REMARK VINA RESULT:      -7.1      1.037      1.498
REMARK  Name = 
REMARK  6 active torsions:
REMARK  status: ('A' for Active; 'I' for Inactive)
REMARK    1  A    between atoms: C_1  and  C_2
REMARK    2  A    between atoms: C_2  and  C_3
REMARK    3  A    between atoms: C_2  and  C_4
REMARK    4  A    between atoms: C_2  and  N_5
REMARK    5  A    between atoms: C_7  and  C_8
REMARK    6  A    between atoms: C_8  and  C_10
REMARK                            x       y       z     vdW  Elec       q    Type
REMARK                         _______ _______ _______ _____ _____    ______ ____
ROOT
ATOM      1  N   UNL     1       4.217   5.151  18.484  0.00  0.00    +0.000 N 
ATOM      2  C   UNL     1       4.042   5.632  17.120  0.00  0.00    +0.000 C 
ATOM      3  C   UNL     1       5.419   5.652  16.449  0.00  0.00    +0.000 C 
ATOM      4  C   UNL     1       6.287   5.803  17.651  0.00  0.00    +0.000 C 
ATOM      5  O   UNL     1       7.414   6.259  17.671  0.00  0.00    +0.000 OA
ATOM      6  C   UNL     1       5.549   5.239  18.858  0.00  0.00    +0.000 C 
ATOM      7  O   UNL     1       6.101   4.916  19.887  0.00  0.00    +0.000 OA
ENDROOT
BRANCH   1   9
ATOM      8  C   UNL     1       1.960   4.171  18.262  0.00  0.00    +0.000 C 
ATOM      9  C   UNL     1       3.172   4.364  19.190  0.00  0.00    +0.000 C 
ATOM     10  C   UNL     1       2.708   5.088  20.473  0.00  0.00    +0.000 C 
ATOM     11  C   UNL     1       3.688   2.976  19.619  0.00  0.00    +0.000 C 
ENDBRANCH   1   9
BRANCH   3  12
ATOM     12  C   UNL     1       5.694   4.348  15.729  0.00  0.00    +0.000 C 
ATOM     13  O   UNL     1       5.445   3.254  16.234  0.00  0.00    +0.000 OA
BRANCH  12  14
ATOM     14  C   UNL     1       6.304   4.368  14.374  0.00  0.00    +0.000 A 
ATOM     15  C   UNL     1       5.748   3.534  13.392  0.00  0.00    +0.000 A 
ATOM     16  C   UNL     1       6.257   3.542  12.093  0.00  0.00    +0.000 A 
ATOM     17  C   UNL     1       7.314   4.388  11.768  0.00  0.00    +0.000 A 
ATOM     18  C   UNL     1       7.867   5.224  12.740  0.00  0.00    +0.000 A 
ATOM     19  C   UNL     1       7.368   5.213  14.045  0.00  0.00    +0.000 A 
ENDBRANCH  12  14
ENDBRANCH   3  12
TORSDOF 3
ENDMDL
MODEL 5
REMARK VINA RESULT:      -7.0      1.024      1.052
REMARK  Name = 
REMARK  6 active torsions:
REMARK  status: ('A' for Active; 'I' for Inactive)
REMARK    1  A    between atoms: C_1  and  C_2
REMARK    2  A    between atoms: C_2  and  C_3
REMARK    3  A    between atoms: C_2  and  C_4
REMARK    4  A    between atoms: C_2  and  N_5
REMARK    5  A    between atoms: C_7  and  C_8
REMARK    6  A    between atoms: C_8  and  C_10
REMARK                            x       y       z     vdW  Elec       q    Type
REMARK                         _______ _______ _______ _____ _____    ______ ____
ROOT
ATOM      1  N   UNL     1       4.248   5.211  18.461  0.00  0.00    +0.000 N 
ATOM      2  C   UNL     1       4.073   5.675  17.090  0.00  0.00    +0.000 C 
ATOM      3  C   UNL     1       5.449   5.671  16.415  0.00  0.00    +0.000 C 
ATOM      4  C   UNL     1       6.322   5.830  17.612  0.00  0.00    +0.000 C 
ATOM      5  O   UNL     1       7.454   6.275  17.623  0.00  0.00    +0.000 OA
ATOM      6  C   UNL     1       5.582   5.292  18.830  0.00  0.00    +0.000 C 
ATOM      7  O   UNL     1       6.134   4.977  19.862  0.00  0.00    +0.000 OA
ENDROOT
BRANCH   1   9
ATOM      8  C   UNL     1       1.999   4.211  18.244  0.00  0.00    +0.000 C 
ATOM      9  C   UNL     1       3.197   4.446  19.181  0.00  0.00    +0.000 C 
ATOM     10  C   UNL     1       2.711   5.215  20.429  0.00  0.00    +0.000 C 
ATOM     11  C   UNL     1       3.714   3.078  19.669  0.00  0.00    +0.000 C 
ENDBRANCH   1   9
BRANCH   3  12
ATOM     12  C   UNL     1       5.708   4.354  15.714  0.00  0.00    +0.000 C 
ATOM     13  O   UNL     1       5.520   3.269  16.263  0.00  0.00    +0.000 OA
BRANCH  12  14
ATOM     14  C   UNL     1       6.228   4.350  14.321  0.00  0.00    +0.000 A 
ATOM     15  C   UNL     1       7.316   5.184  14.025  0.00  0.00    +0.000 A 
ATOM     16  C   UNL     1       7.868   5.192  12.744  0.00  0.00    +0.000 A 
ATOM     17  C   UNL     1       7.343   4.359  11.758  0.00  0.00    +0.000 A 
ATOM     18  C   UNL     1       6.265   3.522  12.050  0.00  0.00    +0.000 A 
ATOM     19  C   UNL     1       5.701   3.519  13.328  0.00  0.00    +0.000 A 
ENDBRANCH  12  14
ENDBRANCH   3  12
TORSDOF 3
ENDMDL
MODEL 6
REMARK VINA RESULT:      -7.0      1.365      2.018
REMARK  Name = 
REMARK  6 active torsions:
REMARK  status: ('A' for Active; 'I' for Inactive)
REMARK    1  A    between atoms: C_1  and  C_2
REMARK    2  A    between atoms: C_2  and  C_3
REMARK    3  A    between atoms: C_2  and  C_4
REMARK    4  A    between atoms: C_2  and  N_5
REMARK    5  A    between atoms: C_7  and  C_8
REMARK    6  A    between atoms: C_8  and  C_10
REMARK                            x       y       z     vdW  Elec       q    Type
REMARK                         _______ _______ _______ _____ _____    ______ ____
ROOT
ATOM      1  N   UNL     1       4.452   5.655  18.363  0.00  0.00    +0.000 N 
ATOM      2  C   UNL     1       5.004   6.289  17.172  0.00  0.00    +0.000 C 
ATOM      3  C   UNL     1       6.185   5.438  16.693  0.00  0.00    +0.000 C 
ATOM      4  C   UNL     1       6.581   4.800  17.980  0.00  0.00    +0.000 C 
ATOM      5  O   UNL     1       7.677   4.349  18.252  0.00  0.00    +0.000 OA
ATOM      6  C   UNL     1       5.363   4.756  18.896  0.00  0.00    +0.000 C 
ATOM      7  O   UNL     1       5.275   4.018  19.853  0.00  0.00    +0.000 OA
ENDROOT
BRANCH   1   9
ATOM      8  C   UNL     1       2.484   7.147  18.436  0.00  0.00    +0.000 C 
ATOM      9  C   UNL     1       3.008   5.725  18.704  0.00  0.00    +0.000 C 
ATOM     10  C   UNL     1       2.773   5.377  20.190  0.00  0.00    +0.000 C 
ATOM     11  C   UNL     1       2.173   4.731  17.872  0.00  0.00    +0.000 C 
ENDBRANCH   1   9
BRANCH   3  12
ATOM     12  C   UNL     1       5.737   4.405  15.680  0.00  0.00    +0.000 C 
ATOM     13  O   UNL     1       4.893   3.550  15.943  0.00  0.00    +0.000 OA
BRANCH  12  14
ATOM     14  C   UNL     1       6.341   4.393  14.322  0.00  0.00    +0.000 A 
ATOM     15  C   UNL     1       5.781   3.538  13.361  0.00  0.00    +0.000 A 
ATOM     16  C   UNL     1       6.284   3.515  12.061  0.00  0.00    +0.000 A 
ATOM     17  C   UNL     1       7.340   4.354  11.711  0.00  0.00    +0.000 A 
ATOM     18  C   UNL     1       7.897   5.211  12.661  0.00  0.00    +0.000 A 
ATOM     19  C   UNL     1       7.404   5.230  13.968  0.00  0.00    +0.000 A 
ENDBRANCH  12  14
ENDBRANCH   3  12
TORSDOF 3
ENDMDL
MODEL 7
REMARK VINA RESULT:      -7.0      1.087      1.533
REMARK  Name = 
REMARK  6 active torsions:
REMARK  status: ('A' for Active; 'I' for Inactive)
REMARK    1  A    between atoms: C_1  and  C_2
REMARK    2  A    between atoms: C_2  and  C_3
REMARK    3  A    between atoms: C_2  and  C_4
REMARK    4  A    between atoms: C_2  and  N_5
REMARK    5  A    between atoms: C_7  and  C_8
REMARK    6  A    between atoms: C_8  and  C_10
REMARK                            x       y       z     vdW  Elec       q    Type
REMARK                         _______ _______ _______ _____ _____    ______ ____
ROOT
ATOM      1  N   UNL     1       4.141   4.908  18.522  0.00  0.00    +0.000 N 
ATOM      2  C   UNL     1       3.849   5.299  17.149  0.00  0.00    +0.000 C 
ATOM      3  C   UNL     1       5.184   5.506  16.426  0.00  0.00    +0.000 C 
ATOM      4  C   UNL     1       6.056   5.839  17.587  0.00  0.00    +0.000 C 
ATOM      5  O   UNL     1       7.097   6.466  17.548  0.00  0.00    +0.000 OA
ATOM      6  C   UNL     1       5.454   5.218  18.842  0.00  0.00    +0.000 C 
ATOM      7  O   UNL     1       6.084   5.027  19.860  0.00  0.00    +0.000 OA
ENDROOT
BRANCH   1   9
ATOM      8  C   UNL     1       2.733   4.729  20.544  0.00  0.00    +0.000 C 
ATOM      9  C   UNL     1       3.256   3.999  19.295  0.00  0.00    +0.000 C 
ATOM     10  C   UNL     1       4.019   2.732  19.740  0.00  0.00    +0.000 C 
ATOM     11  C   UNL     1       2.048   3.526  18.461  0.00  0.00    +0.000 C 
ENDBRANCH   1   9
BRANCH   3  12
ATOM     12  C   UNL     1       5.637   4.232  15.743  0.00  0.00    +0.000 C 
ATOM     13  O   UNL     1       5.591   3.136  16.301  0.00  0.00    +0.000 OA
BRANCH  12  14
ATOM     14  C   UNL     1       6.177   4.288  14.360  0.00  0.00    +0.000 A 
ATOM     15  C   UNL     1       7.266   5.138  14.115  0.00  0.00    +0.000 A 
ATOM     16  C   UNL     1       7.836   5.201  12.843  0.00  0.00    +0.000 A 
ATOM     17  C   UNL     1       7.330   4.408  11.816  0.00  0.00    +0.000 A 
ATOM     18  C   UNL     1       6.251   3.556  12.057  0.00  0.00    +0.000 A 
ATOM     19  C   UNL     1       5.668   3.497  13.325  0.00  0.00    +0.000 A 
ENDBRANCH  12  14
ENDBRANCH   3  12
TORSDOF 3
ENDMDL
MODEL 8
REMARK VINA RESULT:      -6.9      2.093      5.836
REMARK  Name = 
REMARK  6 active torsions:
REMARK  status: ('A' for Active; 'I' for Inactive)
REMARK    1  A    between atoms: C_1  and  C_2
REMARK    2  A    between atoms: C_2  and  C_3
REMARK    3  A    between atoms: C_2  and  C_4
REMARK    4  A    between atoms: C_2  and  N_5
REMARK    5  A    between atoms: C_7  and  C_8
REMARK    6  A    between atoms: C_8  and  C_10
REMARK                            x       y       z     vdW  Elec       q    Type
REMARK                         _______ _______ _______ _____ _____    ______ ____
ROOT
ATOM      1  N   UNL     1       5.602   4.469  17.414  0.00  0.00    +0.000 N 
ATOM      2  C   UNL     1       4.719   3.475  16.814  0.00  0.00    +0.000 C 
ATOM      3  C   UNL     1       3.697   3.054  17.875  0.00  0.00    +0.000 C 
ATOM      4  C   UNL     1       4.476   3.347  19.111  0.00  0.00    +0.000 C 
ATOM      5  O   UNL     1       4.305   2.844  20.205  0.00  0.00    +0.000 OA
ATOM      6  C   UNL     1       5.502   4.428  18.796  0.00  0.00    +0.000 C 
ATOM      7  O   UNL     1       6.042   5.104  19.645  0.00  0.00    +0.000 OA
ENDROOT
BRANCH   1   9
ATOM      8  C   UNL     1       5.123   6.561  16.190  0.00  0.00    +0.000 C 
ATOM      9  C   UNL     1       6.215   5.567  16.623  0.00  0.00    +0.000 C 
ATOM     10  C   UNL     1       6.917   5.015  15.364  0.00  0.00    +0.000 C 
ATOM     11  C   UNL     1       7.281   6.332  17.433  0.00  0.00    +0.000 C 
ENDBRANCH   1   9
BRANCH   3  12
ATOM     12  C   UNL     1       2.447   3.905  17.796  0.00  0.00    +0.000 C 
ATOM     13  O   UNL     1       1.539   3.667  17.001  0.00  0.00    +0.000 OA
BRANCH  12  14
ATOM     14  C   UNL     1       2.301   5.086  18.688  0.00  0.00    +0.000 A 
ATOM     15  C   UNL     1       2.571   6.352  18.148  0.00  0.00    +0.000 A 
ATOM     16  C   UNL     1       2.413   7.497  18.929  0.00  0.00    +0.000 A 
ATOM     17  C   UNL     1       1.975   7.383  20.246  0.00  0.00    +0.000 A 
ATOM     18  C   UNL     1       1.699   6.126  20.786  0.00  0.00    +0.000 A 
ATOM     19  C   UNL     1       1.865   4.975  20.012  0.00  0.00    +0.000 A 
ENDBRANCH  12  14
ENDBRANCH   3  12
TORSDOF 3
ENDMDL
MODEL 9
REMARK VINA RESULT:      -6.9      2.040      5.812
REMARK  Name = 
REMARK  6 active torsions:
REMARK  status: ('A' for Active; 'I' for Inactive)
REMARK    1  A    between atoms: C_1  and  C_2
REMARK    2  A    between atoms: C_2  and  C_3
REMARK    3  A    between atoms: C_2  and  C_4
REMARK    4  A    between atoms: C_2  and  N_5
REMARK    5  A    between atoms: C_7  and  C_8
REMARK    6  A    between atoms: C_8  and  C_10
REMARK                            x       y       z     vdW  Elec       q    Type
REMARK                         _______ _______ _______ _____ _____    ______ ____
ROOT
ATOM      1  N   UNL     1       5.711   4.498  17.349  0.00  0.00    +0.000 N 
ATOM      2  C   UNL     1       4.872   3.453  16.775  0.00  0.00    +0.000 C 
ATOM      3  C   UNL     1       3.893   2.990  17.859  0.00  0.00    +0.000 C 
ATOM      4  C   UNL     1       4.677   3.338  19.078  0.00  0.00    +0.000 C 
ATOM      5  O   UNL     1       4.552   2.839  20.180  0.00  0.00    +0.000 OA
ATOM      6  C   UNL     1       5.637   4.469  18.733  0.00  0.00    +0.000 C 
ATOM      7  O   UNL     1       6.155   5.182  19.564  0.00  0.00    +0.000 OA
ENDROOT
BRANCH   1   9
ATOM      8  C   UNL     1       6.949   5.057  15.285  0.00  0.00    +0.000 C 
ATOM      9  C   UNL     1       6.251   5.619  16.536  0.00  0.00    +0.000 C 
ATOM     10  C   UNL     1       7.270   6.448  17.347  0.00  0.00    +0.000 C 
ATOM     11  C   UNL     1       5.141   6.589  16.084  0.00  0.00    +0.000 C 
ENDBRANCH   1   9
BRANCH   3  12
ATOM     12  C   UNL     1       2.598   3.773  17.794  0.00  0.00    +0.000 C 
ATOM     13  O   UNL     1       1.710   3.506  16.986  0.00  0.00    +0.000 OA
BRANCH  12  14
ATOM     14  C   UNL     1       2.381   4.918  18.716  0.00  0.00    +0.000 A 
ATOM     15  C   UNL     1       2.658   6.207  18.237  0.00  0.00    +0.000 A 
ATOM     16  C   UNL     1       2.436   7.321  19.047  0.00  0.00    +0.000 A 
ATOM     17  C   UNL     1       1.927   7.153  20.333  0.00  0.00    +0.000 A 
ATOM     18  C   UNL     1       1.644   5.873  20.812  0.00  0.00    +0.000 A 
ATOM     19  C   UNL     1       1.875   4.753  20.009  0.00  0.00    +0.000 A 
ENDBRANCH  12  14
ENDBRANCH   3  12
TORSDOF 3
ENDMDL
