MODEL 1
REMARK VINA RESULT:      -7.9      0.000      0.000
REMARK  Name = 
REMARK  13 active torsions:
REMARK  status: ('A' for Active; 'I' for Inactive)
REMARK    1  A    between atoms: C_1  and  C_2
REMARK    2  A    between atoms: C_2  and  O_3
REMARK    3  A    between atoms: O_3  and  C_4
REMARK    4  A    between atoms: C_4  and  C_6
REMARK    5  A    between atoms: C_7  and  N_8
REMARK    6  A    between atoms: C_9  and  C_11
REMARK    7  A    between atoms: C_11  and  C_12
REMARK    8  A    between atoms: C_12  and  S_13
REMARK    9  A    between atoms: S_13  and  C_16
REMARK   10  A    between atoms: C_26  and  C_27
REMARK   11  A    between atoms: C_26  and  C_28
REMARK   12  A    between atoms: C_30  and  C_31
REMARK   13  A    between atoms: C_30  and  C_32
REMARK                            x       y       z     vdW  Elec       q    Type
REMARK                         _______ _______ _______ _____ _____    ______ ____
ROOT
ATOM      1  C   UNL     1       6.176   5.487  17.015  0.00  0.00    +0.000 A 
ATOM      2  C   UNL     1       5.954   6.848  17.231  0.00  0.00    +0.000 A 
ATOM      3  S   UNL     1       4.359   7.155  17.756  0.00  0.00    +0.000 S 
ATOM      4  C   UNL     1       4.061   5.515  18.067  0.00  0.00    +0.000 A 
ATOM      5  C   UNL     1       5.046   4.706  17.529  0.00  0.00    +0.000 A 
ATOM      6  C   UNL     1       4.917   3.197  17.621  0.00  0.00    +0.000 C 
ATOM      7  C   UNL     1       3.463   2.750  17.994  0.00  0.00    +0.000 C 
ATOM      8  C   UNL     1       3.476   1.313  18.565  0.00  0.00    +0.000 C 
ATOM      9  C   UNL     1       2.571   2.719  16.739  0.00  0.00    +0.000 C 
ATOM     10  N   UNL     1       2.886   3.590  19.076  0.00  0.00    +0.000 NA
ATOM     11  C   UNL     1       2.839   5.053  18.830  0.00  0.00    +0.000 C 
ATOM     12  C   UNL     1       1.537   5.436  18.110  0.00  0.00    +0.000 C 
ATOM     13  C   UNL     1       2.822   5.710  20.234  0.00  0.00    +0.000 C 
ATOM     14  H   UNL     1       3.463   3.440  19.906  0.00  0.00    +0.000 HD
ENDROOT
BRANCH   2  15
ATOM     15  N   UNL     1       6.735   7.987  17.004  0.00  0.00    +0.000 N 
ATOM     16  C   UNL     1       7.834   8.241  17.829  0.00  0.00    +0.000 C 
ATOM     17  O   UNL     1       8.262   7.469  18.683  0.00  0.00    +0.000 OA
ATOM     18  H   UNL     1       6.778   8.335  16.051  0.00  0.00    +0.000 HD
BRANCH  16  19
ATOM     19  C   UNL     1       8.536   9.573  17.619  0.00  0.00    +0.000 C 
BRANCH  19  20
ATOM     20  C   UNL     1       9.057  10.071  18.972  0.00  0.00    +0.000 C 
BRANCH  20  21
ATOM     21  S   UNL     1      10.104  11.499  18.836  0.00  0.00    +0.000 S 
ATOM     22  O   UNL     1      10.899  11.579  20.048  0.00  0.00    +0.000 OA
ATOM     23  O   UNL     1      10.743  11.473  17.533  0.00  0.00    +0.000 OA
BRANCH  21  24
ATOM     24  C   UNL     1       8.972  12.881  18.856  0.00  0.00    +0.000 A 
ATOM     25  C   UNL     1       8.234  13.181  17.704  0.00  0.00    +0.000 A 
ATOM     26  C   UNL     1       7.312  14.228  17.722  0.00  0.00    +0.000 A 
ATOM     27  C   UNL     1       7.118  14.968  18.891  0.00  0.00    +0.000 A 
ATOM     28  C   UNL     1       7.842  14.656  20.042  0.00  0.00    +0.000 A 
ATOM     29  C   UNL     1       8.768  13.607  20.032  0.00  0.00    +0.000 A 
ENDBRANCH  21  24
ENDBRANCH  20  21
ENDBRANCH  19  20
ENDBRANCH  16  19
ENDBRANCH   2  15
BRANCH   1  30
ATOM     30  C   UNL     1       7.411   4.880  16.512  0.00  0.00    +0.000 C 
ATOM     31  O   UNL     1       8.135   4.174  17.211  0.00  0.00    +0.000 OA
BRANCH  30  32
ATOM     32  O   UNL     1       7.720   5.245  15.234  0.00  0.00    +0.000 OA
BRANCH  32  34
ATOM     33  C   UNL     1       7.456   4.872  12.887  0.00  0.00    +0.000 C 
ATOM     34  C   UNL     1       6.780   4.793  14.245  0.00  0.00    +0.000 C 
ENDBRANCH  32  34
ENDBRANCH  30  32
ENDBRANCH   1  30
TORSDOF 8
ENDMDL
MODEL 2
REMARK VINA RESULT:      -7.7      1.330      1.668
REMARK  Name = 
REMARK  13 active torsions:
REMARK  status: ('A' for Active; 'I' for Inactive)
REMARK    1  A    between atoms: C_1  and  C_2
REMARK    2  A    between atoms: C_2  and  O_3
REMARK    3  A    between atoms: O_3  and  C_4
REMARK    4  A    between atoms: C_4  and  C_6
REMARK    5  A    between atoms: C_7  and  N_8
REMARK    6  A    between atoms: C_9  and  C_11
REMARK    7  A    between atoms: C_11  and  C_12
REMARK    8  A    between atoms: C_12  and  S_13
REMARK    9  A    between atoms: S_13  and  C_16
REMARK   10  A    between atoms: C_26  and  C_27
REMARK   11  A    between atoms: C_26  and  C_28
REMARK   12  A    between atoms: C_30  and  C_31
REMARK   13  A    between atoms: C_30  and  C_32
REMARK                            x       y       z     vdW  Elec       q    Type
REMARK                         _______ _______ _______ _____ _____    ______ ____
ROOT
ATOM      1  C   UNL     1       6.085   5.499  16.970  0.00  0.00    +0.000 A 
ATOM      2  C   UNL     1       5.891   6.851  17.255  0.00  0.00    +0.000 A 
ATOM      3  S   UNL     1       4.329   7.150  17.876  0.00  0.00    +0.000 S 
ATOM      4  C   UNL     1       4.028   5.501  18.131  0.00  0.00    +0.000 A 
ATOM      5  C   UNL     1       4.974   4.707  17.509  0.00  0.00    +0.000 A 
ATOM      6  C   UNL     1       4.832   3.196  17.543  0.00  0.00    +0.000 C 
ATOM      7  C   UNL     1       3.394   2.747  17.972  0.00  0.00    +0.000 C 
ATOM      8  C   UNL     1       3.420   1.288  18.480  0.00  0.00    +0.000 C 
ATOM      9  C   UNL     1       2.438   2.780  16.765  0.00  0.00    +0.000 C 
ATOM     10  N   UNL     1       2.885   3.545  19.117  0.00  0.00    +0.000 NA
ATOM     11  C   UNL     1       2.842   5.019  18.937  0.00  0.00    +0.000 C 
ATOM     12  C   UNL     1       1.509   5.444  18.302  0.00  0.00    +0.000 C 
ATOM     13  C   UNL     1       2.905   5.614  20.366  0.00  0.00    +0.000 C 
ATOM     14  H   UNL     1       3.502   3.354  19.909  0.00  0.00    +0.000 HD
ENDROOT
BRANCH   2  15
ATOM     15  N   UNL     1       6.673   7.991  17.037  0.00  0.00    +0.000 N 
ATOM     16  C   UNL     1       7.796   8.216  17.836  0.00  0.00    +0.000 C 
ATOM     17  O   UNL     1       8.244   7.419  18.656  0.00  0.00    +0.000 OA
ATOM     18  H   UNL     1       6.690   8.365  16.094  0.00  0.00    +0.000 HD
BRANCH  16  19
ATOM     19  C   UNL     1       8.501   9.548  17.642  0.00  0.00    +0.000 C 
BRANCH  19  20
ATOM     20  C   UNL     1       9.123   9.974  18.978  0.00  0.00    +0.000 C 
BRANCH  20  21
ATOM     21  S   UNL     1       9.929  11.554  18.904  0.00  0.00    +0.000 S 
ATOM     22  O   UNL     1      11.360  11.316  18.864  0.00  0.00    +0.000 OA
ATOM     23  O   UNL     1       9.283  12.347  17.875  0.00  0.00    +0.000 OA
BRANCH  21  24
ATOM     24  C   UNL     1       9.563  12.313  20.480  0.00  0.00    +0.000 A 
ATOM     25  C   UNL     1       9.895  13.657  20.690  0.00  0.00    +0.000 A 
ATOM     26  C   UNL     1       9.571  14.272  21.899  0.00  0.00    +0.000 A 
ATOM     27  C   UNL     1       8.907  13.551  22.894  0.00  0.00    +0.000 A 
ATOM     28  C   UNL     1       8.562  12.217  22.676  0.00  0.00    +0.000 A 
ATOM     29  C   UNL     1       8.883  11.592  21.466  0.00  0.00    +0.000 A 
ENDBRANCH  21  24
ENDBRANCH  20  21
ENDBRANCH  19  20
ENDBRANCH  16  19
ENDBRANCH   2  15
BRANCH   1  30
ATOM     30  C   UNL     1       7.286   4.902  16.379  0.00  0.00    +0.000 C 
ATOM     31  O   UNL     1       8.113   4.281  17.042  0.00  0.00    +0.000 OA
BRANCH  30  32
ATOM     32  O   UNL     1       7.437   5.177  15.051  0.00  0.00    +0.000 OA
BRANCH  32  34
ATOM     33  C   UNL     1       5.554   4.325  13.846  0.00  0.00    +0.000 C 
ATOM     34  C   UNL     1       7.022   4.115  14.175  0.00  0.00    +0.000 C 
ENDBRANCH  32  34
ENDBRANCH  30  32
ENDBRANCH   1  30
TORSDOF 8
ENDMDL
MODEL 3
REMARK VINA RESULT:      -7.2      4.967      6.434
REMARK  Name = 
REMARK  13 active torsions:
REMARK  status: ('A' for Active; 'I' for Inactive)
REMARK    1  A    between atoms: C_1  and  C_2
REMARK    2  A    between atoms: C_2  and  O_3
REMARK    3  A    between atoms: O_3  and  C_4
REMARK    4  A    between atoms: C_4  and  C_6
REMARK    5  A    between atoms: C_7  and  N_8
REMARK    6  A    between atoms: C_9  and  C_11
REMARK    7  A    between atoms: C_11  and  C_12
REMARK    8  A    between atoms: C_12  and  S_13
REMARK    9  A    between atoms: S_13  and  C_16
REMARK   10  A    between atoms: C_26  and  C_27
REMARK   11  A    between atoms: C_26  and  C_28
REMARK   12  A    between atoms: C_30  and  C_31
REMARK   13  A    between atoms: C_30  and  C_32
REMARK                            x       y       z     vdW  Elec       q    Type
REMARK                         _______ _______ _______ _____ _____    ______ ____
ROOT
ATOM      1  C   UNL     1       4.196   5.819  18.034  0.00  0.00    +0.000 A 
ATOM      2  C   UNL     1       3.035   6.588  17.941  0.00  0.00    +0.000 A 
ATOM      3  S   UNL     1       1.639   5.673  18.296  0.00  0.00    +0.000 S 
ATOM      4  C   UNL     1       2.545   4.389  18.932  0.00  0.00    +0.000 A 
ATOM      5  C   UNL     1       3.890   4.518  18.637  0.00  0.00    +0.000 A 
ATOM      6  C   UNL     1       4.860   3.423  19.042  0.00  0.00    +0.000 C 
ATOM      7  C   UNL     1       4.126   2.091  19.417  0.00  0.00    +0.000 C 
ATOM      8  C   UNL     1       5.045   1.199  20.281  0.00  0.00    +0.000 C 
ATOM      9  C   UNL     1       3.792   1.285  18.148  0.00  0.00    +0.000 C 
ATOM     10  N   UNL     1       2.927   2.340  20.259  0.00  0.00    +0.000 NA
ATOM     11  C   UNL     1       1.901   3.259  19.704  0.00  0.00    +0.000 C 
ATOM     12  C   UNL     1       0.892   2.481  18.844  0.00  0.00    +0.000 C 
ATOM     13  C   UNL     1       1.146   3.829  20.932  0.00  0.00    +0.000 C 
ATOM     14  H   UNL     1       3.259   2.750  21.134  0.00  0.00    +0.000 HD
ENDROOT
BRANCH   2  15
ATOM     15  N   UNL     1       2.795   7.902  17.522  0.00  0.00    +0.000 N 
ATOM     16  C   UNL     1       2.112   8.778  18.368  0.00  0.00    +0.000 C 
ATOM     17  O   UNL     1       1.801   8.531  19.531  0.00  0.00    +0.000 OA
ATOM     18  H   UNL     1       3.460   8.307  16.871  0.00  0.00    +0.000 HD
BRANCH  16  19
ATOM     19  C   UNL     1       1.754  10.133  17.782  0.00  0.00    +0.000 C 
BRANCH  19  20
ATOM     20  C   UNL     1       1.312  11.060  18.922  0.00  0.00    +0.000 C 
BRANCH  20  21
ATOM     21  S   UNL     1      -0.366  11.618  18.760  0.00  0.00    +0.000 S 
ATOM     22  O   UNL     1      -0.332  12.968  18.231  0.00  0.00    +0.000 OA
ATOM     23  O   UNL     1      -1.129  10.580  18.091  0.00  0.00    +0.000 OA
BRANCH  21  24
ATOM     24  C   UNL     1      -0.960  11.725  20.443  0.00  0.00    +0.000 A 
ATOM     25  C   UNL     1      -2.139  12.431  20.711  0.00  0.00    +0.000 A 
ATOM     26  C   UNL     1      -2.638  12.482  22.013  0.00  0.00    +0.000 A 
ATOM     27  C   UNL     1      -1.968  11.819  23.044  0.00  0.00    +0.000 A 
ATOM     28  C   UNL     1      -0.802  11.102  22.771  0.00  0.00    +0.000 A 
ATOM     29  C   UNL     1      -0.296  11.046  21.467  0.00  0.00    +0.000 A 
ENDBRANCH  21  24
ENDBRANCH  20  21
ENDBRANCH  19  20
ENDBRANCH  16  19
ENDBRANCH   2  15
BRANCH   1  30
ATOM     30  C   UNL     1       5.560   6.271  17.746  0.00  0.00    +0.000 C 
ATOM     31  O   UNL     1       6.449   6.279  18.593  0.00  0.00    +0.000 OA
BRANCH  30  32
ATOM     32  O   UNL     1       5.719   6.761  16.481  0.00  0.00    +0.000 OA
BRANCH  32  34
ATOM     33  C   UNL     1       6.820   4.865  15.525  0.00  0.00    +0.000 C 
ATOM     34  C   UNL     1       5.603   5.771  15.445  0.00  0.00    +0.000 C 
ENDBRANCH  32  34
ENDBRANCH  30  32
ENDBRANCH   1  30
TORSDOF 8
ENDMDL
MODEL 4
REMARK VINA RESULT:      -7.2      5.891     10.359
REMARK  Name = 
REMARK  13 active torsions:
REMARK  status: ('A' for Active; 'I' for Inactive)
REMARK    1  A    between atoms: C_1  and  C_2
REMARK    2  A    between atoms: C_2  and  O_3
REMARK    3  A    between atoms: O_3  and  C_4
REMARK    4  A    between atoms: C_4  and  C_6
REMARK    5  A    between atoms: C_7  and  N_8
REMARK    6  A    between atoms: C_9  and  C_11
REMARK    7  A    between atoms: C_11  and  C_12
REMARK    8  A    between atoms: C_12  and  S_13
REMARK    9  A    between atoms: S_13  and  C_16
REMARK   10  A    between atoms: C_26  and  C_27
REMARK   11  A    between atoms: C_26  and  C_28
REMARK   12  A    between atoms: C_30  and  C_31
REMARK   13  A    between atoms: C_30  and  C_32
REMARK                            x       y       z     vdW  Elec       q    Type
REMARK                         _______ _______ _______ _____ _____    ______ ____
ROOT
ATOM      1  C   UNL     1       0.024  11.609  18.603  0.00  0.00    +0.000 A 
ATOM      2  C   UNL     1       1.249  11.093  18.176  0.00  0.00    +0.000 A 
ATOM      3  S   UNL     1       2.483  12.271  18.219  0.00  0.00    +0.000 S 
ATOM      4  C   UNL     1       1.539  13.341  19.135  0.00  0.00    +0.000 A 
ATOM      5  C   UNL     1       0.215  12.943  19.182  0.00  0.00    +0.000 A 
ATOM      6  C   UNL     1      -0.812  13.815  19.880  0.00  0.00    +0.000 C 
ATOM      7  C   UNL     1      -0.280  15.267  20.133  0.00  0.00    +0.000 C 
ATOM      8  C   UNL     1      -1.101  15.949  21.251  0.00  0.00    +0.000 C 
ATOM      9  C   UNL     1      -0.450  16.130  18.869  0.00  0.00    +0.000 C 
ATOM     10  N   UNL     1       1.120  15.263  20.630  0.00  0.00    +0.000 NA
ATOM     11  C   UNL     1       2.127  14.575  19.784  0.00  0.00    +0.000 C 
ATOM     12  C   UNL     1       2.708  15.546  18.743  0.00  0.00    +0.000 C 
ATOM     13  C   UNL     1       3.270  14.164  20.746  0.00  0.00    +0.000 C 
ATOM     14  H   UNL     1       1.112  14.790  21.537  0.00  0.00    +0.000 HD
ENDROOT
BRANCH   2  15
ATOM     15  N   UNL     1       1.624   9.857  17.635  0.00  0.00    +0.000 N 
ATOM     16  C   UNL     1       1.808   8.764  18.486  0.00  0.00    +0.000 C 
ATOM     17  O   UNL     1       1.544   8.756  19.685  0.00  0.00    +0.000 OA
ATOM     18  H   UNL     1       1.333   9.663  16.683  0.00  0.00    +0.000 HD
BRANCH  16  19
ATOM     19  C   UNL     1       2.365   7.504  17.845  0.00  0.00    +0.000 C 
BRANCH  19  20
ATOM     20  C   UNL     1       3.735   7.202  18.465  0.00  0.00    +0.000 C 
BRANCH  20  21
ATOM     21  S   UNL     1       4.241   5.513  18.258  0.00  0.00    +0.000 S 
ATOM     22  O   UNL     1       4.290   5.240  16.834  0.00  0.00    +0.000 OA
ATOM     23  O   UNL     1       5.403   5.279  19.096  0.00  0.00    +0.000 OA
BRANCH  21  24
ATOM     24  C   UNL     1       2.888   4.559  18.932  0.00  0.00    +0.000 A 
ATOM     25  C   UNL     1       2.511   4.750  20.267  0.00  0.00    +0.000 A 
ATOM     26  C   UNL     1       1.426   4.047  20.791  0.00  0.00    +0.000 A 
ATOM     27  C   UNL     1       0.710   3.163  19.980  0.00  0.00    +0.000 A 
ATOM     28  C   UNL     1       1.078   2.987  18.646  0.00  0.00    +0.000 A 
ATOM     29  C   UNL     1       2.164   3.689  18.113  0.00  0.00    +0.000 A 
ENDBRANCH  21  24
ENDBRANCH  20  21
ENDBRANCH  19  20
ENDBRANCH  16  19
ENDBRANCH   2  15
BRANCH   1  30
ATOM     30  C   UNL     1      -1.252  10.890  18.642  0.00  0.00    +0.000 C 
ATOM     31  O   UNL     1      -1.514  10.049  19.498  0.00  0.00    +0.000 OA
BRANCH  30  32
ATOM     32  O   UNL     1      -2.076  11.180  17.592  0.00  0.00    +0.000 OA
BRANCH  32  34
ATOM     33  C   UNL     1      -2.861  10.678  15.390  0.00  0.00    +0.000 C 
ATOM     34  C   UNL     1      -2.232  10.106  16.649  0.00  0.00    +0.000 C 
ENDBRANCH  32  34
ENDBRANCH  30  32
ENDBRANCH   1  30
TORSDOF 8
ENDMDL
MODEL 5
REMARK VINA RESULT:      -7.1      6.846     10.307
REMARK  Name = 
REMARK  13 active torsions:
REMARK  status: ('A' for Active; 'I' for Inactive)
REMARK    1  A    between atoms: C_1  and  C_2
REMARK    2  A    between atoms: C_2  and  O_3
REMARK    3  A    between atoms: O_3  and  C_4
REMARK    4  A    between atoms: C_4  and  C_6
REMARK    5  A    between atoms: C_7  and  N_8
REMARK    6  A    between atoms: C_9  and  C_11
REMARK    7  A    between atoms: C_11  and  C_12
REMARK    8  A    between atoms: C_12  and  S_13
REMARK    9  A    between atoms: S_13  and  C_16
REMARK   10  A    between atoms: C_26  and  C_27
REMARK   11  A    between atoms: C_26  and  C_28
REMARK   12  A    between atoms: C_30  and  C_31
REMARK   13  A    between atoms: C_30  and  C_32
REMARK                            x       y       z     vdW  Elec       q    Type
REMARK                         _______ _______ _______ _____ _____    ______ ____
ROOT
ATOM      1  C   UNL     1      -1.664  10.678  18.363  0.00  0.00    +0.000 A 
ATOM      2  C   UNL     1      -0.305  10.411  18.533  0.00  0.00    +0.000 A 
ATOM      3  S   UNL     1       0.366  11.325  19.809  0.00  0.00    +0.000 S 
ATOM      4  C   UNL     1      -1.160  11.786  20.387  0.00  0.00    +0.000 A 
ATOM      5  C   UNL     1      -2.161  11.487  19.481  0.00  0.00    +0.000 A 
ATOM      6  C   UNL     1      -3.592  11.900  19.773  0.00  0.00    +0.000 C 
ATOM      7  C   UNL     1      -3.678  12.966  20.917  0.00  0.00    +0.000 C 
ATOM      8  C   UNL     1      -5.099  12.985  21.524  0.00  0.00    +0.000 C 
ATOM      9  C   UNL     1      -3.415  14.377  20.359  0.00  0.00    +0.000 C 
ATOM     10  N   UNL     1      -2.778  12.632  22.052  0.00  0.00    +0.000 NA
ATOM     11  C   UNL     1      -1.339  12.455  21.732  0.00  0.00    +0.000 C 
ATOM     12  C   UNL     1      -0.603  13.802  21.803  0.00  0.00    +0.000 C 
ATOM     13  C   UNL     1      -0.774  11.540  22.849  0.00  0.00    +0.000 C 
ATOM     14  H   UNL     1      -3.112  11.750  22.445  0.00  0.00    +0.000 HD
ENDROOT
BRANCH   2  15
ATOM     15  N   UNL     1       0.611   9.638  17.810  0.00  0.00    +0.000 N 
ATOM     16  C   UNL     1       1.410   8.711  18.484  0.00  0.00    +0.000 C 
ATOM     17  O   UNL     1       1.292   8.416  19.671  0.00  0.00    +0.000 OA
ATOM     18  H   UNL     1       0.383   9.439  16.841  0.00  0.00    +0.000 HD
BRANCH  16  19
ATOM     19  C   UNL     1       2.484   8.025  17.657  0.00  0.00    +0.000 C 
BRANCH  19  20
ATOM     20  C   UNL     1       3.574   7.505  18.603  0.00  0.00    +0.000 C 
BRANCH  20  21
ATOM     21  S   UNL     1       4.087   5.845  18.234  0.00  0.00    +0.000 S 
ATOM     22  O   UNL     1       4.144   5.712  16.791  0.00  0.00    +0.000 OA
ATOM     23  O   UNL     1       5.245   5.534  19.052  0.00  0.00    +0.000 OA
BRANCH  21  24
ATOM     24  C   UNL     1       2.733   4.827  18.805  0.00  0.00    +0.000 A 
ATOM     25  C   UNL     1       2.232   3.820  17.971  0.00  0.00    +0.000 A 
ATOM     26  C   UNL     1       1.207   2.988  18.424  0.00  0.00    +0.000 A 
ATOM     27  C   UNL     1       0.693   3.153  19.712  0.00  0.00    +0.000 A 
ATOM     28  C   UNL     1       1.206   4.146  20.547  0.00  0.00    +0.000 A 
ATOM     29  C   UNL     1       2.233   4.984  20.100  0.00  0.00    +0.000 A 
ENDBRANCH  21  24
ENDBRANCH  20  21
ENDBRANCH  19  20
ENDBRANCH  16  19
ENDBRANCH   2  15
BRANCH   1  30
ATOM     30  C   UNL     1      -2.536  10.110  17.331  0.00  0.00    +0.000 C 
ATOM     31  O   UNL     1      -3.464   9.349  17.592  0.00  0.00    +0.000 OA
BRANCH  30  32
ATOM     32  O   UNL     1      -2.162  10.435  16.059  0.00  0.00    +0.000 OA
BRANCH  32  34
ATOM     33  C   UNL     1      -3.394   9.986  14.059  0.00  0.00    +0.000 C 
ATOM     34  C   UNL     1      -3.231  10.932  15.236  0.00  0.00    +0.000 C 
ENDBRANCH  32  34
ENDBRANCH  30  32
ENDBRANCH   1  30
TORSDOF 8
ENDMDL
MODEL 6
REMARK VINA RESULT:      -7.1      7.227     10.788
REMARK  Name = 
REMARK  13 active torsions:
REMARK  status: ('A' for Active; 'I' for Inactive)
REMARK    1  A    between atoms: C_1  and  C_2
REMARK    2  A    between atoms: C_2  and  O_3
REMARK    3  A    between atoms: O_3  and  C_4
REMARK    4  A    between atoms: C_4  and  C_6
REMARK    5  A    between atoms: C_7  and  N_8
REMARK    6  A    between atoms: C_9  and  C_11
REMARK    7  A    between atoms: C_11  and  C_12
REMARK    8  A    between atoms: C_12  and  S_13
REMARK    9  A    between atoms: S_13  and  C_16
REMARK   10  A    between atoms: C_26  and  C_27
REMARK   11  A    between atoms: C_26  and  C_28
REMARK   12  A    between atoms: C_30  and  C_31
REMARK   13  A    between atoms: C_30  and  C_32
REMARK                            x       y       z     vdW  Elec       q    Type
REMARK                         _______ _______ _______ _____ _____    ______ ____
ROOT
ATOM      1  C   UNL     1      -1.825  11.159  18.674  0.00  0.00    +0.000 A 
ATOM      2  C   UNL     1      -0.488  10.887  18.967  0.00  0.00    +0.000 A 
ATOM      3  S   UNL     1       0.092  11.861  20.243  0.00  0.00    +0.000 S 
ATOM      4  C   UNL     1      -1.468  12.368  20.672  0.00  0.00    +0.000 A 
ATOM      5  C   UNL     1      -2.398  12.032  19.705  0.00  0.00    +0.000 A 
ATOM      6  C   UNL     1      -3.841  12.476  19.858  0.00  0.00    +0.000 C 
ATOM      7  C   UNL     1      -4.002  13.602  20.935  0.00  0.00    +0.000 C 
ATOM      8  C   UNL     1      -5.466  13.669  21.423  0.00  0.00    +0.000 C 
ATOM      9  C   UNL     1      -3.674  14.978  20.327  0.00  0.00    +0.000 C 
ATOM     10  N   UNL     1      -3.201  13.319  22.154  0.00  0.00    +0.000 NA
ATOM     11  C   UNL     1      -1.744  13.109  21.962  0.00  0.00    +0.000 C 
ATOM     12  C   UNL     1      -0.996  14.450  22.021  0.00  0.00    +0.000 C 
ATOM     13  C   UNL     1      -1.284  12.249  23.166  0.00  0.00    +0.000 C 
ATOM     14  H   UNL     1      -3.579  12.462  22.565  0.00  0.00    +0.000 HD
ENDROOT
BRANCH   2  15
ATOM     15  N   UNL     1       0.471  10.067  18.361  0.00  0.00    +0.000 N 
ATOM     16  C   UNL     1       1.110   9.083  19.120  0.00  0.00    +0.000 C 
ATOM     17  O   UNL     1       0.810   8.782  20.273  0.00  0.00    +0.000 OA
ATOM     18  H   UNL     1       0.369   9.895  17.367  0.00  0.00    +0.000 HD
BRANCH  16  19
ATOM     19  C   UNL     1       2.246   8.341  18.435  0.00  0.00    +0.000 C 
BRANCH  19  20
ATOM     20  C   UNL     1       2.732   7.222  19.364  0.00  0.00    +0.000 C 
BRANCH  20  21
ATOM     21  S   UNL     1       3.695   5.986  18.528  0.00  0.00    +0.000 S 
ATOM     22  O   UNL     1       3.744   6.343  17.123  0.00  0.00    +0.000 OA
ATOM     23  O   UNL     1       4.918   5.776  19.281  0.00  0.00    +0.000 OA
BRANCH  21  24
ATOM     24  C   UNL     1       2.715   4.497  18.662  0.00  0.00    +0.000 A 
ATOM     25  C   UNL     1       1.691   4.431  19.614  0.00  0.00    +0.000 A 
ATOM     26  C   UNL     1       0.890   3.292  19.695  0.00  0.00    +0.000 A 
ATOM     27  C   UNL     1       1.102   2.225  18.819  0.00  0.00    +0.000 A 
ATOM     28  C   UNL     1       2.112   2.300  17.860  0.00  0.00    +0.000 A 
ATOM     29  C   UNL     1       2.920   3.439  17.772  0.00  0.00    +0.000 A 
ENDBRANCH  21  24
ENDBRANCH  20  21
ENDBRANCH  19  20
ENDBRANCH  16  19
ENDBRANCH   2  15
BRANCH   1  30
ATOM     30  C   UNL     1      -2.620  10.547  17.606  0.00  0.00    +0.000 C 
ATOM     31  O   UNL     1      -3.268   9.516  17.770  0.00  0.00    +0.000 OA
BRANCH  30  32
ATOM     32  O   UNL     1      -2.497  11.178  16.402  0.00  0.00    +0.000 OA
BRANCH  32  34
ATOM     33  C   UNL     1      -3.029  10.084  14.343  0.00  0.00    +0.000 C 
ATOM     34  C   UNL     1      -3.575  10.921  15.486  0.00  0.00    +0.000 C 
ENDBRANCH  32  34
ENDBRANCH  30  32
ENDBRANCH   1  30
TORSDOF 8
ENDMDL
MODEL 7
REMARK VINA RESULT:      -7.0      6.937     10.557
REMARK  Name = 
REMARK  13 active torsions:
REMARK  status: ('A' for Active; 'I' for Inactive)
REMARK    1  A    between atoms: C_1  and  C_2
REMARK    2  A    between atoms: C_2  and  O_3
REMARK    3  A    between atoms: O_3  and  C_4
REMARK    4  A    between atoms: C_4  and  C_6
REMARK    5  A    between atoms: C_7  and  N_8
REMARK    6  A    between atoms: C_9  and  C_11
REMARK    7  A    between atoms: C_11  and  C_12
REMARK    8  A    between atoms: C_12  and  S_13
REMARK    9  A    between atoms: S_13  and  C_16
REMARK   10  A    between atoms: C_26  and  C_27
REMARK   11  A    between atoms: C_26  and  C_28
REMARK   12  A    between atoms: C_30  and  C_31
REMARK   13  A    between atoms: C_30  and  C_32
REMARK                            x       y       z     vdW  Elec       q    Type
REMARK                         _______ _______ _______ _____ _____    ______ ____
ROOT
ATOM      1  C   UNL     1      -1.116  10.829  18.888  0.00  0.00    +0.000 A 
ATOM      2  C   UNL     1      -0.009  10.243  19.504  0.00  0.00    +0.000 A 
ATOM      3  S   UNL     1       0.309  10.939  21.030  0.00  0.00    +0.000 S 
ATOM      4  C   UNL     1      -1.188  11.734  21.068  0.00  0.00    +0.000 A 
ATOM      5  C   UNL     1      -1.814  11.705  19.836  0.00  0.00    +0.000 A 
ATOM      6  C   UNL     1      -3.128  12.438  19.638  0.00  0.00    +0.000 C 
ATOM      7  C   UNL     1      -3.410  13.465  20.787  0.00  0.00    +0.000 C 
ATOM      8  C   UNL     1      -4.916  13.806  20.840  0.00  0.00    +0.000 C 
ATOM      9  C   UNL     1      -2.666  14.787  20.522  0.00  0.00    +0.000 C 
ATOM     10  N   UNL     1      -3.095  12.898  22.124  0.00  0.00    +0.000 NA
ATOM     11  C   UNL     1      -1.714  12.392  22.325  0.00  0.00    +0.000 C 
ATOM     12  C   UNL     1      -0.792  13.524  22.807  0.00  0.00    +0.000 C 
ATOM     13  C   UNL     1      -1.817  11.342  23.460  0.00  0.00    +0.000 C 
ATOM     14  H   UNL     1      -3.731  12.111  22.269  0.00  0.00    +0.000 HD
ENDROOT
BRANCH   2  15
ATOM     15  N   UNL     1       0.926   9.293  19.077  0.00  0.00    +0.000 N 
ATOM     16  C   UNL     1       1.951   9.682  18.211  0.00  0.00    +0.000 C 
ATOM     17  O   UNL     1       2.187  10.841  17.878  0.00  0.00    +0.000 OA
ATOM     18  H   UNL     1       1.114   8.517  19.702  0.00  0.00    +0.000 HD
BRANCH  16  19
ATOM     19  C   UNL     1       2.830   8.566  17.670  0.00  0.00    +0.000 C 
BRANCH  19  20
ATOM     20  C   UNL     1       2.128   7.225  17.918  0.00  0.00    +0.000 C 
BRANCH  20  21
ATOM     21  S   UNL     1       2.857   6.287  19.237  0.00  0.00    +0.000 S 
ATOM     22  O   UNL     1       4.280   6.188  18.973  0.00  0.00    +0.000 OA
ATOM     23  O   UNL     1       2.374   6.821  20.497  0.00  0.00    +0.000 OA
BRANCH  21  24
ATOM     24  C   UNL     1       2.170   4.647  19.046  0.00  0.00    +0.000 A 
ATOM     25  C   UNL     1       2.619   3.831  18.001  0.00  0.00    +0.000 A 
ATOM     26  C   UNL     1       2.125   2.534  17.870  0.00  0.00    +0.000 A 
ATOM     27  C   UNL     1       1.192   2.046  18.788  0.00  0.00    +0.000 A 
ATOM     28  C   UNL     1       0.758   2.855  19.839  0.00  0.00    +0.000 A 
ATOM     29  C   UNL     1       1.250   4.158  19.977  0.00  0.00    +0.000 A 
ENDBRANCH  21  24
ENDBRANCH  20  21
ENDBRANCH  19  20
ENDBRANCH  16  19
ENDBRANCH   2  15
BRANCH   1  30
ATOM     30  C   UNL     1      -1.634  10.511  17.555  0.00  0.00    +0.000 C 
ATOM     31  O   UNL     1      -1.382   9.455  16.980  0.00  0.00    +0.000 OA
BRANCH  30  32
ATOM     32  O   UNL     1      -2.341  11.530  16.985  0.00  0.00    +0.000 OA
BRANCH  32  34
ATOM     33  C   UNL     1      -3.435  10.720  15.018  0.00  0.00    +0.000 C 
ATOM     34  C   UNL     1      -3.624  11.143  16.466  0.00  0.00    +0.000 C 
ENDBRANCH  32  34
ENDBRANCH  30  32
ENDBRANCH   1  30
TORSDOF 8
ENDMDL
MODEL 8
REMARK VINA RESULT:      -7.0      6.742     10.412
REMARK  Name = 
REMARK  13 active torsions:
REMARK  status: ('A' for Active; 'I' for Inactive)
REMARK    1  A    between atoms: C_1  and  C_2
REMARK    2  A    between atoms: C_2  and  O_3
REMARK    3  A    between atoms: O_3  and  C_4
REMARK    4  A    between atoms: C_4  and  C_6
REMARK    5  A    between atoms: C_7  and  N_8
REMARK    6  A    between atoms: C_9  and  C_11
REMARK    7  A    between atoms: C_11  and  C_12
REMARK    8  A    between atoms: C_12  and  S_13
REMARK    9  A    between atoms: S_13  and  C_16
REMARK   10  A    between atoms: C_26  and  C_27
REMARK   11  A    between atoms: C_26  and  C_28
REMARK   12  A    between atoms: C_30  and  C_31
REMARK   13  A    between atoms: C_30  and  C_32
REMARK                            x       y       z     vdW  Elec       q    Type
REMARK                         _______ _______ _______ _____ _____    ______ ____
ROOT
ATOM      1  C   UNL     1      -1.053  10.600  18.905  0.00  0.00    +0.000 A 
ATOM      2  C   UNL     1       0.056  10.038  19.539  0.00  0.00    +0.000 A 
ATOM      3  S   UNL     1       0.415  10.831  21.007  0.00  0.00    +0.000 S 
ATOM      4  C   UNL     1      -1.068  11.653  21.018  0.00  0.00    +0.000 A 
ATOM      5  C   UNL     1      -1.718  11.550  19.802  0.00  0.00    +0.000 A 
ATOM      6  C   UNL     1      -3.023  12.291  19.578  0.00  0.00    +0.000 C 
ATOM      7  C   UNL     1      -3.267  13.398  20.659  0.00  0.00    +0.000 C 
ATOM      8  C   UNL     1      -4.767  13.768  20.716  0.00  0.00    +0.000 C 
ATOM      9  C   UNL     1      -2.507  14.686  20.291  0.00  0.00    +0.000 C 
ATOM     10  N   UNL     1      -2.935  12.919  22.026  0.00  0.00    +0.000 NA
ATOM     11  C   UNL     1      -1.559  12.404  22.237  0.00  0.00    +0.000 C 
ATOM     12  C   UNL     1      -0.610  13.550  22.622  0.00  0.00    +0.000 C 
ATOM     13  C   UNL     1      -1.657  11.436  23.443  0.00  0.00    +0.000 C 
ATOM     14  H   UNL     1      -3.581  12.154  22.236  0.00  0.00    +0.000 HD
ENDROOT
BRANCH   2  15
ATOM     15  N   UNL     1       0.967   9.045  19.161  0.00  0.00    +0.000 N 
ATOM     16  C   UNL     1       1.924   9.329  18.184  0.00  0.00    +0.000 C 
ATOM     17  O   UNL     1       2.124  10.441  17.700  0.00  0.00    +0.000 OA
ATOM     18  H   UNL     1       1.207   8.349  19.859  0.00  0.00    +0.000 HD
BRANCH  16  19
ATOM     19  C   UNL     1       2.773   8.158  17.717  0.00  0.00    +0.000 C 
BRANCH  19  20
ATOM     20  C   UNL     1       2.956   7.187  18.890  0.00  0.00    +0.000 C 
BRANCH  20  21
ATOM     21  S   UNL     1       3.883   5.735  18.458  0.00  0.00    +0.000 S 
ATOM     22  O   UNL     1       4.143   5.786  17.032  0.00  0.00    +0.000 OA
ATOM     23  O   UNL     1       4.975   5.594  19.404  0.00  0.00    +0.000 OA
BRANCH  21  24
ATOM     24  C   UNL     1       2.747   4.384  18.740  0.00  0.00    +0.000 A 
ATOM     25  C   UNL     1       1.765   4.507  19.731  0.00  0.00    +0.000 A 
ATOM     26  C   UNL     1       0.843   3.479  19.928  0.00  0.00    +0.000 A 
ATOM     27  C   UNL     1       0.892   2.335  19.128  0.00  0.00    +0.000 A 
ATOM     28  C   UNL     1       1.860   2.222  18.130  0.00  0.00    +0.000 A 
ATOM     29  C   UNL     1       2.789   3.249  17.926  0.00  0.00    +0.000 A 
ENDBRANCH  21  24
ENDBRANCH  20  21
ENDBRANCH  19  20
ENDBRANCH  16  19
ENDBRANCH   2  15
BRANCH   1  30
ATOM     30  C   UNL     1      -1.602  10.200  17.606  0.00  0.00    +0.000 C 
ATOM     31  O   UNL     1      -1.060   9.365  16.885  0.00  0.00    +0.000 OA
BRANCH  30  32
ATOM     32  O   UNL     1      -2.712  10.905  17.240  0.00  0.00    +0.000 OA
BRANCH  32  34
ATOM     33  C   UNL     1      -3.799  10.326  15.190  0.00  0.00    +0.000 C 
ATOM     34  C   UNL     1      -2.771  11.235  15.842  0.00  0.00    +0.000 C 
ENDBRANCH  32  34
ENDBRANCH  30  32
ENDBRANCH   1  30
TORSDOF 8
ENDMDL
MODEL 9
REMARK VINA RESULT:      -7.0      6.783     10.016
REMARK  Name = 
REMARK  13 active torsions:
REMARK  status: ('A' for Active; 'I' for Inactive)
REMARK    1  A    between atoms: C_1  and  C_2
REMARK    2  A    between atoms: C_2  and  O_3
REMARK    3  A    between atoms: O_3  and  C_4
REMARK    4  A    between atoms: C_4  and  C_6
REMARK    5  A    between atoms: C_7  and  N_8
REMARK    6  A    between atoms: C_9  and  C_11
REMARK    7  A    between atoms: C_11  and  C_12
REMARK    8  A    between atoms: C_12  and  S_13
REMARK    9  A    between atoms: S_13  and  C_16
REMARK   10  A    between atoms: C_26  and  C_27
REMARK   11  A    between atoms: C_26  and  C_28
REMARK   12  A    between atoms: C_30  and  C_31
REMARK   13  A    between atoms: C_30  and  C_32
REMARK                            x       y       z     vdW  Elec       q    Type
REMARK                         _______ _______ _______ _____ _____    ______ ____
ROOT
ATOM      1  C   UNL     1      -1.123  10.843  18.397  0.00  0.00    +0.000 A 
ATOM      2  C   UNL     1       0.173  10.429  18.710  0.00  0.00    +0.000 A 
ATOM      3  S   UNL     1       0.718  11.109  20.177  0.00  0.00    +0.000 S 
ATOM      4  C   UNL     1      -0.836  11.636  20.602  0.00  0.00    +0.000 A 
ATOM      5  C   UNL     1      -1.714  11.549  19.538  0.00  0.00    +0.000 A 
ATOM      6  C   UNL     1      -3.137  12.057  19.688  0.00  0.00    +0.000 C 
ATOM      7  C   UNL     1      -3.306  12.976  20.946  0.00  0.00    +0.000 C 
ATOM      8  C   UNL     1      -4.795  13.054  21.353  0.00  0.00    +0.000 C 
ATOM      9  C   UNL     1      -2.858  14.414  20.627  0.00  0.00    +0.000 C 
ATOM     10  N   UNL     1      -2.610  12.418  22.135  0.00  0.00    +0.000 NA
ATOM     11  C   UNL     1      -1.158  12.146  21.990  0.00  0.00    +0.000 C 
ATOM     12  C   UNL     1      -0.339  13.397  22.343  0.00  0.00    +0.000 C 
ATOM     13  C   UNL     1      -0.834  11.050  23.037  0.00  0.00    +0.000 C 
ATOM     14  H   UNL     1      -3.065  11.529  22.355  0.00  0.00    +0.000 HD
ENDROOT
BRANCH   2  15
ATOM     15  N   UNL     1       1.122   9.669  18.017  0.00  0.00    +0.000 N 
ATOM     16  C   UNL     1       1.720   8.576  18.650  0.00  0.00    +0.000 C 
ATOM     17  O   UNL     1       1.390   8.135  19.748  0.00  0.00    +0.000 OA
ATOM     18  H   UNL     1       1.035   9.631  17.007  0.00  0.00    +0.000 HD
BRANCH  16  19
ATOM     19  C   UNL     1       2.850   7.899  17.892  0.00  0.00    +0.000 C 
BRANCH  19  20
ATOM     20  C   UNL     1       3.627   7.004  18.866  0.00  0.00    +0.000 C 
BRANCH  20  21
ATOM     21  S   UNL     1       3.429   5.271  18.533  0.00  0.00    +0.000 S 
ATOM     22  O   UNL     1       3.535   4.566  19.797  0.00  0.00    +0.000 OA
ATOM     23  O   UNL     1       2.263   5.100  17.686  0.00  0.00    +0.000 OA
BRANCH  21  24
ATOM     24  C   UNL     1       4.868   4.839  17.565  0.00  0.00    +0.000 A 
ATOM     25  C   UNL     1       4.701   4.378  16.254  0.00  0.00    +0.000 A 
ATOM     26  C   UNL     1       5.819   4.083  15.473  0.00  0.00    +0.000 A 
ATOM     27  C   UNL     1       7.102   4.259  15.995  0.00  0.00    +0.000 A 
ATOM     28  C   UNL     1       7.266   4.735  17.297  0.00  0.00    +0.000 A 
ATOM     29  C   UNL     1       6.150   5.034  18.086  0.00  0.00    +0.000 A 
ENDBRANCH  21  24
ENDBRANCH  20  21
ENDBRANCH  19  20
ENDBRANCH  16  19
ENDBRANCH   2  15
BRANCH   1  30
ATOM     30  C   UNL     1      -1.876  10.494  17.188  0.00  0.00    +0.000 C 
ATOM     31  O   UNL     1      -1.895   9.357  16.725  0.00  0.00    +0.000 OA
BRANCH  30  32
ATOM     32  O   UNL     1      -2.472  11.564  16.587  0.00  0.00    +0.000 OA
BRANCH  32  34
ATOM     33  C   UNL     1      -4.854  11.401  16.736  0.00  0.00    +0.000 C 
ATOM     34  C   UNL     1      -3.648  11.237  15.827  0.00  0.00    +0.000 C 
ENDBRANCH  32  34
ENDBRANCH  30  32
ENDBRANCH   1  30
TORSDOF 8
ENDMDL
