MODEL 1
REMARK VINA RESULT:      -7.2      0.000      0.000
REMARK  Name = 
REMARK  10 active torsions:
REMARK  status: ('A' for Active; 'I' for Inactive)
REMARK    1  A    between atoms: C_1  and  O_2
REMARK    2  A    between atoms: O_2  and  C_3
REMARK    3  A    between atoms: C_3  and  C_4
REMARK    4  A    between atoms: C_4  and  C_5
REMARK    5  A    between atoms: C_5  and  N_6
REMARK    6  A    between atoms: C_7  and  C_9
REMARK    7  A    between atoms: C_9  and  O_10
REMARK    8  A    between atoms: O_10  and  C_11
REMARK    9  A    between atoms: N_20  and  C_21
REMARK   10  A    between atoms: C_21  and  C_22
REMARK                            x       y       z     vdW  Elec       q    Type
REMARK                         _______ _______ _______ _____ _____    ______ ____
ROOT
ATOM      1  C   UNL     1       3.130   6.009  18.725  0.00  0.00    +0.000 C 
ATOM      2  C   UNL     1       3.869   6.956  17.755  0.00  0.00    +0.000 C 
ATOM      3  C   UNL     1       4.803   6.256  16.772  0.00  0.00    +0.000 C 
ATOM      4  N   UNL     1       5.736   5.311  17.387  0.00  0.00    +0.000 NA
ATOM      5  C   UNL     1       5.159   4.434  18.412  0.00  0.00    +0.000 C 
ATOM      6  C   UNL     1       4.205   5.121  19.389  0.00  0.00    +0.000 C 
ENDROOT
BRANCH   1   7
ATOM      7  N   UNL     1       2.563   6.889  19.826  0.00  0.00    +0.000 N 
ATOM      8  C   UNL     1       1.828   8.035  19.952  0.00  0.00    +0.000 C 
ATOM      9  O   UNL     1       1.490   8.352  21.101  0.00  0.00    +0.000 OA
ATOM     10  H   UNL     1       2.685   6.499  20.759  0.00  0.00    +0.000 HD
BRANCH   8  11
ATOM     11  C   UNL     1       1.441   8.929  18.770  0.00  0.00    +0.000 C 
BRANCH  11  12
ATOM     12  O   UNL     1       1.009  10.209  19.210  0.00  0.00    +0.000 OA
BRANCH  12  13
ATOM     13  C   UNL     1      -0.244  10.635  18.853  0.00  0.00    +0.000 A 
ATOM     14  C   UNL     1      -0.964  11.684  19.430  0.00  0.00    +0.000 A 
ATOM     15  C   UNL     1      -2.219  12.044  18.921  0.00  0.00    +0.000 A 
ATOM     16  C   UNL     1      -2.753  11.345  17.850  0.00  0.00    +0.000 A 
ATOM     17  F   UNL     1      -3.953  11.694  17.368  0.00  0.00    +0.000 F 
ATOM     18  C   UNL     1      -2.055  10.298  17.266  0.00  0.00    +0.000 A 
ATOM     19  C   UNL     1      -0.798   9.947  17.767  0.00  0.00    +0.000 A 
ENDBRANCH  12  13
ENDBRANCH  11  12
ENDBRANCH   8  11
ENDBRANCH   1   7
BRANCH   1  20
ATOM     20  C   UNL     1       2.015   5.202  18.018  0.00  0.00    +0.000 C 
BRANCH  20  21
ATOM     21  C   UNL     1       1.485   3.883  18.550  0.00  0.00    +0.000 C 
BRANCH  21  23
ATOM     22  C   UNL     1       2.662   1.885  18.279  0.00  0.00    +0.000 C 
ATOM     23  O   UNL     1       1.821   2.835  17.630  0.00  0.00    +0.000 OA
ENDBRANCH  21  23
ENDBRANCH  20  21
ENDBRANCH   1  20
BRANCH   4  24
ATOM     24  C   UNL     1       6.408   4.483  16.370  0.00  0.00    +0.000 C 
BRANCH  24  25
ATOM     25  C   UNL     1       6.045   4.893  14.977  0.00  0.00    +0.000 C 
ATOM     26  C   UNL     1       7.098   4.919  13.899  0.00  0.00    +0.000 C 
ATOM     27  C   UNL     1       6.011   3.883  13.853  0.00  0.00    +0.000 C 
ENDBRANCH  24  25
ENDBRANCH   4  24
TORSDOF 9
ENDMDL
MODEL 2
REMARK VINA RESULT:      -6.9      1.648      1.982
REMARK  Name = 
REMARK  10 active torsions:
REMARK  status: ('A' for Active; 'I' for Inactive)
REMARK    1  A    between atoms: C_1  and  O_2
REMARK    2  A    between atoms: O_2  and  C_3
REMARK    3  A    between atoms: C_3  and  C_4
REMARK    4  A    between atoms: C_4  and  C_5
REMARK    5  A    between atoms: C_5  and  N_6
REMARK    6  A    between atoms: C_7  and  C_9
REMARK    7  A    between atoms: C_9  and  O_10
REMARK    8  A    between atoms: O_10  and  C_11
REMARK    9  A    between atoms: N_20  and  C_21
REMARK   10  A    between atoms: C_21  and  C_22
REMARK                            x       y       z     vdW  Elec       q    Type
REMARK                         _______ _______ _______ _____ _____    ______ ____
ROOT
ATOM      1  C   UNL     1       3.128   5.941  18.811  0.00  0.00    +0.000 C 
ATOM      2  C   UNL     1       3.803   6.862  17.771  0.00  0.00    +0.000 C 
ATOM      3  C   UNL     1       4.700   6.139  16.770  0.00  0.00    +0.000 C 
ATOM      4  N   UNL     1       5.679   5.234  17.374  0.00  0.00    +0.000 NA
ATOM      5  C   UNL     1       5.167   4.387  18.459  0.00  0.00    +0.000 C 
ATOM      6  C   UNL     1       4.249   5.096  19.454  0.00  0.00    +0.000 C 
ENDROOT
BRANCH   1   7
ATOM      7  N   UNL     1       2.599   6.854  19.904  0.00  0.00    +0.000 N 
ATOM      8  C   UNL     1       1.795   7.952  20.028  0.00  0.00    +0.000 C 
ATOM      9  O   UNL     1       1.540   8.324  21.183  0.00  0.00    +0.000 OA
ATOM     10  H   UNL     1       2.836   6.539  20.843  0.00  0.00    +0.000 HD
BRANCH   8  11
ATOM     11  C   UNL     1       1.234   8.733  18.836  0.00  0.00    +0.000 C 
BRANCH  11  12
ATOM     12  O   UNL     1       2.071   9.830  18.496  0.00  0.00    +0.000 OA
BRANCH  12  13
ATOM     13  C   UNL     1       1.541  11.093  18.534  0.00  0.00    +0.000 A 
ATOM     14  C   UNL     1       2.238  12.295  18.381  0.00  0.00    +0.000 A 
ATOM     15  C   UNL     1       1.552  13.515  18.387  0.00  0.00    +0.000 A 
ATOM     16  C   UNL     1       0.176  13.531  18.561  0.00  0.00    +0.000 A 
ATOM     17  F   UNL     1      -0.475  14.701  18.565  0.00  0.00    +0.000 F 
ATOM     18  C   UNL     1      -0.533  12.349  18.716  0.00  0.00    +0.000 A 
ATOM     19  C   UNL     1       0.151  11.130  18.700  0.00  0.00    +0.000 A 
ENDBRANCH  12  13
ENDBRANCH  11  12
ENDBRANCH   8  11
ENDBRANCH   1   7
BRANCH   1  20
ATOM     20  C   UNL     1       1.994   5.090  18.190  0.00  0.00    +0.000 C 
BRANCH  20  21
ATOM     21  C   UNL     1       1.479   3.812  18.824  0.00  0.00    +0.000 C 
BRANCH  21  23
ATOM     22  C   UNL     1       1.415   3.254  21.090  0.00  0.00    +0.000 C 
ATOM     23  O   UNL     1       0.883   4.120  20.091  0.00  0.00    +0.000 OA
ENDBRANCH  21  23
ENDBRANCH  20  21
ENDBRANCH   1  20
BRANCH   4  24
ATOM     24  C   UNL     1       6.315   4.377  16.358  0.00  0.00    +0.000 C 
BRANCH  24  25
ATOM     25  C   UNL     1       6.045   4.857  14.965  0.00  0.00    +0.000 C 
ATOM     26  C   UNL     1       7.155   4.877  13.945  0.00  0.00    +0.000 C 
ATOM     27  C   UNL     1       6.028   3.894  13.800  0.00  0.00    +0.000 C 
ENDBRANCH  24  25
ENDBRANCH   4  24
TORSDOF 9
ENDMDL
MODEL 3
REMARK VINA RESULT:      -6.9      3.692      8.024
REMARK  Name = 
REMARK  10 active torsions:
REMARK  status: ('A' for Active; 'I' for Inactive)
REMARK    1  A    between atoms: C_1  and  O_2
REMARK    2  A    between atoms: O_2  and  C_3
REMARK    3  A    between atoms: C_3  and  C_4
REMARK    4  A    between atoms: C_4  and  C_5
REMARK    5  A    between atoms: C_5  and  N_6
REMARK    6  A    between atoms: C_7  and  C_9
REMARK    7  A    between atoms: C_9  and  O_10
REMARK    8  A    between atoms: O_10  and  C_11
REMARK    9  A    between atoms: N_20  and  C_21
REMARK   10  A    between atoms: C_21  and  C_22
REMARK                            x       y       z     vdW  Elec       q    Type
REMARK                         _______ _______ _______ _____ _____    ______ ____
ROOT
ATOM      1  C   UNL     1       4.576   4.795  17.947  0.00  0.00    +0.000 C 
ATOM      2  C   UNL     1       4.305   4.831  19.467  0.00  0.00    +0.000 C 
ATOM      3  C   UNL     1       3.037   5.579  19.869  0.00  0.00    +0.000 C 
ATOM      4  N   UNL     1       2.910   6.916  19.289  0.00  0.00    +0.000 NA
ATOM      5  C   UNL     1       3.256   7.020  17.866  0.00  0.00    +0.000 C 
ATOM      6  C   UNL     1       4.512   6.255  17.448  0.00  0.00    +0.000 C 
ENDROOT
BRANCH   1   7
ATOM      7  N   UNL     1       6.020   4.351  17.785  0.00  0.00    +0.000 N 
ATOM      8  C   UNL     1       7.135   4.711  17.082  0.00  0.00    +0.000 C 
ATOM      9  O   UNL     1       8.179   4.101  17.351  0.00  0.00    +0.000 OA
ATOM     10  H   UNL     1       6.290   3.612  18.433  0.00  0.00    +0.000 HD
BRANCH   8  11
ATOM     11  C   UNL     1       7.141   5.787  15.992  0.00  0.00    +0.000 C 
BRANCH  11  12
ATOM     12  O   UNL     1       7.834   5.345  14.833  0.00  0.00    +0.000 OA
BRANCH  12  13
ATOM     13  C   UNL     1       7.122   4.714  13.847  0.00  0.00    +0.000 A 
ATOM     14  C   UNL     1       7.549   4.466  12.539  0.00  0.00    +0.000 A 
ATOM     15  C   UNL     1       6.730   3.756  11.652  0.00  0.00    +0.000 A 
ATOM     16  C   UNL     1       5.485   3.312  12.069  0.00  0.00    +0.000 A 
ATOM     17  F   UNL     1       4.707   2.633  11.216  0.00  0.00    +0.000 F 
ATOM     18  C   UNL     1       5.042   3.551  13.361  0.00  0.00    +0.000 A 
ATOM     19  C   UNL     1       5.864   4.250  14.251  0.00  0.00    +0.000 A 
ENDBRANCH  12  13
ENDBRANCH  11  12
ENDBRANCH   8  11
ENDBRANCH   1   7
BRANCH   1  20
ATOM     20  C   UNL     1       3.607   3.846  17.202  0.00  0.00    +0.000 C 
BRANCH  20  21
ATOM     21  C   UNL     1       2.890   2.696  17.884  0.00  0.00    +0.000 C 
BRANCH  21  23
ATOM     22  C   UNL     1       0.820   2.404  18.923  0.00  0.00    +0.000 C 
ATOM     23  O   UNL     1       1.474   2.875  17.748  0.00  0.00    +0.000 OA
ENDBRANCH  21  23
ENDBRANCH  20  21
ENDBRANCH   1  20
BRANCH   4  24
ATOM     24  C   UNL     1       1.558   7.463  19.494  0.00  0.00    +0.000 C 
BRANCH  24  25
ATOM     25  C   UNL     1       1.551   8.960  19.521  0.00  0.00    +0.000 C 
ATOM     26  C   UNL     1       1.395   9.738  18.240  0.00  0.00    +0.000 C 
ATOM     27  C   UNL     1       0.284   9.737  19.251  0.00  0.00    +0.000 C 
ENDBRANCH  24  25
ENDBRANCH   4  24
TORSDOF 9
ENDMDL
MODEL 4
REMARK VINA RESULT:      -6.9      0.495      1.107
REMARK  Name = 
REMARK  10 active torsions:
REMARK  status: ('A' for Active; 'I' for Inactive)
REMARK    1  A    between atoms: C_1  and  O_2
REMARK    2  A    between atoms: O_2  and  C_3
REMARK    3  A    between atoms: C_3  and  C_4
REMARK    4  A    between atoms: C_4  and  C_5
REMARK    5  A    between atoms: C_5  and  N_6
REMARK    6  A    between atoms: C_7  and  C_9
REMARK    7  A    between atoms: C_9  and  O_10
REMARK    8  A    between atoms: O_10  and  C_11
REMARK    9  A    between atoms: N_20  and  C_21
REMARK   10  A    between atoms: C_21  and  C_22
REMARK                            x       y       z     vdW  Elec       q    Type
REMARK                         _______ _______ _______ _____ _____    ______ ____
ROOT
ATOM      1  C   UNL     1       3.258   5.928  18.752  0.00  0.00    +0.000 C 
ATOM      2  C   UNL     1       3.911   6.973  17.822  0.00  0.00    +0.000 C 
ATOM      3  C   UNL     1       4.909   6.398  16.821  0.00  0.00    +0.000 C 
ATOM      4  N   UNL     1       5.923   5.522  17.409  0.00  0.00    +0.000 NA
ATOM      5  C   UNL     1       5.425   4.558  18.398  0.00  0.00    +0.000 C 
ATOM      6  C   UNL     1       4.407   5.119  19.391  0.00  0.00    +0.000 C 
ENDROOT
BRANCH   1   7
ATOM      7  N   UNL     1       2.607   6.712  19.879  0.00  0.00    +0.000 N 
ATOM      8  C   UNL     1       1.862   7.845  20.048  0.00  0.00    +0.000 C 
ATOM      9  O   UNL     1       1.438   8.062  21.193  0.00  0.00    +0.000 OA
ATOM     10  H   UNL     1       2.661   6.242  20.782  0.00  0.00    +0.000 HD
BRANCH   8  11
ATOM     11  C   UNL     1       1.561   8.839  18.923  0.00  0.00    +0.000 C 
BRANCH  11  12
ATOM     12  O   UNL     1       0.907   9.999  19.419  0.00  0.00    +0.000 OA
BRANCH  12  13
ATOM     13  C   UNL     1      -0.261  10.397  18.822  0.00  0.00    +0.000 A 
ATOM     14  C   UNL     1      -0.851   9.834  17.687  0.00  0.00    +0.000 A 
ATOM     15  C   UNL     1      -2.082  10.312  17.221  0.00  0.00    +0.000 A 
ATOM     16  C   UNL     1      -2.709  11.358  17.881  0.00  0.00    +0.000 A 
ATOM     17  F   UNL     1      -3.887  11.810  17.430  0.00  0.00    +0.000 F 
ATOM     18  C   UNL     1      -2.138  11.931  19.007  0.00  0.00    +0.000 A 
ATOM     19  C   UNL     1      -0.914  11.447  19.479  0.00  0.00    +0.000 A 
ENDBRANCH  12  13
ENDBRANCH  11  12
ENDBRANCH   8  11
ENDBRANCH   1   7
BRANCH   1  20
ATOM     20  C   UNL     1       2.224   5.048  18.008  0.00  0.00    +0.000 C 
BRANCH  20  21
ATOM     21  C   UNL     1       2.574   3.708  17.388  0.00  0.00    +0.000 C 
BRANCH  21  23
ATOM     22  C   UNL     1       1.034   3.156  19.054  0.00  0.00    +0.000 C 
ATOM     23  O   UNL     1       1.634   2.722  17.836  0.00  0.00    +0.000 OA
ENDBRANCH  21  23
ENDBRANCH  20  21
ENDBRANCH   1  20
BRANCH   4  24
ATOM     24  C   UNL     1       6.672   4.796  16.369  0.00  0.00    +0.000 C 
BRANCH  24  25
ATOM     25  C   UNL     1       6.171   5.105  14.992  0.00  0.00    +0.000 C 
ATOM     26  C   UNL     1       7.052   4.855  13.794  0.00  0.00    +0.000 C 
ATOM     27  C   UNL     1       5.839   3.998  14.018  0.00  0.00    +0.000 C 
ENDBRANCH  24  25
ENDBRANCH   4  24
TORSDOF 9
ENDMDL
MODEL 5
REMARK VINA RESULT:      -6.8      3.803      8.975
REMARK  Name = 
REMARK  10 active torsions:
REMARK  status: ('A' for Active; 'I' for Inactive)
REMARK    1  A    between atoms: C_1  and  O_2
REMARK    2  A    between atoms: O_2  and  C_3
REMARK    3  A    between atoms: C_3  and  C_4
REMARK    4  A    between atoms: C_4  and  C_5
REMARK    5  A    between atoms: C_5  and  N_6
REMARK    6  A    between atoms: C_7  and  C_9
REMARK    7  A    between atoms: C_9  and  O_10
REMARK    8  A    between atoms: O_10  and  C_11
REMARK    9  A    between atoms: N_20  and  C_21
REMARK   10  A    between atoms: C_21  and  C_22
REMARK                            x       y       z     vdW  Elec       q    Type
REMARK                         _______ _______ _______ _____ _____    ______ ____
ROOT
ATOM      1  C   UNL     1      -0.046  10.696  19.386  0.00  0.00    +0.000 C 
ATOM      2  C   UNL     1       0.016   9.919  20.719  0.00  0.00    +0.000 C 
ATOM      3  C   UNL     1      -0.664  10.617  21.893  0.00  0.00    +0.000 C 
ATOM      4  N   UNL     1      -0.265  12.011  22.087  0.00  0.00    +0.000 NA
ATOM      5  C   UNL     1      -0.181  12.817  20.862  0.00  0.00    +0.000 C 
ATOM      6  C   UNL     1       0.479  12.120  19.674  0.00  0.00    +0.000 C 
ENDROOT
BRANCH   1   7
ATOM      7  N   UNL     1       0.972  10.042  18.467  0.00  0.00    +0.000 N 
ATOM      8  C   UNL     1       1.756   8.923  18.430  0.00  0.00    +0.000 C 
ATOM      9  O   UNL     1       2.390   8.726  17.384  0.00  0.00    +0.000 OA
ATOM     10  H   UNL     1       1.068  10.513  17.569  0.00  0.00    +0.000 HD
BRANCH   8  11
ATOM     11  C   UNL     1       1.898   7.947  19.602  0.00  0.00    +0.000 C 
BRANCH  11  12
ATOM     12  O   UNL     1       2.750   6.859  19.269  0.00  0.00    +0.000 OA
BRANCH  12  13
ATOM     13  C   UNL     1       2.216   5.598  19.236  0.00  0.00    +0.000 A 
ATOM     14  C   UNL     1       1.658   4.899  20.310  0.00  0.00    +0.000 A 
ATOM     15  C   UNL     1       1.097   3.631  20.113  0.00  0.00    +0.000 A 
ATOM     16  C   UNL     1       1.111   3.061  18.849  0.00  0.00    +0.000 A 
ATOM     17  F   UNL     1       0.573   1.848  18.667  0.00  0.00    +0.000 F 
ATOM     18  C   UNL     1       1.663   3.736  17.771  0.00  0.00    +0.000 A 
ATOM     19  C   UNL     1       2.213   5.007  17.966  0.00  0.00    +0.000 A 
ENDBRANCH  12  13
ENDBRANCH  11  12
ENDBRANCH   8  11
ENDBRANCH   1   7
BRANCH   1  20
ATOM     20  C   UNL     1      -1.462  10.676  18.763  0.00  0.00    +0.000 C 
BRANCH  20  21
ATOM     21  C   UNL     1      -1.854  11.533  17.574  0.00  0.00    +0.000 C 
BRANCH  21  23
ATOM     22  C   UNL     1      -3.126   9.595  17.300  0.00  0.00    +0.000 C 
ATOM     23  O   UNL     1      -2.582  10.731  16.634  0.00  0.00    +0.000 OA
ENDBRANCH  21  23
ENDBRANCH  20  21
ENDBRANCH   1  20
BRANCH   4  24
ATOM     24  C   UNL     1      -1.149  12.693  23.049  0.00  0.00    +0.000 C 
BRANCH  24  25
ATOM     25  C   UNL     1      -2.514  12.079  23.097  0.00  0.00    +0.000 C 
ATOM     26  C   UNL     1      -3.591  12.699  23.949  0.00  0.00    +0.000 C 
ATOM     27  C   UNL     1      -3.697  12.762  22.451  0.00  0.00    +0.000 C 
ENDBRANCH  24  25
ENDBRANCH   4  24
TORSDOF 9
ENDMDL
MODEL 6
REMARK VINA RESULT:      -6.8      4.927      7.639
REMARK  Name = 
REMARK  10 active torsions:
REMARK  status: ('A' for Active; 'I' for Inactive)
REMARK    1  A    between atoms: C_1  and  O_2
REMARK    2  A    between atoms: O_2  and  C_3
REMARK    3  A    between atoms: C_3  and  C_4
REMARK    4  A    between atoms: C_4  and  C_5
REMARK    5  A    between atoms: C_5  and  N_6
REMARK    6  A    between atoms: C_7  and  C_9
REMARK    7  A    between atoms: C_9  and  O_10
REMARK    8  A    between atoms: O_10  and  C_11
REMARK    9  A    between atoms: N_20  and  C_21
REMARK   10  A    between atoms: C_21  and  C_22
REMARK                            x       y       z     vdW  Elec       q    Type
REMARK                         _______ _______ _______ _____ _____    ______ ____
ROOT
ATOM      1  C   UNL     1       4.915   5.027  17.634  0.00  0.00    +0.000 C 
ATOM      2  C   UNL     1       3.928   4.186  16.796  0.00  0.00    +0.000 C 
ATOM      3  C   UNL     1       2.927   3.377  17.616  0.00  0.00    +0.000 C 
ATOM      4  N   UNL     1       3.525   2.568  18.679  0.00  0.00    +0.000 NA
ATOM      5  C   UNL     1       4.564   3.238  19.470  0.00  0.00    +0.000 C 
ATOM      6  C   UNL     1       5.558   4.069  18.660  0.00  0.00    +0.000 C 
ENDROOT
BRANCH   1   7
ATOM      7  N   UNL     1       6.025   5.446  16.685  0.00  0.00    +0.000 N 
ATOM      8  C   UNL     1       7.081   6.312  16.656  0.00  0.00    +0.000 C 
ATOM      9  O   UNL     1       7.824   6.246  15.666  0.00  0.00    +0.000 OA
ATOM     10  H   UNL     1       6.068   4.881  15.838  0.00  0.00    +0.000 HD
BRANCH   8  11
ATOM     11  C   UNL     1       7.362   7.347  17.750  0.00  0.00    +0.000 C 
BRANCH  11  12
ATOM     12  O   UNL     1       7.634   8.626  17.195  0.00  0.00    +0.000 OA
BRANCH  12  13
ATOM     13  C   UNL     1       8.267   9.557  17.976  0.00  0.00    +0.000 A 
ATOM     14  C   UNL     1       8.986   9.311  19.149  0.00  0.00    +0.000 A 
ATOM     15  C   UNL     1       9.631  10.360  19.816  0.00  0.00    +0.000 A 
ATOM     16  C   UNL     1       9.541  11.651  19.318  0.00  0.00    +0.000 A 
ATOM     17  F   UNL     1      10.160  12.650  19.960  0.00  0.00    +0.000 F 
ATOM     18  C   UNL     1       8.830  11.916  18.157  0.00  0.00    +0.000 A 
ATOM     19  C   UNL     1       8.195  10.866  17.485  0.00  0.00    +0.000 A 
ENDBRANCH  12  13
ENDBRANCH  11  12
ENDBRANCH   8  11
ENDBRANCH   1   7
BRANCH   1  20
ATOM     20  C   UNL     1       4.233   6.256  18.281  0.00  0.00    +0.000 C 
BRANCH  20  21
ATOM     21  C   UNL     1       3.493   7.309  17.478  0.00  0.00    +0.000 C 
BRANCH  21  23
ATOM     22  C   UNL     1       2.023   9.068  17.924  0.00  0.00    +0.000 C 
ATOM     23  O   UNL     1       2.308   7.696  18.187  0.00  0.00    +0.000 OA
ENDBRANCH  21  23
ENDBRANCH  20  21
ENDBRANCH   1  20
BRANCH   4  24
ATOM     24  C   UNL     1       2.497   2.037  19.591  0.00  0.00    +0.000 C 
BRANCH  24  25
ATOM     25  C   UNL     1       2.419   2.812  20.869  0.00  0.00    +0.000 C 
ATOM     26  C   UNL     1       1.411   3.922  21.019  0.00  0.00    +0.000 C 
ATOM     27  C   UNL     1       1.244   2.652  21.805  0.00  0.00    +0.000 C 
ENDBRANCH  24  25
ENDBRANCH   4  24
TORSDOF 9
ENDMDL
MODEL 7
REMARK VINA RESULT:      -6.7      3.672      7.987
REMARK  Name = 
REMARK  10 active torsions:
REMARK  status: ('A' for Active; 'I' for Inactive)
REMARK    1  A    between atoms: C_1  and  O_2
REMARK    2  A    between atoms: O_2  and  C_3
REMARK    3  A    between atoms: C_3  and  C_4
REMARK    4  A    between atoms: C_4  and  C_5
REMARK    5  A    between atoms: C_5  and  N_6
REMARK    6  A    between atoms: C_7  and  C_9
REMARK    7  A    between atoms: C_9  and  O_10
REMARK    8  A    between atoms: O_10  and  C_11
REMARK    9  A    between atoms: N_20  and  C_21
REMARK   10  A    between atoms: C_21  and  C_22
REMARK                            x       y       z     vdW  Elec       q    Type
REMARK                         _______ _______ _______ _____ _____    ______ ____
ROOT
ATOM      1  C   UNL     1       3.960   5.483  18.269  0.00  0.00    +0.000 C 
ATOM      2  C   UNL     1       3.549   5.644  19.748  0.00  0.00    +0.000 C 
ATOM      3  C   UNL     1       2.322   6.522  19.976  0.00  0.00    +0.000 C 
ATOM      4  N   UNL     1       2.373   7.823  19.307  0.00  0.00    +0.000 NA
ATOM      5  C   UNL     1       2.861   7.800  17.923  0.00  0.00    +0.000 C 
ATOM      6  C   UNL     1       4.076   6.906  17.680  0.00  0.00    +0.000 C 
ENDROOT
BRANCH   1   7
ATOM      7  N   UNL     1       5.366   4.908  18.280  0.00  0.00    +0.000 N 
ATOM      8  C   UNL     1       6.563   5.104  17.651  0.00  0.00    +0.000 C 
ATOM      9  O   UNL     1       7.523   4.440  18.069  0.00  0.00    +0.000 OA
ATOM     10  H   UNL     1       5.515   4.219  19.016  0.00  0.00    +0.000 HD
BRANCH   8  11
ATOM     11  C   UNL     1       6.756   6.060  16.470  0.00  0.00    +0.000 C 
BRANCH  11  12
ATOM     12  O   UNL     1       7.620   5.504  15.490  0.00  0.00    +0.000 OA
BRANCH  12  13
ATOM     13  C   UNL     1       7.063   4.909  14.388  0.00  0.00    +0.000 A 
ATOM     14  C   UNL     1       7.637   4.801  13.118  0.00  0.00    +0.000 A 
ATOM     15  C   UNL     1       6.969   4.113  12.098  0.00  0.00    +0.000 A 
ATOM     16  C   UNL     1       5.727   3.549  12.345  0.00  0.00    +0.000 A 
ATOM     17  F   UNL     1       5.094   2.892  11.366  0.00  0.00    +0.000 F 
ATOM     18  C   UNL     1       5.140   3.648  13.598  0.00  0.00    +0.000 A 
ATOM     19  C   UNL     1       5.811   4.326  14.620  0.00  0.00    +0.000 A 
ENDBRANCH  12  13
ENDBRANCH  11  12
ENDBRANCH   8  11
ENDBRANCH   1   7
BRANCH   1  20
ATOM     20  C   UNL     1       2.985   4.571  17.487  0.00  0.00    +0.000 C 
BRANCH  20  21
ATOM     21  C   UNL     1       2.588   3.186  17.962  0.00  0.00    +0.000 C 
BRANCH  21  23
ATOM     22  C   UNL     1       3.729   1.225  18.516  0.00  0.00    +0.000 C 
ATOM     23  O   UNL     1       3.656   2.631  18.742  0.00  0.00    +0.000 OA
ENDBRANCH  21  23
ENDBRANCH  20  21
ENDBRANCH   1  20
BRANCH   4  24
ATOM     24  C   UNL     1       1.062   8.494  19.342  0.00  0.00    +0.000 C 
BRANCH  24  25
ATOM     25  C   UNL     1       1.117   9.872  18.757  0.00  0.00    +0.000 C 
ATOM     26  C   UNL     1      -0.154  10.564  18.336  0.00  0.00    +0.000 C 
ATOM     27  C   UNL     1       0.607  11.066  19.530  0.00  0.00    +0.000 C 
ENDBRANCH  24  25
ENDBRANCH   4  24
TORSDOF 9
ENDMDL
MODEL 8
REMARK VINA RESULT:      -6.7      4.295      8.139
REMARK  Name = 
REMARK  10 active torsions:
REMARK  status: ('A' for Active; 'I' for Inactive)
REMARK    1  A    between atoms: C_1  and  O_2
REMARK    2  A    between atoms: O_2  and  C_3
REMARK    3  A    between atoms: C_3  and  C_4
REMARK    4  A    between atoms: C_4  and  C_5
REMARK    5  A    between atoms: C_5  and  N_6
REMARK    6  A    between atoms: C_7  and  C_9
REMARK    7  A    between atoms: C_9  and  O_10
REMARK    8  A    between atoms: O_10  and  C_11
REMARK    9  A    between atoms: N_20  and  C_21
REMARK   10  A    between atoms: C_21  and  C_22
REMARK                            x       y       z     vdW  Elec       q    Type
REMARK                         _______ _______ _______ _____ _____    ______ ____
ROOT
ATOM      1  C   UNL     1       4.626   4.439  18.377  0.00  0.00    +0.000 C 
ATOM      2  C   UNL     1       4.384   4.125  19.869  0.00  0.00    +0.000 C 
ATOM      3  C   UNL     1       3.089   4.697  20.437  0.00  0.00    +0.000 C 
ATOM      4  N   UNL     1       2.882   6.121  20.166  0.00  0.00    +0.000 NA
ATOM      5  C   UNL     1       3.193   6.552  18.798  0.00  0.00    +0.000 C 
ATOM      6  C   UNL     1       4.477   5.967  18.212  0.00  0.00    +0.000 C 
ENDROOT
BRANCH   1   7
ATOM      7  N   UNL     1       6.086   4.119  18.108  0.00  0.00    +0.000 N 
ATOM      8  C   UNL     1       7.176   4.699  17.522  0.00  0.00    +0.000 C 
ATOM      9  O   UNL     1       8.251   4.090  17.627  0.00  0.00    +0.000 OA
ATOM     10  H   UNL     1       6.398   3.254  18.547  0.00  0.00    +0.000 HD
BRANCH   8  11
ATOM     11  C   UNL     1       7.121   6.016  16.742  0.00  0.00    +0.000 C 
BRANCH  11  12
ATOM     12  O   UNL     1       6.127   5.975  15.727  0.00  0.00    +0.000 OA
BRANCH  12  13
ATOM     13  C   UNL     1       6.339   5.172  14.638  0.00  0.00    +0.000 A 
ATOM     14  C   UNL     1       5.512   4.138  14.191  0.00  0.00    +0.000 A 
ATOM     15  C   UNL     1       5.829   3.434  13.023  0.00  0.00    +0.000 A 
ATOM     16  C   UNL     1       6.977   3.755  12.315  0.00  0.00    +0.000 A 
ATOM     17  F   UNL     1       7.275   3.079  11.199  0.00  0.00    +0.000 F 
ATOM     18  C   UNL     1       7.812   4.776  12.744  0.00  0.00    +0.000 A 
ATOM     19  C   UNL     1       7.490   5.486  13.905  0.00  0.00    +0.000 A 
ENDBRANCH  12  13
ENDBRANCH  11  12
ENDBRANCH   8  11
ENDBRANCH   1   7
BRANCH   1  20
ATOM     20  C   UNL     1       3.691   3.625  17.450  0.00  0.00    +0.000 C 
BRANCH  20  21
ATOM     21  C   UNL     1       3.171   2.245  17.805  0.00  0.00    +0.000 C 
BRANCH  21  23
ATOM     22  C   UNL     1       1.045   2.455  18.747  0.00  0.00    +0.000 C 
ATOM     23  O   UNL     1       1.762   2.190  17.544  0.00  0.00    +0.000 OA
ENDBRANCH  21  23
ENDBRANCH  20  21
ENDBRANCH   1  20
BRANCH   4  24
ATOM     24  C   UNL     1       1.508   6.535  20.499  0.00  0.00    +0.000 C 
BRANCH  24  25
ATOM     25  C   UNL     1       1.375   8.023  20.599  0.00  0.00    +0.000 C 
ATOM     26  C   UNL     1       0.143   8.632  21.218  0.00  0.00    +0.000 C 
ATOM     27  C   UNL     1       1.460   8.724  21.935  0.00  0.00    +0.000 C 
ENDBRANCH  24  25
ENDBRANCH   4  24
TORSDOF 9
ENDMDL
MODEL 9
REMARK VINA RESULT:      -6.7      1.231      1.698
REMARK  Name = 
REMARK  10 active torsions:
REMARK  status: ('A' for Active; 'I' for Inactive)
REMARK    1  A    between atoms: C_1  and  O_2
REMARK    2  A    between atoms: O_2  and  C_3
REMARK    3  A    between atoms: C_3  and  C_4
REMARK    4  A    between atoms: C_4  and  C_5
REMARK    5  A    between atoms: C_5  and  N_6
REMARK    6  A    between atoms: C_7  and  C_9
REMARK    7  A    between atoms: C_9  and  O_10
REMARK    8  A    between atoms: O_10  and  C_11
REMARK    9  A    between atoms: N_20  and  C_21
REMARK   10  A    between atoms: C_21  and  C_22
REMARK                            x       y       z     vdW  Elec       q    Type
REMARK                         _______ _______ _______ _____ _____    ______ ____
ROOT
ATOM      1  C   UNL     1       3.912   5.656  17.971  0.00  0.00    +0.000 C 
ATOM      2  C   UNL     1       4.267   6.675  16.867  0.00  0.00    +0.000 C 
ATOM      3  C   UNL     1       5.251   6.161  15.820  0.00  0.00    +0.000 C 
ATOM      4  N   UNL     1       6.461   5.551  16.371  0.00  0.00    +0.000 NA
ATOM      5  C   UNL     1       6.248   4.645  17.506  0.00  0.00    +0.000 C 
ATOM      6  C   UNL     1       5.247   5.141  18.550  0.00  0.00    +0.000 C 
ENDROOT
BRANCH   1   7
ATOM      7  N   UNL     1       3.242   6.450  19.080  0.00  0.00    +0.000 N 
ATOM      8  C   UNL     1       2.336   7.464  19.217  0.00  0.00    +0.000 C 
ATOM      9  O   UNL     1       1.985   7.739  20.373  0.00  0.00    +0.000 OA
ATOM     10  H   UNL     1       3.453   6.098  20.012  0.00  0.00    +0.000 HD
BRANCH   8  11
ATOM     11  C   UNL     1       1.776   8.267  18.039  0.00  0.00    +0.000 C 
BRANCH  11  12
ATOM     12  O   UNL     1       1.775   9.660  18.317  0.00  0.00    +0.000 OA
BRANCH  12  13
ATOM     13  C   UNL     1       0.579  10.273  18.586  0.00  0.00    +0.000 A 
ATOM     14  C   UNL     1      -0.631  10.072  17.915  0.00  0.00    +0.000 A 
ATOM     15  C   UNL     1      -1.792  10.730  18.339  0.00  0.00    +0.000 A 
ATOM     16  C   UNL     1      -1.736  11.596  19.420  0.00  0.00    +0.000 A 
ATOM     17  F   UNL     1      -2.850  12.222  19.821  0.00  0.00    +0.000 F 
ATOM     18  C   UNL     1      -0.545  11.811  20.097  0.00  0.00    +0.000 A 
ATOM     19  C   UNL     1       0.612  11.146  19.680  0.00  0.00    +0.000 A 
ENDBRANCH  12  13
ENDBRANCH  11  12
ENDBRANCH   8  11
ENDBRANCH   1   7
BRANCH   1  20
ATOM     20  C   UNL     1       2.990   4.528  17.450  0.00  0.00    +0.000 C 
BRANCH  20  21
ATOM     21  C   UNL     1       2.337   3.506  18.363  0.00  0.00    +0.000 C 
BRANCH  21  23
ATOM     22  C   UNL     1       1.045   3.474  20.307  0.00  0.00    +0.000 C 
ATOM     23  O   UNL     1       1.243   4.124  19.054  0.00  0.00    +0.000 OA
ENDBRANCH  21  23
ENDBRANCH  20  21
ENDBRANCH   1  20
BRANCH   4  24
ATOM     24  C   UNL     1       7.225   4.841  15.330  0.00  0.00    +0.000 C 
BRANCH  24  25
ATOM     25  C   UNL     1       6.518   4.842  14.010  0.00  0.00    +0.000 C 
ATOM     26  C   UNL     1       7.249   4.419  12.761  0.00  0.00    +0.000 C 
ATOM     27  C   UNL     1       6.160   3.547  13.319  0.00  0.00    +0.000 C 
ENDBRANCH  24  25
ENDBRANCH   4  24
TORSDOF 9
ENDMDL
