MODEL 1
REMARK VINA RESULT:      -8.6      0.000      0.000
REMARK  Name = 
REMARK  6 active torsions:
REMARK  status: ('A' for Active; 'I' for Inactive)
REMARK    1  A    between atoms: C_2  and  C_3
REMARK    2  A    between atoms: C_3  and  S_4
REMARK    3  A    between atoms: S_4  and  C_5
REMARK    4  A    between atoms: C_11  and  C_12
REMARK    5  A    between atoms: N_24  and  C_25
REMARK    6  A    between atoms: C_25  and  C_26
REMARK                            x       y       z     vdW  Elec       q    Type
REMARK                         _______ _______ _______ _____ _____    ______ ____
ROOT
ATOM      1  C   UNL     1       5.311   5.007  16.474  0.00  0.00    +0.000 A 
ATOM      2  N   UNL     1       4.960   5.916  15.589  0.00  0.00    +0.000 NA
ATOM      3  N   UNL     1       5.638   7.086  15.887  0.00  0.00    +0.000 NA
ATOM      4  C   UNL     1       6.390   6.836  16.931  0.00  0.00    +0.000 A 
ATOM      5  C   UNL     1       7.310   7.676  17.626  0.00  0.00    +0.000 A 
ATOM      6  C   UNL     1       7.672   8.991  17.531  0.00  0.00    +0.000 A 
ATOM      7  C   UNL     1       8.656   9.173  18.542  0.00  0.00    +0.000 A 
ATOM      8  N   UNL     1       8.876   8.030  19.214  0.00  0.00    +0.000 NA
ATOM      9  N   UNL     1       8.051   7.115  18.663  0.00  0.00    +0.000 N 
ATOM     10  C   UNL     1       7.894   5.764  19.026  0.00  0.00    +0.000 A 
ATOM     11  C   UNL     1       7.009   4.975  18.382  0.00  0.00    +0.000 A 
ATOM     12  N   UNL     1       6.250   5.517  17.335  0.00  0.00    +0.000 N 
ENDROOT
BRANCH   7  13
ATOM     13  C   UNL     1       9.376  10.405  18.882  0.00  0.00    +0.000 A 
ATOM     14  C   UNL     1       9.570  10.763  20.227  0.00  0.00    +0.000 A 
ATOM     15  C   UNL     1      10.236  11.944  20.563  0.00  0.00    +0.000 A 
ATOM     16  C   UNL     1      10.719  12.766  19.554  0.00  0.00    +0.000 A 
ATOM     17  F   UNL     1      11.356  13.900  19.873  0.00  0.00    +0.000 F 
ATOM     18  C   UNL     1      10.550  12.429  18.216  0.00  0.00    +0.000 A 
ATOM     19  C   UNL     1       9.878  11.249  17.880  0.00  0.00    +0.000 A 
ENDBRANCH   7  13
BRANCH   1  20
ATOM     20  S   UNL     1       4.773   3.365  16.516  0.00  0.00    +0.000 S 
BRANCH  20  21
ATOM     21  C   UNL     1       3.113   3.592  17.218  0.00  0.00    +0.000 C 
BRANCH  21  23
ATOM     22  O   UNL     1       3.732   3.783  19.540  0.00  0.00    +0.000 OA
ATOM     23  C   UNL     1       3.210   4.305  18.557  0.00  0.00    +0.000 C 
ATOM     24  N   UNL     1       2.617   5.548  18.590  0.00  0.00    +0.000 N 
ATOM     25  H   UNL     1       2.084   5.867  17.787  0.00  0.00    +0.000 HD
BRANCH  24  26
ATOM     26  C   UNL     1       2.524   6.321  19.806  0.00  0.00    +0.000 C 
BRANCH  26  27
ATOM     27  C   UNL     1       1.995   7.704  19.536  0.00  0.00    +0.000 A 
ATOM     28  C   UNL     1       1.315   8.423  20.532  0.00  0.00    +0.000 A 
ATOM     29  C   UNL     1       0.851   9.716  20.277  0.00  0.00    +0.000 A 
ATOM     30  C   UNL     1       1.056  10.294  19.026  0.00  0.00    +0.000 A 
ATOM     31 CL   UNL     1       0.500  11.894  18.724  0.00  0.00    +0.000 Cl
ATOM     32  C   UNL     1       1.708   9.585  18.021  0.00  0.00    +0.000 A 
ATOM     33  C   UNL     1       2.171   8.291  18.274  0.00  0.00    +0.000 A 
ENDBRANCH  26  27
ENDBRANCH  24  26
ENDBRANCH  21  23
ENDBRANCH  20  21
ENDBRANCH   1  20
TORSDOF 6
ENDMDL
MODEL 2
REMARK VINA RESULT:      -8.6      6.294      8.885
REMARK  Name = 
REMARK  6 active torsions:
REMARK  status: ('A' for Active; 'I' for Inactive)
REMARK    1  A    between atoms: C_2  and  C_3
REMARK    2  A    between atoms: C_3  and  S_4
REMARK    3  A    between atoms: S_4  and  C_5
REMARK    4  A    between atoms: C_11  and  C_12
REMARK    5  A    between atoms: N_24  and  C_25
REMARK    6  A    between atoms: C_25  and  C_26
REMARK                            x       y       z     vdW  Elec       q    Type
REMARK                         _______ _______ _______ _____ _____    ______ ____
ROOT
ATOM      1  C   UNL     1       0.556  11.359  20.838  0.00  0.00    +0.000 A 
ATOM      2  N   UNL     1       0.478  10.773  22.014  0.00  0.00    +0.000 NA
ATOM      3  N   UNL     1       0.856   9.450  21.859  0.00  0.00    +0.000 NA
ATOM      4  C   UNL     1       1.169   9.289  20.596  0.00  0.00    +0.000 A 
ATOM      5  C   UNL     1       1.652   8.138  19.906  0.00  0.00    +0.000 A 
ATOM      6  C   UNL     1       1.877   6.834  20.251  0.00  0.00    +0.000 A 
ATOM      7  C   UNL     1       2.368   6.222  19.065  0.00  0.00    +0.000 A 
ATOM      8  N   UNL     1       2.434   7.107  18.056  0.00  0.00    +0.000 NA
ATOM      9  N   UNL     1       1.991   8.276  18.563  0.00  0.00    +0.000 N 
ATOM     10  C   UNL     1       1.854   9.509  17.897  0.00  0.00    +0.000 A 
ATOM     11  C   UNL     1       1.378  10.593  18.545  0.00  0.00    +0.000 A 
ATOM     12  N   UNL     1       1.028  10.479  19.897  0.00  0.00    +0.000 N 
ENDROOT
BRANCH   7  13
ATOM     13  C   UNL     1       2.762   4.822  18.875  0.00  0.00    +0.000 A 
ATOM     14  C   UNL     1       1.876   3.913  18.272  0.00  0.00    +0.000 A 
ATOM     15  C   UNL     1       2.232   2.572  18.104  0.00  0.00    +0.000 A 
ATOM     16  C   UNL     1       3.481   2.140  18.530  0.00  0.00    +0.000 A 
ATOM     17  F   UNL     1       3.825   0.855  18.373  0.00  0.00    +0.000 F 
ATOM     18  C   UNL     1       4.380   3.021  19.119  0.00  0.00    +0.000 A 
ATOM     19  C   UNL     1       4.021   4.362  19.292  0.00  0.00    +0.000 A 
ENDBRANCH   7  13
BRANCH   1  20
ATOM     20  S   UNL     1       0.226  13.022  20.506  0.00  0.00    +0.000 S 
BRANCH  20  21
ATOM     21  C   UNL     1      -0.990  13.372  21.809  0.00  0.00    +0.000 C 
BRANCH  21  23
ATOM     22  O   UNL     1      -3.133  12.377  22.290  0.00  0.00    +0.000 OA
ATOM     23  C   UNL     1      -2.335  12.766  21.440  0.00  0.00    +0.000 C 
ATOM     24  N   UNL     1      -2.556  12.641  20.086  0.00  0.00    +0.000 N 
ATOM     25  H   UNL     1      -1.805  12.854  19.436  0.00  0.00    +0.000 HD
BRANCH  24  26
ATOM     26  C   UNL     1      -3.733  11.993  19.558  0.00  0.00    +0.000 C 
BRANCH  26  27
ATOM     27  C   UNL     1      -3.487  11.452  18.175  0.00  0.00    +0.000 A 
ATOM     28  C   UNL     1      -2.348  10.683  17.893  0.00  0.00    +0.000 A 
ATOM     29  C   UNL     1      -2.145  10.165  16.612  0.00  0.00    +0.000 A 
ATOM     30  C   UNL     1      -3.072  10.419  15.604  0.00  0.00    +0.000 A 
ATOM     31 CL   UNL     1      -2.829   9.762  14.033  0.00  0.00    +0.000 Cl
ATOM     32  C   UNL     1      -4.196  11.200  15.862  0.00  0.00    +0.000 A 
ATOM     33  C   UNL     1      -4.400  11.720  17.143  0.00  0.00    +0.000 A 
ENDBRANCH  26  27
ENDBRANCH  24  26
ENDBRANCH  21  23
ENDBRANCH  20  21
ENDBRANCH   1  20
TORSDOF 6
ENDMDL
MODEL 3
REMARK VINA RESULT:      -8.4      6.085      9.108
REMARK  Name = 
REMARK  6 active torsions:
REMARK  status: ('A' for Active; 'I' for Inactive)
REMARK    1  A    between atoms: C_2  and  C_3
REMARK    2  A    between atoms: C_3  and  S_4
REMARK    3  A    between atoms: S_4  and  C_5
REMARK    4  A    between atoms: C_11  and  C_12
REMARK    5  A    between atoms: N_24  and  C_25
REMARK    6  A    between atoms: C_25  and  C_26
REMARK                            x       y       z     vdW  Elec       q    Type
REMARK                         _______ _______ _______ _____ _____    ______ ____
ROOT
ATOM      1  C   UNL     1      -0.578  11.340  22.617  0.00  0.00    +0.000 A 
ATOM      2  N   UNL     1      -0.403  10.361  23.480  0.00  0.00    +0.000 NA
ATOM      3  N   UNL     1       0.243   9.325  22.827  0.00  0.00    +0.000 NA
ATOM      4  C   UNL     1       0.452   9.723  21.595  0.00  0.00    +0.000 A 
ATOM      5  C   UNL     1       1.105   9.063  20.513  0.00  0.00    +0.000 A 
ATOM      6  C   UNL     1       1.650   7.823  20.330  0.00  0.00    +0.000 A 
ATOM      7  C   UNL     1       2.140   7.831  18.996  0.00  0.00    +0.000 A 
ATOM      8  N   UNL     1       1.903   9.013  18.401  0.00  0.00    +0.000 NA
ATOM      9  N   UNL     1       1.266   9.766  19.321  0.00  0.00    +0.000 N 
ATOM     10  C   UNL     1       0.789  11.083  19.179  0.00  0.00    +0.000 A 
ATOM     11  C   UNL     1       0.153  11.700  20.197  0.00  0.00    +0.000 A 
ATOM     12  N   UNL     1      -0.021  11.013  21.407  0.00  0.00    +0.000 N 
ENDROOT
BRANCH   7  13
ATOM     13  C   UNL     1       2.814   6.742  18.280  0.00  0.00    +0.000 A 
ATOM     14  C   UNL     1       4.016   6.983  17.594  0.00  0.00    +0.000 A 
ATOM     15  C   UNL     1       4.657   5.958  16.892  0.00  0.00    +0.000 A 
ATOM     16  C   UNL     1       4.100   4.687  16.883  0.00  0.00    +0.000 A 
ATOM     17  F   UNL     1       4.710   3.703  16.209  0.00  0.00    +0.000 F 
ATOM     18  C   UNL     1       2.917   4.420  17.562  0.00  0.00    +0.000 A 
ATOM     19  C   UNL     1       2.274   5.447  18.260  0.00  0.00    +0.000 A 
ENDBRANCH   7  13
BRANCH   1  20
ATOM     20  S   UNL     1      -1.302  12.874  22.950  0.00  0.00    +0.000 S 
BRANCH  20  21
ATOM     21  C   UNL     1      -3.058  12.440  22.780  0.00  0.00    +0.000 C 
BRANCH  21  23
ATOM     22  O   UNL     1      -3.573  14.276  21.306  0.00  0.00    +0.000 OA
ATOM     23  C   UNL     1      -3.628  13.066  21.517  0.00  0.00    +0.000 C 
ATOM     24  N   UNL     1      -4.253  12.180  20.668  0.00  0.00    +0.000 N 
ATOM     25  H   UNL     1      -4.385  11.217  20.962  0.00  0.00    +0.000 HD
BRANCH  24  26
ATOM     26  C   UNL     1      -4.939  12.617  19.475  0.00  0.00    +0.000 C 
BRANCH  26  27
ATOM     27  C   UNL     1      -4.380  11.949  18.247  0.00  0.00    +0.000 A 
ATOM     28  C   UNL     1      -5.182  11.733  17.116  0.00  0.00    +0.000 A 
ATOM     29  C   UNL     1      -4.645  11.136  15.973  0.00  0.00    +0.000 A 
ATOM     30  C   UNL     1      -3.308  10.745  15.956  0.00  0.00    +0.000 A 
ATOM     31 CL   UNL     1      -2.644  10.028  14.539  0.00  0.00    +0.000 Cl
ATOM     32  C   UNL     1      -2.505  10.932  17.079  0.00  0.00    +0.000 A 
ATOM     33  C   UNL     1      -3.042  11.527  18.223  0.00  0.00    +0.000 A 
ENDBRANCH  26  27
ENDBRANCH  24  26
ENDBRANCH  21  23
ENDBRANCH  20  21
ENDBRANCH   1  20
TORSDOF 6
ENDMDL
MODEL 4
REMARK VINA RESULT:      -8.1      0.833      1.211
REMARK  Name = 
REMARK  6 active torsions:
REMARK  status: ('A' for Active; 'I' for Inactive)
REMARK    1  A    between atoms: C_2  and  C_3
REMARK    2  A    between atoms: C_3  and  S_4
REMARK    3  A    between atoms: S_4  and  C_5
REMARK    4  A    between atoms: C_11  and  C_12
REMARK    5  A    between atoms: N_24  and  C_25
REMARK    6  A    between atoms: C_25  and  C_26
REMARK                            x       y       z     vdW  Elec       q    Type
REMARK                         _______ _______ _______ _____ _____    ______ ____
ROOT
ATOM      1  C   UNL     1       5.302   5.050  16.898  0.00  0.00    +0.000 A 
ATOM      2  N   UNL     1       4.825   5.863  15.979  0.00  0.00    +0.000 NA
ATOM      3  N   UNL     1       5.462   7.085  16.118  0.00  0.00    +0.000 NA
ATOM      4  C   UNL     1       6.316   6.960  17.105  0.00  0.00    +0.000 A 
ATOM      5  C   UNL     1       7.246   7.898  17.643  0.00  0.00    +0.000 A 
ATOM      6  C   UNL     1       7.526   9.216  17.410  0.00  0.00    +0.000 A 
ATOM      7  C   UNL     1       8.584   9.529  18.308  0.00  0.00    +0.000 A 
ATOM      8  N   UNL     1       8.924   8.459  19.046  0.00  0.00    +0.000 NA
ATOM      9  N   UNL     1       8.105   7.463  18.649  0.00  0.00    +0.000 N 
ATOM     10  C   UNL     1       8.054   6.142  19.132  0.00  0.00    +0.000 A 
ATOM     11  C   UNL     1       7.160   5.260  18.638  0.00  0.00    +0.000 A 
ATOM     12  N   UNL     1       6.284   5.675  17.625  0.00  0.00    +0.000 N 
ENDROOT
BRANCH   7  13
ATOM     13  C   UNL     1       9.263  10.818  18.480  0.00  0.00    +0.000 A 
ATOM     14  C   UNL     1      10.311  10.947  19.407  0.00  0.00    +0.000 A 
ATOM     15  C   UNL     1      10.951  12.175  19.595  0.00  0.00    +0.000 A 
ATOM     16  C   UNL     1      10.551  13.274  18.849  0.00  0.00    +0.000 A 
ATOM     17  F   UNL     1      11.161  14.453  19.028  0.00  0.00    +0.000 F 
ATOM     18  C   UNL     1       9.524  13.170  17.918  0.00  0.00    +0.000 A 
ATOM     19  C   UNL     1       8.879  11.943  17.734  0.00  0.00    +0.000 A 
ENDBRANCH   7  13
BRANCH   1  20
ATOM     20  S   UNL     1       4.860   3.394  17.120  0.00  0.00    +0.000 S 
BRANCH  20  21
ATOM     21  C   UNL     1       3.058   3.516  16.920  0.00  0.00    +0.000 C 
BRANCH  21  23
ATOM     22  O   UNL     1       1.274   3.857  18.505  0.00  0.00    +0.000 OA
ATOM     23  C   UNL     1       2.434   4.099  18.178  0.00  0.00    +0.000 C 
ATOM     24  N   UNL     1       3.253   4.955  18.881  0.00  0.00    +0.000 N 
ATOM     25  H   UNL     1       4.151   5.220  18.489  0.00  0.00    +0.000 HD
BRANCH  24  26
ATOM     26  C   UNL     1       2.790   5.677  20.042  0.00  0.00    +0.000 C 
BRANCH  26  27
ATOM     27  C   UNL     1       2.262   7.036  19.667  0.00  0.00    +0.000 A 
ATOM     28  C   UNL     1       2.505   7.578  18.396  0.00  0.00    +0.000 A 
ATOM     29  C   UNL     1       1.987   8.829  18.051  0.00  0.00    +0.000 A 
ATOM     30  C   UNL     1       1.233   9.549  18.975  0.00  0.00    +0.000 A 
ATOM     31 CL   UNL     1       0.581  11.080  18.540  0.00  0.00    +0.000 Cl
ATOM     32  C   UNL     1       1.004   9.034  20.249  0.00  0.00    +0.000 A 
ATOM     33  C   UNL     1       1.522   7.784  20.596  0.00  0.00    +0.000 A 
ENDBRANCH  26  27
ENDBRANCH  24  26
ENDBRANCH  21  23
ENDBRANCH  20  21
ENDBRANCH   1  20
TORSDOF 6
ENDMDL
MODEL 5
REMARK VINA RESULT:      -8.1      5.838      8.346
REMARK  Name = 
REMARK  6 active torsions:
REMARK  status: ('A' for Active; 'I' for Inactive)
REMARK    1  A    between atoms: C_2  and  C_3
REMARK    2  A    between atoms: C_3  and  S_4
REMARK    3  A    between atoms: S_4  and  C_5
REMARK    4  A    between atoms: C_11  and  C_12
REMARK    5  A    between atoms: N_24  and  C_25
REMARK    6  A    between atoms: C_25  and  C_26
REMARK                            x       y       z     vdW  Elec       q    Type
REMARK                         _______ _______ _______ _____ _____    ______ ____
ROOT
ATOM      1  C   UNL     1       0.098  10.988  20.988  0.00  0.00    +0.000 A 
ATOM      2  N   UNL     1       0.300  11.671  19.881  0.00  0.00    +0.000 NA
ATOM      3  N   UNL     1       1.046  10.882  19.022  0.00  0.00    +0.000 NA
ATOM      4  C   UNL     1       1.253   9.741  19.635  0.00  0.00    +0.000 A 
ATOM      5  C   UNL     1       1.931   8.567  19.192  0.00  0.00    +0.000 A 
ATOM      6  C   UNL     1       2.647   8.234  18.075  0.00  0.00    +0.000 A 
ATOM      7  C   UNL     1       3.045   6.885  18.286  0.00  0.00    +0.000 A 
ATOM      8  N   UNL     1       2.597   6.428  19.468  0.00  0.00    +0.000 NA
ATOM      9  N   UNL     1       1.922   7.454  20.027  0.00  0.00    +0.000 N 
ATOM     10  C   UNL     1       1.275   7.482  21.277  0.00  0.00    +0.000 A 
ATOM     11  C   UNL     1       0.650   8.599  21.704  0.00  0.00    +0.000 A 
ATOM     12  N   UNL     1       0.646   9.734  20.882  0.00  0.00    +0.000 N 
ENDROOT
BRANCH   7  13
ATOM     13  C   UNL     1       3.846   6.036  17.397  0.00  0.00    +0.000 A 
ATOM     14  C   UNL     1       4.715   6.616  16.457  0.00  0.00    +0.000 A 
ATOM     15  C   UNL     1       5.467   5.818  15.591  0.00  0.00    +0.000 A 
ATOM     16  C   UNL     1       5.358   4.437  15.670  0.00  0.00    +0.000 A 
ATOM     17  F   UNL     1       6.075   3.669  14.840  0.00  0.00    +0.000 F 
ATOM     18  C   UNL     1       4.514   3.838  16.597  0.00  0.00    +0.000 A 
ATOM     19  C   UNL     1       3.757   4.637  17.461  0.00  0.00    +0.000 A 
ENDBRANCH   7  13
BRANCH   1  20
ATOM     20  S   UNL     1      -0.813  11.516  22.359  0.00  0.00    +0.000 S 
BRANCH  20  21
ATOM     21  C   UNL     1      -0.957  13.287  21.982  0.00  0.00    +0.000 C 
BRANCH  21  23
ATOM     22  O   UNL     1      -2.425  14.645  20.636  0.00  0.00    +0.000 OA
ATOM     23  C   UNL     1      -2.112  13.520  21.020  0.00  0.00    +0.000 C 
ATOM     24  N   UNL     1      -2.803  12.383  20.667  0.00  0.00    +0.000 N 
ATOM     25  H   UNL     1      -2.582  11.503  21.123  0.00  0.00    +0.000 HD
BRANCH  24  26
ATOM     26  C   UNL     1      -3.989  12.431  19.845  0.00  0.00    +0.000 C 
BRANCH  26  27
ATOM     27  C   UNL     1      -3.737  11.843  18.483  0.00  0.00    +0.000 A 
ATOM     28  C   UNL     1      -2.476  11.329  18.142  0.00  0.00    +0.000 A 
ATOM     29  C   UNL     1      -2.262  10.761  16.884  0.00  0.00    +0.000 A 
ATOM     30  C   UNL     1      -3.302  10.712  15.957  0.00  0.00    +0.000 A 
ATOM     31 CL   UNL     1      -3.039   9.994  14.416  0.00  0.00    +0.000 Cl
ATOM     32  C   UNL     1      -4.552  11.239  16.273  0.00  0.00    +0.000 A 
ATOM     33  C   UNL     1      -4.767  11.808  17.530  0.00  0.00    +0.000 A 
ENDBRANCH  26  27
ENDBRANCH  24  26
ENDBRANCH  21  23
ENDBRANCH  20  21
ENDBRANCH   1  20
TORSDOF 6
ENDMDL
MODEL 6
REMARK VINA RESULT:      -8.1      6.387      9.008
REMARK  Name = 
REMARK  6 active torsions:
REMARK  status: ('A' for Active; 'I' for Inactive)
REMARK    1  A    between atoms: C_2  and  C_3
REMARK    2  A    between atoms: C_3  and  S_4
REMARK    3  A    between atoms: S_4  and  C_5
REMARK    4  A    between atoms: C_11  and  C_12
REMARK    5  A    between atoms: N_24  and  C_25
REMARK    6  A    between atoms: C_25  and  C_26
REMARK                            x       y       z     vdW  Elec       q    Type
REMARK                         _______ _______ _______ _____ _____    ______ ____
ROOT
ATOM      1  C   UNL     1       0.619  11.831  20.795  0.00  0.00    +0.000 A 
ATOM      2  N   UNL     1       0.457  11.270  21.975  0.00  0.00    +0.000 NA
ATOM      3  N   UNL     1       0.761   9.925  21.854  0.00  0.00    +0.000 NA
ATOM      4  C   UNL     1       1.116   9.725  20.607  0.00  0.00    +0.000 A 
ATOM      5  C   UNL     1       1.556   8.535  19.955  0.00  0.00    +0.000 A 
ATOM      6  C   UNL     1       1.689   7.227  20.327  0.00  0.00    +0.000 A 
ATOM      7  C   UNL     1       2.190   6.567  19.172  0.00  0.00    +0.000 A 
ATOM      8  N   UNL     1       2.351   7.429  18.154  0.00  0.00    +0.000 NA
ATOM      9  N   UNL     1       1.959   8.631  18.626  0.00  0.00    +0.000 N 
ATOM     10  C   UNL     1       1.923   9.859  17.938  0.00  0.00    +0.000 A 
ATOM     11  C   UNL     1       1.487  10.980  18.549  0.00  0.00    +0.000 A 
ATOM     12  N   UNL     1       1.076  10.909  19.887  0.00  0.00    +0.000 N 
ENDROOT
BRANCH   7  13
ATOM     13  C   UNL     1       2.507   5.143  19.018  0.00  0.00    +0.000 A 
ATOM     14  C   UNL     1       2.010   4.204  19.938  0.00  0.00    +0.000 A 
ATOM     15  C   UNL     1       2.321   2.847  19.814  0.00  0.00    +0.000 A 
ATOM     16  C   UNL     1       3.124   2.426  18.762  0.00  0.00    +0.000 A 
ATOM     17  F   UNL     1       3.426   1.126  18.641  0.00  0.00    +0.000 F 
ATOM     18  C   UNL     1       3.619   3.332  17.833  0.00  0.00    +0.000 A 
ATOM     19  C   UNL     1       3.311   4.691  17.961  0.00  0.00    +0.000 A 
ENDBRANCH   7  13
BRANCH   1  20
ATOM     20  S   UNL     1       0.404  13.506  20.425  0.00  0.00    +0.000 S 
BRANCH  20  21
ATOM     21  C   UNL     1      -0.943  13.915  21.574  0.00  0.00    +0.000 C 
BRANCH  21  23
ATOM     22  O   UNL     1      -3.161  14.583  20.907  0.00  0.00    +0.000 OA
ATOM     23  C   UNL     1      -2.286  13.720  20.888  0.00  0.00    +0.000 C 
ATOM     24  N   UNL     1      -2.457  12.486  20.301  0.00  0.00    +0.000 N 
ATOM     25  H   UNL     1      -1.752  11.767  20.436  0.00  0.00    +0.000 HD
BRANCH  24  26
ATOM     26  C   UNL     1      -3.707  12.091  19.696  0.00  0.00    +0.000 C 
BRANCH  26  27
ATOM     27  C   UNL     1      -3.492  11.501  18.328  0.00  0.00    +0.000 A 
ATOM     28  C   UNL     1      -4.407  11.733  17.290  0.00  0.00    +0.000 A 
ATOM     29  C   UNL     1      -4.182  11.201  16.018  0.00  0.00    +0.000 A 
ATOM     30  C   UNL     1      -3.048  10.427  15.779  0.00  0.00    +0.000 A 
ATOM     31 CL   UNL     1      -2.764   9.790  14.206  0.00  0.00    +0.000 Cl
ATOM     32  C   UNL     1      -2.142  10.168  16.805  0.00  0.00    +0.000 A 
ATOM     33  C   UNL     1      -2.367  10.699  18.078  0.00  0.00    +0.000 A 
ENDBRANCH  26  27
ENDBRANCH  24  26
ENDBRANCH  21  23
ENDBRANCH  20  21
ENDBRANCH   1  20
TORSDOF 6
ENDMDL
MODEL 7
REMARK VINA RESULT:      -8.1      5.678      8.668
REMARK  Name = 
REMARK  6 active torsions:
REMARK  status: ('A' for Active; 'I' for Inactive)
REMARK    1  A    between atoms: C_2  and  C_3
REMARK    2  A    between atoms: C_3  and  S_4
REMARK    3  A    between atoms: S_4  and  C_5
REMARK    4  A    between atoms: C_11  and  C_12
REMARK    5  A    between atoms: N_24  and  C_25
REMARK    6  A    between atoms: C_25  and  C_26
REMARK                            x       y       z     vdW  Elec       q    Type
REMARK                         _______ _______ _______ _____ _____    ______ ____
ROOT
ATOM      1  C   UNL     1      -0.660  11.425  20.285  0.00  0.00    +0.000 A 
ATOM      2  N   UNL     1      -0.736  11.752  19.011  0.00  0.00    +0.000 NA
ATOM      3  N   UNL     1       0.045  10.861  18.295  0.00  0.00    +0.000 NA
ATOM      4  C   UNL     1       0.551  10.015  19.160  0.00  0.00    +0.000 A 
ATOM      5  C   UNL     1       1.394   8.883  18.956  0.00  0.00    +0.000 A 
ATOM      6  C   UNL     1       2.022   8.334  17.873  0.00  0.00    +0.000 A 
ATOM      7  C   UNL     1       2.708   7.199  18.384  0.00  0.00    +0.000 A 
ATOM      8  N   UNL     1       2.508   7.069  19.707  0.00  0.00    +0.000 NA
ATOM      9  N   UNL     1       1.712   8.099  20.061  0.00  0.00    +0.000 N 
ATOM     10  C   UNL     1       1.228   8.414  21.345  0.00  0.00    +0.000 A 
ATOM     11  C   UNL     1       0.447   9.497  21.541  0.00  0.00    +0.000 A 
ATOM     12  N   UNL     1       0.113  10.303  20.444  0.00  0.00    +0.000 N 
ENDROOT
BRANCH   7  13
ATOM     13  C   UNL     1       3.550   6.251  17.646  0.00  0.00    +0.000 A 
ATOM     14  C   UNL     1       3.279   4.873  17.699  0.00  0.00    +0.000 A 
ATOM     15  C   UNL     1       4.086   3.959  17.017  0.00  0.00    +0.000 A 
ATOM     16  C   UNL     1       5.162   4.423  16.273  0.00  0.00    +0.000 A 
ATOM     17  F   UNL     1       5.940   3.549  15.619  0.00  0.00    +0.000 F 
ATOM     18  C   UNL     1       5.446   5.781  16.195  0.00  0.00    +0.000 A 
ATOM     19  C   UNL     1       4.641   6.696  16.882  0.00  0.00    +0.000 A 
ENDBRANCH   7  13
BRANCH   1  20
ATOM     20  S   UNL     1      -1.486  12.205  21.587  0.00  0.00    +0.000 S 
BRANCH  20  21
ATOM     21  C   UNL     1      -2.389  13.487  20.668  0.00  0.00    +0.000 C 
BRANCH  21  23
ATOM     22  O   UNL     1      -1.498  15.594  21.427  0.00  0.00    +0.000 OA
ATOM     23  C   UNL     1      -1.534  14.737  20.546  0.00  0.00    +0.000 C 
ATOM     24  N   UNL     1      -0.854  14.854  19.353  0.00  0.00    +0.000 N 
ATOM     25  H   UNL     1      -1.030  14.182  18.612  0.00  0.00    +0.000 HD
BRANCH  24  26
ATOM     26  C   UNL     1      -0.077  16.025  19.025  0.00  0.00    +0.000 C 
BRANCH  26  27
ATOM     27  C   UNL     1       1.353  15.667  18.720  0.00  0.00    +0.000 A 
ATOM     28  C   UNL     1       1.878  14.420  19.092  0.00  0.00    +0.000 A 
ATOM     29  C   UNL     1       3.199  14.089  18.780  0.00  0.00    +0.000 A 
ATOM     30  C   UNL     1       4.004  15.003  18.104  0.00  0.00    +0.000 A 
ATOM     31 CL   UNL     1       5.624  14.584  17.704  0.00  0.00    +0.000 Cl
ATOM     32  C   UNL     1       3.503  16.254  17.748  0.00  0.00    +0.000 A 
ATOM     33  C   UNL     1       2.183  16.586  18.061  0.00  0.00    +0.000 A 
ENDBRANCH  26  27
ENDBRANCH  24  26
ENDBRANCH  21  23
ENDBRANCH  20  21
ENDBRANCH   1  20
TORSDOF 6
ENDMDL
MODEL 8
REMARK VINA RESULT:      -8.0      4.371      7.490
REMARK  Name = 
REMARK  6 active torsions:
REMARK  status: ('A' for Active; 'I' for Inactive)
REMARK    1  A    between atoms: C_2  and  C_3
REMARK    2  A    between atoms: C_3  and  S_4
REMARK    3  A    between atoms: S_4  and  C_5
REMARK    4  A    between atoms: C_11  and  C_12
REMARK    5  A    between atoms: N_24  and  C_25
REMARK    6  A    between atoms: C_25  and  C_26
REMARK                            x       y       z     vdW  Elec       q    Type
REMARK                         _______ _______ _______ _____ _____    ______ ____
ROOT
ATOM      1  C   UNL     1       3.075   3.063  20.514  0.00  0.00    +0.000 A 
ATOM      2  N   UNL     1       2.023   2.748  21.241  0.00  0.00    +0.000 NA
ATOM      3  N   UNL     1       1.294   3.904  21.461  0.00  0.00    +0.000 NA
ATOM      4  C   UNL     1       1.922   4.874  20.842  0.00  0.00    +0.000 A 
ATOM      5  C   UNL     1       1.588   6.255  20.718  0.00  0.00    +0.000 A 
ATOM      6  C   UNL     1       0.604   7.057  21.227  0.00  0.00    +0.000 A 
ATOM      7  C   UNL     1       0.867   8.346  20.688  0.00  0.00    +0.000 A 
ATOM      8  N   UNL     1       1.952   8.326  19.895  0.00  0.00    +0.000 NA
ATOM      9  N   UNL     1       2.400   7.054  19.916  0.00  0.00    +0.000 N 
ATOM     10  C   UNL     1       3.524   6.522  19.256  0.00  0.00    +0.000 A 
ATOM     11  C   UNL     1       3.851   5.220  19.390  0.00  0.00    +0.000 A 
ATOM     12  N   UNL     1       3.050   4.396  20.192  0.00  0.00    +0.000 N 
ENDROOT
BRANCH   7  13
ATOM     13  C   UNL     1       0.116   9.585  20.918  0.00  0.00    +0.000 A 
ATOM     14  C   UNL     1      -0.450  10.281  19.836  0.00  0.00    +0.000 A 
ATOM     15  C   UNL     1      -1.150  11.473  20.041  0.00  0.00    +0.000 A 
ATOM     16  C   UNL     1      -1.292  11.967  21.330  0.00  0.00    +0.000 A 
ATOM     17  F   UNL     1      -1.960  13.111  21.530  0.00  0.00    +0.000 F 
ATOM     18  C   UNL     1      -0.751  11.293  22.418  0.00  0.00    +0.000 A 
ATOM     19  C   UNL     1      -0.046  10.102  22.212  0.00  0.00    +0.000 A 
ENDBRANCH   7  13
BRANCH   1  20
ATOM     20  S   UNL     1       4.278   1.965  19.935  0.00  0.00    +0.000 S 
BRANCH  20  21
ATOM     21  C   UNL     1       3.513   1.451  18.369  0.00  0.00    +0.000 C 
BRANCH  21  23
ATOM     22  O   UNL     1       2.615   3.073  16.827  0.00  0.00    +0.000 OA
ATOM     23  C   UNL     1       3.611   2.576  17.350  0.00  0.00    +0.000 C 
ATOM     24  N   UNL     1       4.897   2.947  17.025  0.00  0.00    +0.000 N 
ATOM     25  H   UNL     1       5.678   2.409  17.388  0.00  0.00    +0.000 HD
BRANCH  24  26
ATOM     26  C   UNL     1       5.176   3.926  16.002  0.00  0.00    +0.000 C 
BRANCH  26  27
ATOM     27  C   UNL     1       5.932   5.102  16.560  0.00  0.00    +0.000 A 
ATOM     28  C   UNL     1       7.025   4.915  17.420  0.00  0.00    +0.000 A 
ATOM     29  C   UNL     1       7.734   6.014  17.911  0.00  0.00    +0.000 A 
ATOM     30  C   UNL     1       7.351   7.305  17.553  0.00  0.00    +0.000 A 
ATOM     31 CL   UNL     1       8.239   8.655  18.143  0.00  0.00    +0.000 Cl
ATOM     32  C   UNL     1       6.254   7.508  16.719  0.00  0.00    +0.000 A 
ATOM     33  C   UNL     1       5.543   6.409  16.229  0.00  0.00    +0.000 A 
ENDBRANCH  26  27
ENDBRANCH  24  26
ENDBRANCH  21  23
ENDBRANCH  20  21
ENDBRANCH   1  20
TORSDOF 6
ENDMDL
MODEL 9
REMARK VINA RESULT:      -7.9      5.214      8.579
REMARK  Name = 
REMARK  6 active torsions:
REMARK  status: ('A' for Active; 'I' for Inactive)
REMARK    1  A    between atoms: C_2  and  C_3
REMARK    2  A    between atoms: C_3  and  S_4
REMARK    3  A    between atoms: S_4  and  C_5
REMARK    4  A    between atoms: C_11  and  C_12
REMARK    5  A    between atoms: N_24  and  C_25
REMARK    6  A    between atoms: C_25  and  C_26
REMARK                            x       y       z     vdW  Elec       q    Type
REMARK                         _______ _______ _______ _____ _____    ______ ____
ROOT
ATOM      1  C   UNL     1       3.331   4.849  19.548  0.00  0.00    +0.000 A 
ATOM      2  N   UNL     1       2.730   4.378  20.620  0.00  0.00    +0.000 NA
ATOM      3  N   UNL     1       1.917   5.377  21.128  0.00  0.00    +0.000 NA
ATOM      4  C   UNL     1       2.042   6.412  20.332  0.00  0.00    +0.000 A 
ATOM      5  C   UNL     1       1.405   7.687  20.374  0.00  0.00    +0.000 A 
ATOM      6  C   UNL     1       0.548   8.307  21.240  0.00  0.00    +0.000 A 
ATOM      7  C   UNL     1       0.308   9.585  20.665  0.00  0.00    +0.000 A 
ATOM      8  N   UNL     1       0.985   9.732  19.513  0.00  0.00    +0.000 NA
ATOM      9  N   UNL     1       1.661   8.578  19.335  0.00  0.00    +0.000 N 
ATOM     10  C   UNL     1       2.530   8.241  18.280  0.00  0.00    +0.000 A 
ATOM     11  C   UNL     1       3.148   7.042  18.252  0.00  0.00    +0.000 A 
ATOM     12  N   UNL     1       2.907   6.127  19.286  0.00  0.00    +0.000 N 
ENDROOT
BRANCH   7  13
ATOM     13  C   UNL     1      -0.538  10.662  21.192  0.00  0.00    +0.000 A 
ATOM     14  C   UNL     1      -1.135  11.585  20.317  0.00  0.00    +0.000 A 
ATOM     15  C   UNL     1      -1.926  12.627  20.809  0.00  0.00    +0.000 A 
ATOM     16  C   UNL     1      -2.129  12.742  22.177  0.00  0.00    +0.000 A 
ATOM     17  F   UNL     1      -2.884  13.741  22.652  0.00  0.00    +0.000 F 
ATOM     18  C   UNL     1      -1.558  11.835  23.063  0.00  0.00    +0.000 A 
ATOM     19  C   UNL     1      -0.762  10.796  22.571  0.00  0.00    +0.000 A 
ENDBRANCH   7  13
BRANCH   1  20
ATOM     20  S   UNL     1       4.421   3.980  18.527  0.00  0.00    +0.000 S 
BRANCH  20  21
ATOM     21  C   UNL     1       6.000   4.714  19.048  0.00  0.00    +0.000 C 
BRANCH  21  23
ATOM     22  O   UNL     1       8.114   4.353  17.947  0.00  0.00    +0.000 OA
ATOM     23  C   UNL     1       6.960   4.769  17.870  0.00  0.00    +0.000 C 
ATOM     24  N   UNL     1       6.449   5.369  16.740  0.00  0.00    +0.000 N 
ATOM     25  H   UNL     1       5.537   5.814  16.781  0.00  0.00    +0.000 HD
BRANCH  24  26
ATOM     26  C   UNL     1       7.254   5.599  15.564  0.00  0.00    +0.000 C 
BRANCH  26  27
ATOM     27  C   UNL     1       6.739   4.817  14.386  0.00  0.00    +0.000 A 
ATOM     28  C   UNL     1       7.480   4.731  13.197  0.00  0.00    +0.000 A 
ATOM     29  C   UNL     1       7.003   3.979  12.120  0.00  0.00    +0.000 A 
ATOM     30  C   UNL     1       5.781   3.318  12.221  0.00  0.00    +0.000 A 
ATOM     31 CL   UNL     1       5.206   2.378  10.900  0.00  0.00    +0.000 Cl
ATOM     32  C   UNL     1       5.023   3.413  13.386  0.00  0.00    +0.000 A 
ATOM     33  C   UNL     1       5.498   4.165  14.463  0.00  0.00    +0.000 A 
ENDBRANCH  26  27
ENDBRANCH  24  26
ENDBRANCH  21  23
ENDBRANCH  20  21
ENDBRANCH   1  20
TORSDOF 6
ENDMDL
