MODEL 1
REMARK VINA RESULT:      -5.0      0.000      0.000
REMARK  Name = 
REMARK  3 active torsions:
REMARK  status: ('A' for Active; 'I' for Inactive)
REMARK    1  A    between atoms: C_1  and  N_2
REMARK    2  A    between atoms: N_2  and  C_3
REMARK    3  A    between atoms: C_3  and  C_4
REMARK                            x       y       z     vdW  Elec       q    Type
REMARK                         _______ _______ _______ _____ _____    ______ ____
ROOT
ATOM      1  C   UNL     1       2.030   3.502  18.355  0.00  0.00    +0.000 A 
ATOM      2  C   UNL     1       3.090   2.876  17.682  0.00  0.00    +0.000 A 
ATOM      3  C   UNL     1       4.111   3.629  17.104  0.00  0.00    +0.000 A 
ATOM      4  C   UNL     1       4.088   5.021  17.197  0.00  0.00    +0.000 A 
ATOM      5  C   UNL     1       3.044   5.651  17.871  0.00  0.00    +0.000 A 
ATOM      6 CL   UNL     1       3.022   7.367  17.997  0.00  0.00    +0.000 Cl
ATOM      7  C   UNL     1       2.024   4.904  18.452  0.00  0.00    +0.000 A 
ENDROOT
BRANCH   1   8
ATOM      8  C   UNL     1       0.929   2.684  18.984  0.00  0.00    +0.000 C 
BRANCH   8  10
ATOM      9  C   UNL     1       1.411   2.726  21.336  0.00  0.00    +0.000 C 
ATOM     10  N   UNL     1       0.544   3.233  20.284  0.00  0.00    +0.000 NA
ATOM     11  H   UNL     1       0.614   4.249  20.254  0.00  0.00    +0.000 HD
ENDBRANCH   8  10
ENDBRANCH   1   8
TORSDOF 2
ENDMDL
MODEL 2
REMARK VINA RESULT:      -5.0      3.172      4.434
REMARK  Name = 
REMARK  3 active torsions:
REMARK  status: ('A' for Active; 'I' for Inactive)
REMARK    1  A    between atoms: C_1  and  N_2
REMARK    2  A    between atoms: N_2  and  C_3
REMARK    3  A    between atoms: C_3  and  C_4
REMARK                            x       y       z     vdW  Elec       q    Type
REMARK                         _______ _______ _______ _____ _____    ______ ____
ROOT
ATOM      1  C   UNL     1       4.019   3.872  18.547  0.00  0.00    +0.000 A 
ATOM      2  C   UNL     1       3.462   3.121  17.502  0.00  0.00    +0.000 A 
ATOM      3  C   UNL     1       2.389   2.261  17.736  0.00  0.00    +0.000 A 
ATOM      4  C   UNL     1       1.856   2.146  19.021  0.00  0.00    +0.000 A 
ATOM      5  C   UNL     1       2.398   2.895  20.063  0.00  0.00    +0.000 A 
ATOM      6 CL   UNL     1       1.732   2.764  21.645  0.00  0.00    +0.000 Cl
ATOM      7  C   UNL     1       3.466   3.756  19.834  0.00  0.00    +0.000 A 
ENDROOT
BRANCH   1   8
ATOM      8  C   UNL     1       5.177   4.806  18.291  0.00  0.00    +0.000 C 
BRANCH   8  10
ATOM      9  C   UNL     1       7.480   4.651  17.630  0.00  0.00    +0.000 C 
ATOM     10  N   UNL     1       6.455   4.135  18.524  0.00  0.00    +0.000 NA
ATOM     11  H   UNL     1       6.744   4.289  19.488  0.00  0.00    +0.000 HD
ENDBRANCH   8  10
ENDBRANCH   1   8
TORSDOF 2
ENDMDL
MODEL 3
REMARK VINA RESULT:      -4.8      3.082      4.236
REMARK  Name = 
REMARK  3 active torsions:
REMARK  status: ('A' for Active; 'I' for Inactive)
REMARK    1  A    between atoms: C_1  and  N_2
REMARK    2  A    between atoms: N_2  and  C_3
REMARK    3  A    between atoms: C_3  and  C_4
REMARK                            x       y       z     vdW  Elec       q    Type
REMARK                         _______ _______ _______ _____ _____    ______ ____
ROOT
ATOM      1  C   UNL     1       3.789   3.844  18.305  0.00  0.00    +0.000 A 
ATOM      2  C   UNL     1       2.657   4.129  17.527  0.00  0.00    +0.000 A 
ATOM      3  C   UNL     1       1.375   3.935  18.037  0.00  0.00    +0.000 A 
ATOM      4  C   UNL     1       1.206   3.458  19.338  0.00  0.00    +0.000 A 
ATOM      5  C   UNL     1       2.325   3.181  20.121  0.00  0.00    +0.000 A 
ATOM      6 CL   UNL     1       2.118   2.605  21.730  0.00  0.00    +0.000 Cl
ATOM      7  C   UNL     1       3.607   3.375  19.618  0.00  0.00    +0.000 A 
ENDROOT
BRANCH   1   8
ATOM      8  C   UNL     1       5.177   4.059  17.753  0.00  0.00    +0.000 C 
BRANCH   8  10
ATOM      9  C   UNL     1       6.600   5.448  19.098  0.00  0.00    +0.000 C 
ATOM     10  N   UNL     1       6.171   4.085  18.825  0.00  0.00    +0.000 NA
ATOM     11  H   UNL     1       5.764   3.687  19.670  0.00  0.00    +0.000 HD
ENDBRANCH   8  10
ENDBRANCH   1   8
TORSDOF 2
ENDMDL
MODEL 4
REMARK VINA RESULT:      -4.8      1.767      2.745
REMARK  Name = 
REMARK  3 active torsions:
REMARK  status: ('A' for Active; 'I' for Inactive)
REMARK    1  A    between atoms: C_1  and  N_2
REMARK    2  A    between atoms: N_2  and  C_3
REMARK    3  A    between atoms: C_3  and  C_4
REMARK                            x       y       z     vdW  Elec       q    Type
REMARK                         _______ _______ _______ _____ _____    ______ ____
ROOT
ATOM      1  C   UNL     1       1.655   3.887  18.969  0.00  0.00    +0.000 A 
ATOM      2  C   UNL     1       1.347   4.257  20.287  0.00  0.00    +0.000 A 
ATOM      3  C   UNL     1       1.661   5.529  20.762  0.00  0.00    +0.000 A 
ATOM      4  C   UNL     1       2.283   6.453  19.921  0.00  0.00    +0.000 A 
ATOM      5  C   UNL     1       2.585   6.098  18.608  0.00  0.00    +0.000 A 
ATOM      6 CL   UNL     1       3.341   7.241  17.567  0.00  0.00    +0.000 Cl
ATOM      7  C   UNL     1       2.272   4.830  18.129  0.00  0.00    +0.000 A 
ENDROOT
BRANCH   1   8
ATOM      8  C   UNL     1       1.310   2.511  18.455  0.00  0.00    +0.000 C 
BRANCH   8  10
ATOM      9  C   UNL     1       3.489   1.509  18.569  0.00  0.00    +0.000 C 
ATOM     10  N   UNL     1       2.417   1.945  17.686  0.00  0.00    +0.000 NA
ATOM     11  H   UNL     1       2.081   1.147  17.151  0.00  0.00    +0.000 HD
ENDBRANCH   8  10
ENDBRANCH   1   8
TORSDOF 2
ENDMDL
MODEL 5
REMARK VINA RESULT:      -4.8      3.213      4.598
REMARK  Name = 
REMARK  3 active torsions:
REMARK  status: ('A' for Active; 'I' for Inactive)
REMARK    1  A    between atoms: C_1  and  N_2
REMARK    2  A    between atoms: N_2  and  C_3
REMARK    3  A    between atoms: C_3  and  C_4
REMARK                            x       y       z     vdW  Elec       q    Type
REMARK                         _______ _______ _______ _____ _____    ______ ____
ROOT
ATOM      1  C   UNL     1       4.622   4.996  18.845  0.00  0.00    +0.000 A 
ATOM      2  C   UNL     1       3.800   6.021  18.354  0.00  0.00    +0.000 A 
ATOM      3  C   UNL     1       2.451   5.789  18.090  0.00  0.00    +0.000 A 
ATOM      4  C   UNL     1       1.904   4.526  18.320  0.00  0.00    +0.000 A 
ATOM      5  C   UNL     1       2.710   3.503  18.816  0.00  0.00    +0.000 A 
ATOM      6 CL   UNL     1       2.033   1.949  19.111  0.00  0.00    +0.000 Cl
ATOM      7  C   UNL     1       4.056   3.731  19.083  0.00  0.00    +0.000 A 
ENDROOT
BRANCH   1   8
ATOM      8  C   UNL     1       6.081   5.250  19.135  0.00  0.00    +0.000 C 
BRANCH   8  10
ATOM      9  C   UNL     1       7.222   4.661  17.106  0.00  0.00    +0.000 C 
ATOM     10  N   UNL     1       6.928   4.260  18.474  0.00  0.00    +0.000 NA
ATOM     11  H   UNL     1       7.802   4.167  18.989  0.00  0.00    +0.000 HD
ENDBRANCH   8  10
ENDBRANCH   1   8
TORSDOF 2
ENDMDL
MODEL 6
REMARK VINA RESULT:      -4.8      3.223      4.561
REMARK  Name = 
REMARK  3 active torsions:
REMARK  status: ('A' for Active; 'I' for Inactive)
REMARK    1  A    between atoms: C_1  and  N_2
REMARK    2  A    between atoms: N_2  and  C_3
REMARK    3  A    between atoms: C_3  and  C_4
REMARK                            x       y       z     vdW  Elec       q    Type
REMARK                         _______ _______ _______ _____ _____    ______ ____
ROOT
ATOM      1  C   UNL     1       3.840   4.486  18.867  0.00  0.00    +0.000 A 
ATOM      2  C   UNL     1       3.393   5.814  18.925  0.00  0.00    +0.000 A 
ATOM      3  C   UNL     1       2.382   6.187  19.810  0.00  0.00    +0.000 A 
ATOM      4  C   UNL     1       1.807   5.235  20.653  0.00  0.00    +0.000 A 
ATOM      5  C   UNL     1       2.251   3.915  20.608  0.00  0.00    +0.000 A 
ATOM      6 CL   UNL     1       1.552   2.743  21.656  0.00  0.00    +0.000 Cl
ATOM      7  C   UNL     1       3.261   3.538  19.729  0.00  0.00    +0.000 A 
ENDROOT
BRANCH   1   8
ATOM      8  C   UNL     1       4.938   4.085  17.912  0.00  0.00    +0.000 C 
BRANCH   8  10
ATOM      9  C   UNL     1       7.256   4.688  17.743  0.00  0.00    +0.000 C 
ATOM     10  N   UNL     1       6.238   4.074  18.581  0.00  0.00    +0.000 NA
ATOM     11  H   UNL     1       6.170   4.589  19.457  0.00  0.00    +0.000 HD
ENDBRANCH   8  10
ENDBRANCH   1   8
TORSDOF 2
ENDMDL
MODEL 7
REMARK VINA RESULT:      -4.7      3.099      4.483
REMARK  Name = 
REMARK  3 active torsions:
REMARK  status: ('A' for Active; 'I' for Inactive)
REMARK    1  A    between atoms: C_1  and  N_2
REMARK    2  A    between atoms: N_2  and  C_3
REMARK    3  A    between atoms: C_3  and  C_4
REMARK                            x       y       z     vdW  Elec       q    Type
REMARK                         _______ _______ _______ _____ _____    ______ ____
ROOT
ATOM      1  C   UNL     1       3.875   4.477  18.404  0.00  0.00    +0.000 A 
ATOM      2  C   UNL     1       3.696   5.426  19.421  0.00  0.00    +0.000 A 
ATOM      3  C   UNL     1       2.549   5.412  20.214  0.00  0.00    +0.000 A 
ATOM      4  C   UNL     1       1.567   4.442  20.003  0.00  0.00    +0.000 A 
ATOM      5  C   UNL     1       1.741   3.491  19.000  0.00  0.00    +0.000 A 
ATOM      6 CL   UNL     1       0.537   2.288  18.747  0.00  0.00    +0.000 Cl
ATOM      7  C   UNL     1       2.884   3.499  18.208  0.00  0.00    +0.000 A 
ENDROOT
BRANCH   1   8
ATOM      8  C   UNL     1       5.119   4.491  17.549  0.00  0.00    +0.000 C 
BRANCH   8  10
ATOM      9  C   UNL     1       7.501   4.683  17.789  0.00  0.00    +0.000 C 
ATOM     10  N   UNL     1       6.290   4.074  18.320  0.00  0.00    +0.000 NA
ATOM     11  H   UNL     1       6.172   4.358  19.291  0.00  0.00    +0.000 HD
ENDBRANCH   8  10
ENDBRANCH   1   8
TORSDOF 2
ENDMDL
MODEL 8
REMARK VINA RESULT:      -4.7      1.715      1.850
REMARK  Name = 
REMARK  3 active torsions:
REMARK  status: ('A' for Active; 'I' for Inactive)
REMARK    1  A    between atoms: C_1  and  N_2
REMARK    2  A    between atoms: N_2  and  C_3
REMARK    3  A    between atoms: C_3  and  C_4
REMARK                            x       y       z     vdW  Elec       q    Type
REMARK                         _______ _______ _______ _____ _____    ______ ____
ROOT
ATOM      1  C   UNL     1       2.321   4.401  19.297  0.00  0.00    +0.000 A 
ATOM      2  C   UNL     1       2.146   3.813  18.036  0.00  0.00    +0.000 A 
ATOM      3  C   UNL     1       3.209   3.719  17.140  0.00  0.00    +0.000 A 
ATOM      4  C   UNL     1       4.467   4.209  17.496  0.00  0.00    +0.000 A 
ATOM      5  C   UNL     1       4.652   4.787  18.750  0.00  0.00    +0.000 A 
ATOM      6 CL   UNL     1       6.205   5.379  19.196  0.00  0.00    +0.000 Cl
ATOM      7  C   UNL     1       3.595   4.880  19.649  0.00  0.00    +0.000 A 
ENDROOT
BRANCH   1   8
ATOM      8  C   UNL     1       1.170   4.497  20.268  0.00  0.00    +0.000 C 
BRANCH   8  10
ATOM      9  C   UNL     1       1.557   2.576  21.656  0.00  0.00    +0.000 C 
ATOM     10  N   UNL     1       0.691   3.169  20.648  0.00  0.00    +0.000 NA
ATOM     11  H   UNL     1      -0.253   3.246  21.023  0.00  0.00    +0.000 HD
ENDBRANCH   8  10
ENDBRANCH   1   8
TORSDOF 2
ENDMDL
MODEL 9
REMARK VINA RESULT:      -4.7      2.759      4.103
REMARK  Name = 
REMARK  3 active torsions:
REMARK  status: ('A' for Active; 'I' for Inactive)
REMARK    1  A    between atoms: C_1  and  N_2
REMARK    2  A    between atoms: N_2  and  C_3
REMARK    3  A    between atoms: C_3  and  C_4
REMARK                            x       y       z     vdW  Elec       q    Type
REMARK                         _______ _______ _______ _____ _____    ______ ____
ROOT
ATOM      1  C   UNL     1       4.819   4.825  17.252  0.00  0.00    +0.000 A 
ATOM      2  C   UNL     1       3.976   3.704  17.236  0.00  0.00    +0.000 A 
ATOM      3  C   UNL     1       2.630   3.820  17.577  0.00  0.00    +0.000 A 
ATOM      4  C   UNL     1       2.105   5.063  17.933  0.00  0.00    +0.000 A 
ATOM      5  C   UNL     1       2.933   6.184  17.944  0.00  0.00    +0.000 A 
ATOM      6 CL   UNL     1       2.285   7.720  18.371  0.00  0.00    +0.000 Cl
ATOM      7  C   UNL     1       4.277   6.074  17.602  0.00  0.00    +0.000 A 
ENDROOT
BRANCH   1   8
ATOM      8  C   UNL     1       6.275   4.698  16.878  0.00  0.00    +0.000 C 
BRANCH   8  10
ATOM      9  C   UNL     1       7.727   5.461  18.632  0.00  0.00    +0.000 C 
ATOM     10  N   UNL     1       7.082   4.303  18.031  0.00  0.00    +0.000 NA
ATOM     11  H   UNL     1       6.482   3.858  18.724  0.00  0.00    +0.000 HD
ENDBRANCH   8  10
ENDBRANCH   1   8
TORSDOF 2
ENDMDL
