MODEL 1
REMARK VINA RESULT:      -7.7      0.000      0.000
REMARK  Name = 
REMARK  6 active torsions:
REMARK  status: ('A' for Active; 'I' for Inactive)
REMARK    1  A    between atoms: C_1  and  C_2
REMARK    2  A    between atoms: C_2  and  N_3
REMARK    3  A    between atoms: C_2  and  C_20
REMARK    4  A    between atoms: C_4  and  C_6
REMARK    5  A    between atoms: C_8  and  C_9
REMARK    6  A    between atoms: C_18  and  O_19
REMARK                            x       y       z     vdW  Elec       q    Type
REMARK                         _______ _______ _______ _____ _____    ______ ____
ROOT
ATOM      1  C   UNL     1       3.767   4.927  19.457  0.00  0.00    +0.000 A 
ATOM      2  N   UNL     1       3.315   6.244  19.398  0.00  0.00    +0.000 NA
ATOM      3  C   UNL     1       2.227   6.529  20.040  0.00  0.00    +0.000 A 
ATOM      4  N   UNL     1       1.500   5.597  20.734  0.00  0.00    +0.000 N 
ATOM      5  C   UNL     1       1.853   4.288  20.781  0.00  0.00    +0.000 A 
ATOM      6  O   UNL     1       1.204   3.429  21.369  0.00  0.00    +0.000 OA
ATOM      7  C   UNL     1       3.111   3.929  20.085  0.00  0.00    +0.000 A 
ATOM      8  H   UNL     1       0.660   5.887  21.220  0.00  0.00    +0.000 HD
ENDROOT
BRANCH   3   9
ATOM      9  C   UNL     1       1.676   7.909  20.095  0.00  0.00    +0.000 A 
ATOM     10  C   UNL     1       1.087   8.394  21.253  0.00  0.00    +0.000 A 
ATOM     11  N   UNL     1       0.542   9.634  21.319  0.00  0.00    +0.000 NA
ATOM     12  C   UNL     1       0.614  10.362  20.181  0.00  0.00    +0.000 A 
ATOM     13  C   UNL     1       1.205   9.875  19.023  0.00  0.00    +0.000 A 
ATOM     14  N   UNL     1       1.758   8.641  18.947  0.00  0.00    +0.000 NA
ENDBRANCH   3   9
BRANCH   1  16
ATOM     15  N   UNL     1       5.401   5.496  17.767  0.00  0.00    +0.000 N 
ATOM     16  C   UNL     1       5.111   4.637  18.809  0.00  0.00    +0.000 C 
ATOM     17  O   UNL     1       5.891   3.765  19.176  0.00  0.00    +0.000 OA
ATOM     18  H   UNL     1       4.702   6.191  17.532  0.00  0.00    +0.000 HD
BRANCH  15  20
ATOM     19  C   UNL     1       7.388   6.859  17.204  0.00  0.00    +0.000 C 
ATOM     20  C   UNL     1       6.692   5.495  17.107  0.00  0.00    +0.000 C 
BRANCH  20  21
ATOM     21  C   UNL     1       6.570   5.061  15.658  0.00  0.00    +0.000 A 
ATOM     22  C   UNL     1       5.446   4.325  15.250  0.00  0.00    +0.000 A 
ATOM     23  C   UNL     1       5.350   3.837  13.946  0.00  0.00    +0.000 A 
ATOM     24  C   UNL     1       6.370   4.088  13.031  0.00  0.00    +0.000 A 
ATOM     25  C   UNL     1       7.479   4.840  13.412  0.00  0.00    +0.000 A 
ATOM     26  C   UNL     1       7.576   5.330  14.716  0.00  0.00    +0.000 A 
ENDBRANCH  20  21
ENDBRANCH  15  20
ENDBRANCH   1  16
BRANCH   7  27
ATOM     27  O   UNL     1       3.511   2.611  20.162  0.00  0.00    +0.000 OA
ATOM     28  H   UNL     1       4.277   2.597  20.772  0.00  0.00    +0.000 HD
ENDBRANCH   7  27
TORSDOF 5
ENDMDL
MODEL 2
REMARK VINA RESULT:      -7.6      0.556      1.367
REMARK  Name = 
REMARK  6 active torsions:
REMARK  status: ('A' for Active; 'I' for Inactive)
REMARK    1  A    between atoms: C_1  and  C_2
REMARK    2  A    between atoms: C_2  and  N_3
REMARK    3  A    between atoms: C_2  and  C_20
REMARK    4  A    between atoms: C_4  and  C_6
REMARK    5  A    between atoms: C_8  and  C_9
REMARK    6  A    between atoms: C_18  and  O_19
REMARK                            x       y       z     vdW  Elec       q    Type
REMARK                         _______ _______ _______ _____ _____    ______ ____
ROOT
ATOM      1  C   UNL     1       3.765   4.921  19.466  0.00  0.00    +0.000 A 
ATOM      2  N   UNL     1       3.316   6.240  19.443  0.00  0.00    +0.000 NA
ATOM      3  C   UNL     1       2.209   6.503  20.061  0.00  0.00    +0.000 A 
ATOM      4  N   UNL     1       1.460   5.547  20.696  0.00  0.00    +0.000 N 
ATOM      5  C   UNL     1       1.810   4.237  20.705  0.00  0.00    +0.000 A 
ATOM      6  O   UNL     1       1.142   3.357  21.239  0.00  0.00    +0.000 OA
ATOM      7  C   UNL     1       3.089   3.901  20.035  0.00  0.00    +0.000 A 
ATOM      8  H   UNL     1       0.605   5.820  21.167  0.00  0.00    +0.000 HD
ENDROOT
BRANCH   3   9
ATOM      9  C   UNL     1       1.657   7.881  20.151  0.00  0.00    +0.000 A 
ATOM     10  C   UNL     1       1.690   8.733  19.057  0.00  0.00    +0.000 A 
ATOM     11  N   UNL     1       1.230  10.007  19.121  0.00  0.00    +0.000 NA
ATOM     12  C   UNL     1       0.738  10.387  20.323  0.00  0.00    +0.000 A 
ATOM     13  C   UNL     1       0.705   9.532  21.417  0.00  0.00    +0.000 A 
ATOM     14  N   UNL     1       1.157   8.256  21.362  0.00  0.00    +0.000 NA
ENDBRANCH   3   9
BRANCH   1  16
ATOM     15  N   UNL     1       5.373   5.426  17.731  0.00  0.00    +0.000 N 
ATOM     16  C   UNL     1       5.129   4.653  18.850  0.00  0.00    +0.000 C 
ATOM     17  O   UNL     1       5.957   3.869  19.299  0.00  0.00    +0.000 OA
ATOM     18  H   UNL     1       4.636   6.052  17.431  0.00  0.00    +0.000 HD
BRANCH  15  20
ATOM     19  C   UNL     1       7.301   6.838  17.091  0.00  0.00    +0.000 C 
ATOM     20  C   UNL     1       6.666   5.441  17.076  0.00  0.00    +0.000 C 
BRANCH  20  21
ATOM     21  C   UNL     1       6.570   4.914  15.656  0.00  0.00    +0.000 A 
ATOM     22  C   UNL     1       7.558   5.261  14.723  0.00  0.00    +0.000 A 
ATOM     23  C   UNL     1       7.448   4.864  13.389  0.00  0.00    +0.000 A 
ATOM     24  C   UNL     1       6.355   4.106  12.975  0.00  0.00    +0.000 A 
ATOM     25  C   UNL     1       5.380   3.730  13.896  0.00  0.00    +0.000 A 
ATOM     26  C   UNL     1       5.489   4.124  15.230  0.00  0.00    +0.000 A 
ENDBRANCH  20  21
ENDBRANCH  15  20
ENDBRANCH   1  16
BRANCH   7  27
ATOM     27  O   UNL     1       3.485   2.581  20.075  0.00  0.00    +0.000 OA
ATOM     28  H   UNL     1       2.829   2.120  20.638  0.00  0.00    +0.000 HD
ENDBRANCH   7  27
TORSDOF 5
ENDMDL
MODEL 3
REMARK VINA RESULT:      -7.5      2.033      7.477
REMARK  Name = 
REMARK  6 active torsions:
REMARK  status: ('A' for Active; 'I' for Inactive)
REMARK    1  A    between atoms: C_1  and  C_2
REMARK    2  A    between atoms: C_2  and  N_3
REMARK    3  A    between atoms: C_2  and  C_20
REMARK    4  A    between atoms: C_4  and  C_6
REMARK    5  A    between atoms: C_8  and  C_9
REMARK    6  A    between atoms: C_18  and  O_19
REMARK                            x       y       z     vdW  Elec       q    Type
REMARK                         _______ _______ _______ _____ _____    ______ ____
ROOT
ATOM      1  C   UNL     1       5.233   4.988  17.814  0.00  0.00    +0.000 A 
ATOM      2  N   UNL     1       5.336   4.953  16.425  0.00  0.00    +0.000 NA
ATOM      3  C   UNL     1       6.511   4.748  15.920  0.00  0.00    +0.000 A 
ATOM      4  N   UNL     1       7.639   4.599  16.684  0.00  0.00    +0.000 N 
ATOM      5  C   UNL     1       7.616   4.681  18.038  0.00  0.00    +0.000 A 
ATOM      6  O   UNL     1       8.616   4.582  18.743  0.00  0.00    +0.000 OA
ATOM      7  C   UNL     1       6.284   4.883  18.655  0.00  0.00    +0.000 A 
ATOM      8  H   UNL     1       8.528   4.434  16.226  0.00  0.00    +0.000 HD
ENDROOT
BRANCH   3   9
ATOM      9  C   UNL     1       6.737   4.638  14.455  0.00  0.00    +0.000 A 
ATOM     10  C   UNL     1       6.015   3.734  13.690  0.00  0.00    +0.000 A 
ATOM     11  N   UNL     1       6.228   3.585  12.359  0.00  0.00    +0.000 NA
ATOM     12  C   UNL     1       7.189   4.378  11.832  0.00  0.00    +0.000 A 
ATOM     13  C   UNL     1       7.909   5.284  12.599  0.00  0.00    +0.000 A 
ATOM     14  N   UNL     1       7.702   5.445  13.928  0.00  0.00    +0.000 NA
ENDBRANCH   3   9
BRANCH   1  16
ATOM     15  N   UNL     1       3.786   5.857  19.546  0.00  0.00    +0.000 N 
ATOM     16  C   UNL     1       3.831   5.099  18.393  0.00  0.00    +0.000 C 
ATOM     17  O   UNL     1       2.826   4.609  17.890  0.00  0.00    +0.000 OA
ATOM     18  H   UNL     1       4.664   6.229  19.891  0.00  0.00    +0.000 HD
BRANCH  15  20
ATOM     19  C   UNL     1       1.464   5.131  19.998  0.00  0.00    +0.000 C 
ATOM     20  C   UNL     1       2.533   6.217  20.180  0.00  0.00    +0.000 C 
BRANCH  20  21
ATOM     21  C   UNL     1       2.025   7.555  19.674  0.00  0.00    +0.000 A 
ATOM     22  C   UNL     1       1.285   8.382  20.532  0.00  0.00    +0.000 A 
ATOM     23  C   UNL     1       0.730   9.575  20.067  0.00  0.00    +0.000 A 
ATOM     24  C   UNL     1       0.917   9.961  18.742  0.00  0.00    +0.000 A 
ATOM     25  C   UNL     1       1.672   9.165  17.885  0.00  0.00    +0.000 A 
ATOM     26  C   UNL     1       2.229   7.972  18.348  0.00  0.00    +0.000 A 
ENDBRANCH  20  21
ENDBRANCH  15  20
ENDBRANCH   1  16
BRANCH   7  27
ATOM     27  O   UNL     1       6.235   4.922  20.032  0.00  0.00    +0.000 OA
ATOM     28  H   UNL     1       6.351   3.996  20.332  0.00  0.00    +0.000 HD
ENDBRANCH   7  27
TORSDOF 5
ENDMDL
MODEL 4
REMARK VINA RESULT:      -7.4      4.075      6.710
REMARK  Name = 
REMARK  6 active torsions:
REMARK  status: ('A' for Active; 'I' for Inactive)
REMARK    1  A    between atoms: C_1  and  C_2
REMARK    2  A    between atoms: C_2  and  N_3
REMARK    3  A    between atoms: C_2  and  C_20
REMARK    4  A    between atoms: C_4  and  C_6
REMARK    5  A    between atoms: C_8  and  C_9
REMARK    6  A    between atoms: C_18  and  O_19
REMARK                            x       y       z     vdW  Elec       q    Type
REMARK                         _______ _______ _______ _____ _____    ______ ____
ROOT
ATOM      1  C   UNL     1       0.018   9.800  20.424  0.00  0.00    +0.000 A 
ATOM      2  N   UNL     1      -0.706   9.774  19.234  0.00  0.00    +0.000 NA
ATOM      3  C   UNL     1      -1.584  10.708  19.051  0.00  0.00    +0.000 A 
ATOM      4  N   UNL     1      -1.846  11.682  19.979  0.00  0.00    +0.000 N 
ATOM      5  C   UNL     1      -1.219  11.729  21.180  0.00  0.00    +0.000 A 
ATOM      6  O   UNL     1      -1.457  12.571  22.040  0.00  0.00    +0.000 OA
ATOM      7  C   UNL     1      -0.184  10.695  21.414  0.00  0.00    +0.000 A 
ATOM      8  H   UNL     1      -2.543  12.389  19.771  0.00  0.00    +0.000 HD
ENDROOT
BRANCH   3   9
ATOM      9  C   UNL     1      -2.379  10.816  17.799  0.00  0.00    +0.000 A 
ATOM     10  C   UNL     1      -3.538  11.576  17.756  0.00  0.00    +0.000 A 
ATOM     11  N   UNL     1      -4.303  11.661  16.640  0.00  0.00    +0.000 NA
ATOM     12  C   UNL     1      -3.858  10.955  15.575  0.00  0.00    +0.000 A 
ATOM     13  C   UNL     1      -2.697  10.195  15.620  0.00  0.00    +0.000 A 
ATOM     14  N   UNL     1      -1.922  10.108  16.727  0.00  0.00    +0.000 NA
ENDBRANCH   3   9
BRANCH   1  16
ATOM     15  N   UNL     1       1.405   8.111  19.389  0.00  0.00    +0.000 N 
ATOM     16  C   UNL     1       1.133   8.776  20.568  0.00  0.00    +0.000 C 
ATOM     17  O   UNL     1       1.766   8.571  21.598  0.00  0.00    +0.000 OA
ATOM     18  H   UNL     1       0.838   8.346  18.583  0.00  0.00    +0.000 HD
BRANCH  15  20
ATOM     19  C   UNL     1       3.323   7.450  17.971  0.00  0.00    +0.000 C 
ATOM     20  C   UNL     1       2.528   7.203  19.261  0.00  0.00    +0.000 C 
BRANCH  20  21
ATOM     21  C   UNL     1       2.078   5.756  19.340  0.00  0.00    +0.000 A 
ATOM     22  C   UNL     1       1.997   4.992  18.166  0.00  0.00    +0.000 A 
ATOM     23  C   UNL     1       1.502   3.688  18.197  0.00  0.00    +0.000 A 
ATOM     24  C   UNL     1       1.091   3.127  19.404  0.00  0.00    +0.000 A 
ATOM     25  C   UNL     1       1.190   3.862  20.583  0.00  0.00    +0.000 A 
ATOM     26  C   UNL     1       1.687   5.166  20.554  0.00  0.00    +0.000 A 
ENDBRANCH  20  21
ENDBRANCH  15  20
ENDBRANCH   1  16
BRANCH   7  27
ATOM     27  O   UNL     1       0.497  10.755  22.612  0.00  0.00    +0.000 OA
ATOM     28  H   UNL     1       0.089  11.488  23.118  0.00  0.00    +0.000 HD
ENDBRANCH   7  27
TORSDOF 5
ENDMDL
MODEL 5
REMARK VINA RESULT:      -7.4      4.162      6.720
REMARK  Name = 
REMARK  6 active torsions:
REMARK  status: ('A' for Active; 'I' for Inactive)
REMARK    1  A    between atoms: C_1  and  C_2
REMARK    2  A    between atoms: C_2  and  N_3
REMARK    3  A    between atoms: C_2  and  C_20
REMARK    4  A    between atoms: C_4  and  C_6
REMARK    5  A    between atoms: C_8  and  C_9
REMARK    6  A    between atoms: C_18  and  O_19
REMARK                            x       y       z     vdW  Elec       q    Type
REMARK                         _______ _______ _______ _____ _____    ______ ____
ROOT
ATOM      1  C   UNL     1       0.324   9.929  19.901  0.00  0.00    +0.000 A 
ATOM      2  N   UNL     1      -0.582   9.756  18.857  0.00  0.00    +0.000 NA
ATOM      3  C   UNL     1      -1.317  10.772  18.531  0.00  0.00    +0.000 A 
ATOM      4  N   UNL     1      -1.260  11.977  19.183  0.00  0.00    +0.000 N 
ATOM      5  C   UNL     1      -0.443  12.191  20.244  0.00  0.00    +0.000 A 
ATOM      6  O   UNL     1      -0.396  13.249  20.864  0.00  0.00    +0.000 OA
ATOM      7  C   UNL     1       0.436  11.061  20.627  0.00  0.00    +0.000 A 
ATOM      8  H   UNL     1      -1.859  12.735  18.874  0.00  0.00    +0.000 HD
ENDROOT
BRANCH   3   9
ATOM      9  C   UNL     1      -2.280  10.725  17.400  0.00  0.00    +0.000 A 
ATOM     10  C   UNL     1      -3.436  11.491  17.419  0.00  0.00    +0.000 A 
ATOM     11  N   UNL     1      -4.352  11.439  16.420  0.00  0.00    +0.000 NA
ATOM     12  C   UNL     1      -4.058  10.591  15.407  0.00  0.00    +0.000 A 
ATOM     13  C   UNL     1      -2.900   9.826  15.389  0.00  0.00    +0.000 A 
ATOM     14  N   UNL     1      -1.976   9.874  16.379  0.00  0.00    +0.000 NA
ENDBRANCH   3   9
BRANCH   1  16
ATOM     15  N   UNL     1       1.666   8.112  19.039  0.00  0.00    +0.000 N 
ATOM     16  C   UNL     1       1.268   8.772  20.185  0.00  0.00    +0.000 C 
ATOM     17  O   UNL     1       1.678   8.460  21.297  0.00  0.00    +0.000 OA
ATOM     18  H   UNL     1       1.284   8.438  18.159  0.00  0.00    +0.000 HD
BRANCH  15  20
ATOM     19  C   UNL     1       3.611   7.154  17.846  0.00  0.00    +0.000 C 
ATOM     20  C   UNL     1       2.680   7.075  19.063  0.00  0.00    +0.000 C 
BRANCH  20  21
ATOM     21  C   UNL     1       2.054   5.696  19.167  0.00  0.00    +0.000 A 
ATOM     22  C   UNL     1       1.673   5.204  20.424  0.00  0.00    +0.000 A 
ATOM     23  C   UNL     1       1.179   3.906  20.561  0.00  0.00    +0.000 A 
ATOM     24  C   UNL     1       1.048   3.088  19.441  0.00  0.00    +0.000 A 
ATOM     25  C   UNL     1       1.396   3.571  18.182  0.00  0.00    +0.000 A 
ATOM     26  C   UNL     1       1.890   4.870  18.043  0.00  0.00    +0.000 A 
ENDBRANCH  20  21
ENDBRANCH  15  20
ENDBRANCH   1  16
BRANCH   7  27
ATOM     27  O   UNL     1       1.307  11.277  21.674  0.00  0.00    +0.000 OA
ATOM     28  H   UNL     1       1.997  11.882  21.330  0.00  0.00    +0.000 HD
ENDBRANCH   7  27
TORSDOF 5
ENDMDL
MODEL 6
REMARK VINA RESULT:      -7.3      3.172      7.871
REMARK  Name = 
REMARK  6 active torsions:
REMARK  status: ('A' for Active; 'I' for Inactive)
REMARK    1  A    between atoms: C_1  and  C_2
REMARK    2  A    between atoms: C_2  and  N_3
REMARK    3  A    between atoms: C_2  and  C_20
REMARK    4  A    between atoms: C_4  and  C_6
REMARK    5  A    between atoms: C_8  and  C_9
REMARK    6  A    between atoms: C_18  and  O_19
REMARK                            x       y       z     vdW  Elec       q    Type
REMARK                         _______ _______ _______ _____ _____    ______ ____
ROOT
ATOM      1  C   UNL     1       2.263   8.158  18.762  0.00  0.00    +0.000 A 
ATOM      2  N   UNL     1       3.127   7.655  17.792  0.00  0.00    +0.000 NA
ATOM      3  C   UNL     1       3.564   6.446  17.953  0.00  0.00    +0.000 A 
ATOM      4  N   UNL     1       3.240   5.671  19.037  0.00  0.00    +0.000 N 
ATOM      5  C   UNL     1       2.451   6.122  20.043  0.00  0.00    +0.000 A 
ATOM      6  O   UNL     1       2.171   5.460  21.038  0.00  0.00    +0.000 OA
ATOM      7  C   UNL     1       1.906   7.491  19.879  0.00  0.00    +0.000 A 
ATOM      8  H   UNL     1       3.610   4.730  19.100  0.00  0.00    +0.000 HD
ENDROOT
BRANCH   3   9
ATOM      9  C   UNL     1       4.448   5.782  16.960  0.00  0.00    +0.000 A 
ATOM     10  C   UNL     1       5.136   6.525  16.012  0.00  0.00    +0.000 A 
ATOM     11  N   UNL     1       5.919   5.943  15.070  0.00  0.00    +0.000 NA
ATOM     12  C   UNL     1       5.982   4.592  15.120  0.00  0.00    +0.000 A 
ATOM     13  C   UNL     1       5.293   3.851  16.070  0.00  0.00    +0.000 A 
ATOM     14  N   UNL     1       4.513   4.422  17.019  0.00  0.00    +0.000 NA
ENDBRANCH   3   9
BRANCH   1  16
ATOM     15  N   UNL     1       0.355   9.635  18.943  0.00  0.00    +0.000 N 
ATOM     16  C   UNL     1       1.657   9.527  18.493  0.00  0.00    +0.000 C 
ATOM     17  O   UNL     1       2.249  10.463  17.968  0.00  0.00    +0.000 OA
ATOM     18  H   UNL     1      -0.057   8.813  19.370  0.00  0.00    +0.000 HD
BRANCH  15  20
ATOM     19  C   UNL     1      -0.647  11.414  20.341  0.00  0.00    +0.000 C 
ATOM     20  C   UNL     1      -0.361  10.895  18.925  0.00  0.00    +0.000 C 
BRANCH  20  21
ATOM     21  C   UNL     1      -1.648  10.785  18.128  0.00  0.00    +0.000 A 
ATOM     22  C   UNL     1      -1.707   9.914  17.029  0.00  0.00    +0.000 A 
ATOM     23  C   UNL     1      -2.846   9.858  16.226  0.00  0.00    +0.000 A 
ATOM     24  C   UNL     1      -3.944  10.665  16.515  0.00  0.00    +0.000 A 
ATOM     25  C   UNL     1      -3.912  11.515  17.618  0.00  0.00    +0.000 A 
ATOM     26  C   UNL     1      -2.774  11.570  18.425  0.00  0.00    +0.000 A 
ENDBRANCH  20  21
ENDBRANCH  15  20
ENDBRANCH   1  16
BRANCH   7  27
ATOM     27  O   UNL     1       1.064   7.949  20.871  0.00  0.00    +0.000 OA
ATOM     28  H   UNL     1       1.101   7.280  21.585  0.00  0.00    +0.000 HD
ENDBRANCH   7  27
TORSDOF 5
ENDMDL
MODEL 7
REMARK VINA RESULT:      -7.3      2.433      8.119
REMARK  Name = 
REMARK  6 active torsions:
REMARK  status: ('A' for Active; 'I' for Inactive)
REMARK    1  A    between atoms: C_1  and  C_2
REMARK    2  A    between atoms: C_2  and  N_3
REMARK    3  A    between atoms: C_2  and  C_20
REMARK    4  A    between atoms: C_4  and  C_6
REMARK    5  A    between atoms: C_8  and  C_9
REMARK    6  A    between atoms: C_18  and  O_19
REMARK                            x       y       z     vdW  Elec       q    Type
REMARK                         _______ _______ _______ _____ _____    ______ ____
ROOT
ATOM      1  C   UNL     1       2.563   7.402  18.670  0.00  0.00    +0.000 A 
ATOM      2  N   UNL     1       3.551   7.098  17.735  0.00  0.00    +0.000 NA
ATOM      3  C   UNL     1       4.194   5.984  17.890  0.00  0.00    +0.000 A 
ATOM      4  N   UNL     1       3.967   5.127  18.935  0.00  0.00    +0.000 N 
ATOM      5  C   UNL     1       3.062   5.392  19.909  0.00  0.00    +0.000 A 
ATOM      6  O   UNL     1       2.862   4.657  20.871  0.00  0.00    +0.000 OA
ATOM      7  C   UNL     1       2.282   6.643  19.750  0.00  0.00    +0.000 A 
ATOM      8  H   UNL     1       4.502   4.268  18.995  0.00  0.00    +0.000 HD
ENDROOT
BRANCH   3   9
ATOM      9  C   UNL     1       5.232   5.527  16.929  0.00  0.00    +0.000 A 
ATOM     10  C   UNL     1       6.431   6.213  16.798  0.00  0.00    +0.000 A 
ATOM     11  N   UNL     1       7.379   5.841  15.902  0.00  0.00    +0.000 NA
ATOM     12  C   UNL     1       7.075   4.759  15.149  0.00  0.00    +0.000 A 
ATOM     13  C   UNL     1       5.875   4.074  15.282  0.00  0.00    +0.000 A 
ATOM     14  N   UNL     1       4.923   4.432  16.177  0.00  0.00    +0.000 NA
ENDBRANCH   3   9
BRANCH   1  16
ATOM     15  N   UNL     1       1.310   9.269  19.561  0.00  0.00    +0.000 N 
ATOM     16  C   UNL     1       1.729   8.645  18.402  0.00  0.00    +0.000 C 
ATOM     17  O   UNL     1       1.472   9.088  17.289  0.00  0.00    +0.000 OA
ATOM     18  H   UNL     1       1.571   8.837  20.440  0.00  0.00    +0.000 HD
BRANCH  15  20
ATOM     19  C   UNL     1       1.609  11.714  19.329  0.00  0.00    +0.000 C 
ATOM     20  C   UNL     1       0.632  10.550  19.541  0.00  0.00    +0.000 C 
BRANCH  20  21
ATOM     21  C   UNL     1      -0.182  10.761  20.804  0.00  0.00    +0.000 A 
ATOM     22  C   UNL     1      -1.055  11.857  20.888  0.00  0.00    +0.000 A 
ATOM     23  C   UNL     1      -1.749  12.125  22.069  0.00  0.00    +0.000 A 
ATOM     24  C   UNL     1      -1.587  11.296  23.176  0.00  0.00    +0.000 A 
ATOM     25  C   UNL     1      -0.746  10.189  23.101  0.00  0.00    +0.000 A 
ATOM     26  C   UNL     1      -0.052   9.918  21.920  0.00  0.00    +0.000 A 
ENDBRANCH  20  21
ENDBRANCH  15  20
ENDBRANCH   1  16
BRANCH   7  27
ATOM     27  O   UNL     1       1.324   6.905  20.706  0.00  0.00    +0.000 OA
ATOM     28  H   UNL     1       0.569   7.305  20.228  0.00  0.00    +0.000 HD
ENDBRANCH   7  27
TORSDOF 5
ENDMDL
MODEL 8
REMARK VINA RESULT:      -7.3      4.171      6.766
REMARK  Name = 
REMARK  6 active torsions:
REMARK  status: ('A' for Active; 'I' for Inactive)
REMARK    1  A    between atoms: C_1  and  C_2
REMARK    2  A    between atoms: C_2  and  N_3
REMARK    3  A    between atoms: C_2  and  C_20
REMARK    4  A    between atoms: C_4  and  C_6
REMARK    5  A    between atoms: C_8  and  C_9
REMARK    6  A    between atoms: C_18  and  O_19
REMARK                            x       y       z     vdW  Elec       q    Type
REMARK                         _______ _______ _______ _____ _____    ______ ____
ROOT
ATOM      1  C   UNL     1       0.305   9.935  19.883  0.00  0.00    +0.000 A 
ATOM      2  N   UNL     1      -0.603   9.742  18.844  0.00  0.00    +0.000 NA
ATOM      3  C   UNL     1      -1.370  10.738  18.531  0.00  0.00    +0.000 A 
ATOM      4  N   UNL     1      -1.344  11.939  19.191  0.00  0.00    +0.000 N 
ATOM      5  C   UNL     1      -0.526  12.171  20.247  0.00  0.00    +0.000 A 
ATOM      6  O   UNL     1      -0.505  13.226  20.874  0.00  0.00    +0.000 OA
ATOM      7  C   UNL     1       0.390  11.065  20.615  0.00  0.00    +0.000 A 
ATOM      8  H   UNL     1      -1.967  12.681  18.892  0.00  0.00    +0.000 HD
ENDROOT
BRANCH   3   9
ATOM      9  C   UNL     1      -2.341  10.670  17.407  0.00  0.00    +0.000 A 
ATOM     10  C   UNL     1      -2.105   9.852  16.312  0.00  0.00    +0.000 A 
ATOM     11  N   UNL     1      -2.953   9.800  15.256  0.00  0.00    +0.000 NA
ATOM     12  C   UNL     1      -4.043  10.597  15.346  0.00  0.00    +0.000 A 
ATOM     13  C   UNL     1      -4.278  11.414  16.444  0.00  0.00    +0.000 A 
ATOM     14  N   UNL     1      -3.440  11.470  17.507  0.00  0.00    +0.000 NA
ENDBRANCH   3   9
BRANCH   1  16
ATOM     15  N   UNL     1       1.712   8.178  18.996  0.00  0.00    +0.000 N 
ATOM     16  C   UNL     1       1.286   8.804  20.152  0.00  0.00    +0.000 C 
ATOM     17  O   UNL     1       1.700   8.486  21.261  0.00  0.00    +0.000 OA
ATOM     18  H   UNL     1       1.324   8.508  18.121  0.00  0.00    +0.000 HD
BRANCH  15  20
ATOM     19  C   UNL     1       3.647   7.257  17.759  0.00  0.00    +0.000 C 
ATOM     20  C   UNL     1       2.759   7.176  19.008  0.00  0.00    +0.000 C 
BRANCH  20  21
ATOM     21  C   UNL     1       2.183   5.780  19.163  0.00  0.00    +0.000 A 
ATOM     22  C   UNL     1       1.988   4.984  18.024  0.00  0.00    +0.000 A 
ATOM     23  C   UNL     1       1.378   3.733  18.127  0.00  0.00    +0.000 A 
ATOM     24  C   UNL     1       0.965   3.258  19.370  0.00  0.00    +0.000 A 
ATOM     25  C   UNL     1       1.177   4.024  20.513  0.00  0.00    +0.000 A 
ATOM     26  C   UNL     1       1.788   5.275  20.413  0.00  0.00    +0.000 A 
ENDBRANCH  20  21
ENDBRANCH  15  20
ENDBRANCH   1  16
BRANCH   7  27
ATOM     27  O   UNL     1       1.263  11.300  21.657  0.00  0.00    +0.000 OA
ATOM     28  H   UNL     1       1.243  10.493  22.212  0.00  0.00    +0.000 HD
ENDBRANCH   7  27
TORSDOF 5
ENDMDL
MODEL 9
REMARK VINA RESULT:      -7.3      2.826      7.761
REMARK  Name = 
REMARK  6 active torsions:
REMARK  status: ('A' for Active; 'I' for Inactive)
REMARK    1  A    between atoms: C_1  and  C_2
REMARK    2  A    between atoms: C_2  and  N_3
REMARK    3  A    between atoms: C_2  and  C_20
REMARK    4  A    between atoms: C_4  and  C_6
REMARK    5  A    between atoms: C_8  and  C_9
REMARK    6  A    between atoms: C_18  and  O_19
REMARK                            x       y       z     vdW  Elec       q    Type
REMARK                         _______ _______ _______ _____ _____    ______ ____
ROOT
ATOM      1  C   UNL     1       2.598   7.839  18.598  0.00  0.00    +0.000 A 
ATOM      2  N   UNL     1       3.578   7.406  17.708  0.00  0.00    +0.000 NA
ATOM      3  C   UNL     1       4.060   6.217  17.884  0.00  0.00    +0.000 A 
ATOM      4  N   UNL     1       3.673   5.397  18.912  0.00  0.00    +0.000 N 
ATOM      5  C   UNL     1       2.767   5.781  19.846  0.00  0.00    +0.000 A 
ATOM      6  O   UNL     1       2.426   5.078  20.793  0.00  0.00    +0.000 OA
ATOM      7  C   UNL     1       2.169   7.124  19.659  0.00  0.00    +0.000 A 
ATOM      8  H   UNL     1       4.085   4.474  18.991  0.00  0.00    +0.000 HD
ENDROOT
BRANCH   3   9
ATOM      9  C   UNL     1       5.071   5.626  16.969  0.00  0.00    +0.000 A 
ATOM     10  C   UNL     1       6.272   6.274  16.722  0.00  0.00    +0.000 A 
ATOM     11  N   UNL     1       7.195   5.778  15.861  0.00  0.00    +0.000 NA
ATOM     12  C   UNL     1       6.865   4.609  15.265  0.00  0.00    +0.000 A 
ATOM     13  C   UNL     1       5.663   3.961  15.514  0.00  0.00    +0.000 A 
ATOM     14  N   UNL     1       4.736   4.445  16.376  0.00  0.00    +0.000 NA
ENDBRANCH   3   9
BRANCH   1  16
ATOM     15  N   UNL     1       0.957   9.510  19.204  0.00  0.00    +0.000 N 
ATOM     16  C   UNL     1       1.950   9.182  18.301  0.00  0.00    +0.000 C 
ATOM     17  O   UNL     1       2.279   9.931  17.388  0.00  0.00    +0.000 OA
ATOM     18  H   UNL     1       0.752   8.836  19.932  0.00  0.00    +0.000 HD
BRANCH  15  20
ATOM     19  C   UNL     1       0.180  11.391  20.612  0.00  0.00    +0.000 C 
ATOM     20  C   UNL     1       0.313  10.809  19.198  0.00  0.00    +0.000 C 
BRANCH  20  21
ATOM     21  C   UNL     1      -1.043  10.747  18.518  0.00  0.00    +0.000 A 
ATOM     22  C   UNL     1      -2.081  11.573  18.973  0.00  0.00    +0.000 A 
ATOM     23  C   UNL     1      -3.361  11.474  18.425  0.00  0.00    +0.000 A 
ATOM     24  C   UNL     1      -3.616  10.556  17.409  0.00  0.00    +0.000 A 
ATOM     25  C   UNL     1      -2.589   9.748  16.927  0.00  0.00    +0.000 A 
ATOM     26  C   UNL     1      -1.307   9.847  17.472  0.00  0.00    +0.000 A 
ENDBRANCH  20  21
ENDBRANCH  15  20
ENDBRANCH   1  16
BRANCH   7  27
ATOM     27  O   UNL     1       1.211   7.512  20.573  0.00  0.00    +0.000 OA
ATOM     28  H   UNL     1       1.611   7.375  21.456  0.00  0.00    +0.000 HD
ENDBRANCH   7  27
TORSDOF 5
ENDMDL
