MODEL 1
REMARK VINA RESULT:      -8.2      0.000      0.000
REMARK  Name = 
REMARK  4 active torsions:
REMARK  status: ('A' for Active; 'I' for Inactive)
REMARK    1  A    between atoms: N_5  and  C_6
REMARK    2  A    between atoms: C_6  and  C_7
REMARK    3  A    between atoms: C_7  and  N_8
REMARK    4  A    between atoms: C_12  and  C_13
REMARK                            x       y       z     vdW  Elec       q    Type
REMARK                         _______ _______ _______ _____ _____    ______ ____
ROOT
ATOM      1  N   UNL     1       4.613   4.940  17.805  0.00  0.00    +0.000 NA
ATOM      2  C   UNL     1       3.583   3.982  17.365  0.00  0.00    +0.000 C 
ATOM      3  C   UNL     1       2.168   4.429  17.732  0.00  0.00    +0.000 C 
ATOM      4  C   UNL     1       2.052   4.779  19.214  0.00  0.00    +0.000 C 
ATOM      5  C   UNL     1       3.132   5.810  19.611  0.00  0.00    +0.000 C 
ATOM      6  C   UNL     1       4.493   5.196  19.250  0.00  0.00    +0.000 C 
ENDROOT
BRANCH   5   7
ATOM      7  C   UNL     1       2.795   7.171  19.027  0.00  0.00    +0.000 A 
ATOM      8  N   UNL     1       3.209   7.546  17.826  0.00  0.00    +0.000 NA
ATOM      9  N   UNL     1       2.549   8.676  17.449  0.00  0.00    +0.000 NA
ATOM     10  C   UNL     1       1.725   8.988  18.415  0.00  0.00    +0.000 A 
ATOM     11  C   UNL     1       0.706   9.975  18.501  0.00  0.00    +0.000 A 
ATOM     12  C   UNL     1      -0.020  10.088  19.627  0.00  0.00    +0.000 A 
ATOM     13  C   UNL     1       0.288   9.289  20.800  0.00  0.00    +0.000 A 
ATOM     14  C   UNL     1       1.230   8.331  20.713  0.00  0.00    +0.000 A 
ATOM     15  N   UNL     1       1.905   8.133  19.500  0.00  0.00    +0.000 N 
ENDBRANCH   5   7
BRANCH   1  16
ATOM     16  C   UNL     1       5.975   4.488  17.448  0.00  0.00    +0.000 C 
BRANCH  16  17
ATOM     17  C   UNL     1       6.683   5.464  16.496  0.00  0.00    +0.000 C 
BRANCH  17  22
ATOM     18 CL   UNL     1       5.781   2.897  12.050  0.00  0.00    +0.000 Cl
ATOM     19  C   UNL     1       6.381   3.912  13.261  0.00  0.00    +0.000 A 
ATOM     20  C   UNL     1       7.426   4.843  13.136  0.00  0.00    +0.000 A 
ATOM     21  N   UNL     1       7.665   5.496  14.279  0.00  0.00    +0.000 NA
ATOM     22  N   UNL     1       6.764   4.969  15.134  0.00  0.00    +0.000 N 
ATOM     23  C   UNL     1       5.962   4.022  14.563  0.00  0.00    +0.000 A 
ENDBRANCH  17  22
ENDBRANCH  16  17
ENDBRANCH   1  16
TORSDOF 4
ENDMDL
MODEL 2
REMARK VINA RESULT:      -8.1      2.328      2.793
REMARK  Name = 
REMARK  4 active torsions:
REMARK  status: ('A' for Active; 'I' for Inactive)
REMARK    1  A    between atoms: N_5  and  C_6
REMARK    2  A    between atoms: C_6  and  C_7
REMARK    3  A    between atoms: C_7  and  N_8
REMARK    4  A    between atoms: C_12  and  C_13
REMARK                            x       y       z     vdW  Elec       q    Type
REMARK                         _______ _______ _______ _____ _____    ______ ____
ROOT
ATOM      1  N   UNL     1       3.699   3.985  17.903  0.00  0.00    +0.000 NA
ATOM      2  C   UNL     1       2.408   3.289  17.756  0.00  0.00    +0.000 C 
ATOM      3  C   UNL     1       1.248   4.061  18.386  0.00  0.00    +0.000 C 
ATOM      4  C   UNL     1       1.547   4.447  19.834  0.00  0.00    +0.000 C 
ATOM      5  C   UNL     1       2.893   5.200  19.925  0.00  0.00    +0.000 C 
ATOM      6  C   UNL     1       3.964   4.279  19.321  0.00  0.00    +0.000 C 
ENDROOT
BRANCH   5   7
ATOM      7  C   UNL     1       2.752   6.594  19.340  0.00  0.00    +0.000 A 
ATOM      8  N   UNL     1       3.245   6.917  18.154  0.00  0.00    +0.000 NA
ATOM      9  N   UNL     1       2.748   8.124  17.766  0.00  0.00    +0.000 NA
ATOM     10  C   UNL     1       1.943   8.537  18.710  0.00  0.00    +0.000 A 
ATOM     11  C   UNL     1       1.059   9.647  18.774  0.00  0.00    +0.000 A 
ATOM     12  C   UNL     1       0.320   9.849  19.880  0.00  0.00    +0.000 A 
ATOM     13  C   UNL     1       0.489   9.014  21.055  0.00  0.00    +0.000 A 
ATOM     14  C   UNL     1       1.301   7.942  20.989  0.00  0.00    +0.000 A 
ATOM     15  N   UNL     1       1.980   7.663  19.794  0.00  0.00    +0.000 N 
ENDBRANCH   5   7
BRANCH   1  16
ATOM     16  C   UNL     1       4.809   3.221  17.294  0.00  0.00    +0.000 C 
BRANCH  16  17
ATOM     17  C   UNL     1       5.674   4.087  16.366  0.00  0.00    +0.000 C 
BRANCH  17  22
ATOM     18 CL   UNL     1       8.063   8.433  17.969  0.00  0.00    +0.000 Cl
ATOM     19  C   UNL     1       7.498   6.852  17.777  0.00  0.00    +0.000 A 
ATOM     20  C   UNL     1       7.797   5.748  18.593  0.00  0.00    +0.000 A 
ATOM     21  N   UNL     1       7.192   4.630  18.177  0.00  0.00    +0.000 NA
ATOM     22  N   UNL     1       6.507   5.031  17.086  0.00  0.00    +0.000 N 
ATOM     23  C   UNL     1       6.651   6.363  16.814  0.00  0.00    +0.000 A 
ENDBRANCH  17  22
ENDBRANCH  16  17
ENDBRANCH   1  16
TORSDOF 4
ENDMDL
MODEL 3
REMARK VINA RESULT:      -8.0      3.166      4.509
REMARK  Name = 
REMARK  4 active torsions:
REMARK  status: ('A' for Active; 'I' for Inactive)
REMARK    1  A    between atoms: N_5  and  C_6
REMARK    2  A    between atoms: C_6  and  C_7
REMARK    3  A    between atoms: C_7  and  N_8
REMARK    4  A    between atoms: C_12  and  C_13
REMARK                            x       y       z     vdW  Elec       q    Type
REMARK                         _______ _______ _______ _____ _____    ______ ____
ROOT
ATOM      1  N   UNL     1       5.869   4.857  16.346  0.00  0.00    +0.000 NA
ATOM      2  C   UNL     1       7.305   4.870  16.680  0.00  0.00    +0.000 C 
ATOM      3  C   UNL     1       7.563   4.696  18.177  0.00  0.00    +0.000 C 
ATOM      4  C   UNL     1       6.756   5.690  19.009  0.00  0.00    +0.000 C 
ATOM      5  C   UNL     1       5.258   5.611  18.641  0.00  0.00    +0.000 C 
ATOM      6  C   UNL     1       5.151   5.873  17.132  0.00  0.00    +0.000 C 
ENDROOT
BRANCH   5   7
ATOM      7  C   UNL     1       4.656   4.323  19.177  0.00  0.00    +0.000 A 
ATOM      8  N   UNL     1       5.389   3.246  19.414  0.00  0.00    +0.000 NA
ATOM      9  N   UNL     1       4.660   2.347  20.132  0.00  0.00    +0.000 NA
ATOM     10  C   UNL     1       3.483   2.877  20.341  0.00  0.00    +0.000 A 
ATOM     11  C   UNL     1       2.387   2.450  21.138  0.00  0.00    +0.000 A 
ATOM     12  C   UNL     1       1.269   3.196  21.189  0.00  0.00    +0.000 A 
ATOM     13  C   UNL     1       1.119   4.377  20.359  0.00  0.00    +0.000 A 
ATOM     14  C   UNL     1       2.165   4.804  19.627  0.00  0.00    +0.000 A 
ATOM     15  N   UNL     1       3.373   4.092  19.668  0.00  0.00    +0.000 N 
ENDBRANCH   5   7
BRANCH   1  16
ATOM     16  C   UNL     1       5.640   5.033  14.895  0.00  0.00    +0.000 C 
BRANCH  16  17
ATOM     17  C   UNL     1       6.544   4.127  14.047  0.00  0.00    +0.000 C 
BRANCH  17  22
ATOM     18 CL   UNL     1       3.085   3.052  10.299  0.00  0.00    +0.000 Cl
ATOM     19  C   UNL     1       4.411   3.068  11.346  0.00  0.00    +0.000 A 
ATOM     20  C   UNL     1       5.521   2.207  11.309  0.00  0.00    +0.000 A 
ATOM     21  N   UNL     1       6.405   2.475  12.277  0.00  0.00    +0.000 NA
ATOM     22  N   UNL     1       5.846   3.514  12.932  0.00  0.00    +0.000 N 
ATOM     23  C   UNL     1       4.652   3.912  12.401  0.00  0.00    +0.000 A 
ENDBRANCH  17  22
ENDBRANCH  16  17
ENDBRANCH   1  16
TORSDOF 4
ENDMDL
MODEL 4
REMARK VINA RESULT:      -7.6      3.087      4.432
REMARK  Name = 
REMARK  4 active torsions:
REMARK  status: ('A' for Active; 'I' for Inactive)
REMARK    1  A    between atoms: N_5  and  C_6
REMARK    2  A    between atoms: C_6  and  C_7
REMARK    3  A    between atoms: C_7  and  N_8
REMARK    4  A    between atoms: C_12  and  C_13
REMARK                            x       y       z     vdW  Elec       q    Type
REMARK                         _______ _______ _______ _____ _____    ______ ____
ROOT
ATOM      1  N   UNL     1       5.753   5.009  16.335  0.00  0.00    +0.000 NA
ATOM      2  C   UNL     1       7.205   4.910  16.566  0.00  0.00    +0.000 C 
ATOM      3  C   UNL     1       7.551   4.617  18.026  0.00  0.00    +0.000 C 
ATOM      4  C   UNL     1       6.870   5.600  18.976  0.00  0.00    +0.000 C 
ATOM      5  C   UNL     1       5.348   5.639  18.712  0.00  0.00    +0.000 C 
ATOM      6  C   UNL     1       5.157   6.011  17.235  0.00  0.00    +0.000 C 
ENDROOT
BRANCH   5   7
ATOM      7  C   UNL     1       4.700   4.356  19.205  0.00  0.00    +0.000 A 
ATOM      8  N   UNL     1       5.394   3.249  19.414  0.00  0.00    +0.000 NA
ATOM      9  N   UNL     1       4.630   2.354  20.099  0.00  0.00    +0.000 NA
ATOM     10  C   UNL     1       3.470   2.916  20.318  0.00  0.00    +0.000 A 
ATOM     11  C   UNL     1       2.354   2.503  21.094  0.00  0.00    +0.000 A 
ATOM     12  C   UNL     1       1.262   3.284  21.161  0.00  0.00    +0.000 A 
ATOM     13  C   UNL     1       1.158   4.494  20.367  0.00  0.00    +0.000 A 
ATOM     14  C   UNL     1       2.223   4.907  19.655  0.00  0.00    +0.000 A 
ATOM     15  N   UNL     1       3.405   4.154  19.681  0.00  0.00    +0.000 N 
ENDBRANCH   5   7
BRANCH   1  16
ATOM     16  C   UNL     1       5.438   5.299  14.919  0.00  0.00    +0.000 C 
BRANCH  16  17
ATOM     17  C   UNL     1       6.546   4.826  13.966  0.00  0.00    +0.000 C 
BRANCH  17  22
ATOM     18 CL   UNL     1       6.207   0.763  10.719  0.00  0.00    +0.000 Cl
ATOM     19  C   UNL     1       5.920   2.153  11.637  0.00  0.00    +0.000 A 
ATOM     20  C   UNL     1       4.730   2.899  11.683  0.00  0.00    +0.000 A 
ATOM     21  N   UNL     1       4.819   3.947  12.508  0.00  0.00    +0.000 NA
ATOM     22  N   UNL     1       6.078   3.864  12.987  0.00  0.00    +0.000 N 
ATOM     23  C   UNL     1       6.774   2.793  12.500  0.00  0.00    +0.000 A 
ENDBRANCH  17  22
ENDBRANCH  16  17
ENDBRANCH   1  16
TORSDOF 4
ENDMDL
MODEL 5
REMARK VINA RESULT:      -7.5      2.940      3.982
REMARK  Name = 
REMARK  4 active torsions:
REMARK  status: ('A' for Active; 'I' for Inactive)
REMARK    1  A    between atoms: N_5  and  C_6
REMARK    2  A    between atoms: C_6  and  C_7
REMARK    3  A    between atoms: C_7  and  N_8
REMARK    4  A    between atoms: C_12  and  C_13
REMARK                            x       y       z     vdW  Elec       q    Type
REMARK                         _______ _______ _______ _____ _____    ______ ____
ROOT
ATOM      1  N   UNL     1       5.249   5.139  16.216  0.00  0.00    +0.000 NA
ATOM      2  C   UNL     1       6.323   4.548  17.035  0.00  0.00    +0.000 C 
ATOM      3  C   UNL     1       5.889   4.287  18.477  0.00  0.00    +0.000 C 
ATOM      4  C   UNL     1       5.278   5.532  19.117  0.00  0.00    +0.000 C 
ATOM      5  C   UNL     1       4.139   6.090  18.235  0.00  0.00    +0.000 C 
ATOM      6  C   UNL     1       4.738   6.367  16.849  0.00  0.00    +0.000 C 
ENDROOT
BRANCH   5   7
ATOM      7  C   UNL     1       2.927   5.177  18.309  0.00  0.00    +0.000 A 
ATOM      8  N   UNL     1       2.301   4.744  17.226  0.00  0.00    +0.000 NA
ATOM      9  N   UNL     1       1.440   3.745  17.564  0.00  0.00    +0.000 NA
ATOM     10  C   UNL     1       1.545   3.559  18.854  0.00  0.00    +0.000 A 
ATOM     11  C   UNL     1       0.993   2.569  19.711  0.00  0.00    +0.000 A 
ATOM     12  C   UNL     1       1.267   2.598  21.027  0.00  0.00    +0.000 A 
ATOM     13  C   UNL     1       2.030   3.687  21.609  0.00  0.00    +0.000 A 
ATOM     14  C   UNL     1       2.581   4.610  20.799  0.00  0.00    +0.000 A 
ATOM     15  N   UNL     1       2.396   4.511  19.412  0.00  0.00    +0.000 N 
ENDBRANCH   5   7
BRANCH   1  16
ATOM     16  C   UNL     1       5.690   5.390  14.827  0.00  0.00    +0.000 C 
BRANCH  16  17
ATOM     17  C   UNL     1       6.498   4.218  14.250  0.00  0.00    +0.000 C 
BRANCH  17  22
ATOM     18 CL   UNL     1       3.195   3.067  10.387  0.00  0.00    +0.000 Cl
ATOM     19  C   UNL     1       4.494   3.126  11.466  0.00  0.00    +0.000 A 
ATOM     20  C   UNL     1       5.655   2.335  11.427  0.00  0.00    +0.000 A 
ATOM     21  N   UNL     1       6.500   2.623  12.424  0.00  0.00    +0.000 NA
ATOM     22  N   UNL     1       5.864   3.603  13.100  0.00  0.00    +0.000 N 
ATOM     23  C   UNL     1       4.660   3.947  12.553  0.00  0.00    +0.000 A 
ENDBRANCH  17  22
ENDBRANCH  16  17
ENDBRANCH   1  16
TORSDOF 4
ENDMDL
MODEL 6
REMARK VINA RESULT:      -7.5      2.588      3.010
REMARK  Name = 
REMARK  4 active torsions:
REMARK  status: ('A' for Active; 'I' for Inactive)
REMARK    1  A    between atoms: N_5  and  C_6
REMARK    2  A    between atoms: C_6  and  C_7
REMARK    3  A    between atoms: C_7  and  N_8
REMARK    4  A    between atoms: C_12  and  C_13
REMARK                            x       y       z     vdW  Elec       q    Type
REMARK                         _______ _______ _______ _____ _____    ______ ____
ROOT
ATOM      1  N   UNL     1       4.173   4.696  17.603  0.00  0.00    +0.000 NA
ATOM      2  C   UNL     1       3.020   3.831  17.294  0.00  0.00    +0.000 C 
ATOM      3  C   UNL     1       1.720   4.336  17.921  0.00  0.00    +0.000 C 
ATOM      4  C   UNL     1       1.878   4.595  19.418  0.00  0.00    +0.000 C 
ATOM      5  C   UNL     1       3.078   5.531  19.681  0.00  0.00    +0.000 C 
ATOM      6  C   UNL     1       4.313   4.863  19.059  0.00  0.00    +0.000 C 
ENDROOT
BRANCH   5   7
ATOM      7  C   UNL     1       2.744   6.945  19.238  0.00  0.00    +0.000 A 
ATOM      8  N   UNL     1       3.136   7.431  18.071  0.00  0.00    +0.000 NA
ATOM      9  N   UNL     1       2.481   8.598  17.820  0.00  0.00    +0.000 NA
ATOM     10  C   UNL     1       1.681   8.823  18.829  0.00  0.00    +0.000 A 
ATOM     11  C   UNL     1       0.676   9.806  19.034  0.00  0.00    +0.000 A 
ATOM     12  C   UNL     1      -0.024   9.816  20.182  0.00  0.00    +0.000 A 
ATOM     13  C   UNL     1       0.301   8.904  21.264  0.00  0.00    +0.000 A 
ATOM     14  C   UNL     1       1.229   7.951  21.064  0.00  0.00    +0.000 A 
ATOM     15  N   UNL     1       1.876   7.865  19.823  0.00  0.00    +0.000 N 
ENDBRANCH   5   7
BRANCH   1  16
ATOM     16  C   UNL     1       5.422   4.189  16.994  0.00  0.00    +0.000 C 
BRANCH  16  17
ATOM     17  C   UNL     1       6.653   4.470  17.868  0.00  0.00    +0.000 C 
BRANCH  17  22
ATOM     18 CL   UNL     1       8.890   9.066  18.886  0.00  0.00    +0.000 Cl
ATOM     19  C   UNL     1       8.058   7.768  18.193  0.00  0.00    +0.000 A 
ATOM     20  C   UNL     1       7.459   7.738  16.922  0.00  0.00    +0.000 A 
ATOM     21  N   UNL     1       6.876   6.562  16.663  0.00  0.00    +0.000 NA
ATOM     22  N   UNL     1       7.107   5.845  17.782  0.00  0.00    +0.000 N 
ATOM     23  C   UNL     1       7.825   6.525  18.725  0.00  0.00    +0.000 A 
ENDBRANCH  17  22
ENDBRANCH  16  17
ENDBRANCH   1  16
TORSDOF 4
ENDMDL
MODEL 7
REMARK VINA RESULT:      -7.4      4.606      6.480
REMARK  Name = 
REMARK  4 active torsions:
REMARK  status: ('A' for Active; 'I' for Inactive)
REMARK    1  A    between atoms: N_5  and  C_6
REMARK    2  A    between atoms: C_6  and  C_7
REMARK    3  A    between atoms: C_7  and  N_8
REMARK    4  A    between atoms: C_12  and  C_13
REMARK                            x       y       z     vdW  Elec       q    Type
REMARK                         _______ _______ _______ _____ _____    ______ ____
ROOT
ATOM      1  N   UNL     1       7.150   6.714  17.970  0.00  0.00    +0.000 NA
ATOM      2  C   UNL     1       6.848   6.855  16.534  0.00  0.00    +0.000 C 
ATOM      3  C   UNL     1       5.805   5.846  16.049  0.00  0.00    +0.000 C 
ATOM      4  C   UNL     1       6.181   4.417  16.434  0.00  0.00    +0.000 C 
ATOM      5  C   UNL     1       6.455   4.320  17.951  0.00  0.00    +0.000 C 
ATOM      6  C   UNL     1       7.562   5.333  18.274  0.00  0.00    +0.000 C 
ENDROOT
BRANCH   5   7
ATOM      7  C   UNL     1       5.152   4.431  18.725  0.00  0.00    +0.000 A 
ATOM      8  N   UNL     1       4.917   5.418  19.575  0.00  0.00    +0.000 NA
ATOM      9  N   UNL     1       3.597   5.424  19.913  0.00  0.00    +0.000 NA
ATOM     10  C   UNL     1       3.023   4.446  19.263  0.00  0.00    +0.000 A 
ATOM     11  C   UNL     1       1.656   4.079  19.130  0.00  0.00    +0.000 A 
ATOM     12  C   UNL     1       1.322   3.013  18.382  0.00  0.00    +0.000 A 
ATOM     13  C   UNL     1       2.341   2.162  17.794  0.00  0.00    +0.000 A 
ATOM     14  C   UNL     1       3.634   2.523  17.890  0.00  0.00    +0.000 A 
ATOM     15  N   UNL     1       3.974   3.702  18.569  0.00  0.00    +0.000 N 
ENDBRANCH   5   7
BRANCH   1  16
ATOM     16  C   UNL     1       8.164   7.692  18.418  0.00  0.00    +0.000 C 
BRANCH  16  17
ATOM     17  C   UNL     1       8.063   9.025  17.662  0.00  0.00    +0.000 C 
BRANCH  17  22
ATOM     18 CL   UNL     1       9.940  13.715  18.944  0.00  0.00    +0.000 Cl
ATOM     19  C   UNL     1       9.514  12.081  18.895  0.00  0.00    +0.000 A 
ATOM     20  C   UNL     1       9.796  11.110  19.870  0.00  0.00    +0.000 A 
ATOM     21  N   UNL     1       9.323   9.903  19.538  0.00  0.00    +0.000 NA
ATOM     22  N   UNL     1       8.739  10.115  18.340  0.00  0.00    +0.000 N 
ATOM     23  C   UNL     1       8.819  11.412  17.919  0.00  0.00    +0.000 A 
ENDBRANCH  17  22
ENDBRANCH  16  17
ENDBRANCH   1  16
TORSDOF 4
ENDMDL
MODEL 8
REMARK VINA RESULT:      -7.4      2.430      2.735
REMARK  Name = 
REMARK  4 active torsions:
REMARK  status: ('A' for Active; 'I' for Inactive)
REMARK    1  A    between atoms: N_5  and  C_6
REMARK    2  A    between atoms: C_6  and  C_7
REMARK    3  A    between atoms: C_7  and  N_8
REMARK    4  A    between atoms: C_12  and  C_13
REMARK                            x       y       z     vdW  Elec       q    Type
REMARK                         _______ _______ _______ _____ _____    ______ ____
ROOT
ATOM      1  N   UNL     1       3.239   3.834  18.394  0.00  0.00    +0.000 NA
ATOM      2  C   UNL     1       1.917   3.187  18.474  0.00  0.00    +0.000 C 
ATOM      3  C   UNL     1       0.872   4.066  19.162  0.00  0.00    +0.000 C 
ATOM      4  C   UNL     1       1.362   4.572  20.517  0.00  0.00    +0.000 C 
ATOM      5  C   UNL     1       2.733   5.269  20.369  0.00  0.00    +0.000 C 
ATOM      6  C   UNL     1       3.689   4.249  19.733  0.00  0.00    +0.000 C 
ENDROOT
BRANCH   5   7
ATOM      7  C   UNL     1       2.566   6.607  19.670  0.00  0.00    +0.000 A 
ATOM      8  N   UNL     1       2.991   6.818  18.434  0.00  0.00    +0.000 NA
ATOM      9  N   UNL     1       2.479   7.991  17.969  0.00  0.00    +0.000 NA
ATOM     10  C   UNL     1       1.732   8.494  18.916  0.00  0.00    +0.000 A 
ATOM     11  C   UNL     1       0.858   9.615  18.931  0.00  0.00    +0.000 A 
ATOM     12  C   UNL     1       0.186   9.922  20.054  0.00  0.00    +0.000 A 
ATOM     13  C   UNL     1       0.418   9.193  21.288  0.00  0.00    +0.000 A 
ATOM     14  C   UNL     1       1.220   8.112  21.272  0.00  0.00    +0.000 A 
ATOM     15  N   UNL     1       1.827   7.720  20.070  0.00  0.00    +0.000 N 
ENDBRANCH   5   7
BRANCH   1  16
ATOM     16  C   UNL     1       4.238   2.967  17.732  0.00  0.00    +0.000 C 
BRANCH  16  17
ATOM     17  C   UNL     1       4.900   3.653  16.528  0.00  0.00    +0.000 C 
BRANCH  17  22
ATOM     18 CL   UNL     1       8.227   7.042  18.676  0.00  0.00    +0.000 Cl
ATOM     19  C   UNL     1       7.017   6.288  17.768  0.00  0.00    +0.000 A 
ATOM     20  C   UNL     1       6.191   6.891  16.805  0.00  0.00    +0.000 A 
ATOM     21  N   UNL     1       5.330   6.025  16.259  0.00  0.00    +0.000 NA
ATOM     22  N   UNL     1       5.613   4.864  16.887  0.00  0.00    +0.000 N 
ATOM     23  C   UNL     1       6.629   4.972  17.794  0.00  0.00    +0.000 A 
ENDBRANCH  17  22
ENDBRANCH  16  17
ENDBRANCH   1  16
TORSDOF 4
ENDMDL
MODEL 9
REMARK VINA RESULT:      -7.4      3.262      7.546
REMARK  Name = 
REMARK  4 active torsions:
REMARK  status: ('A' for Active; 'I' for Inactive)
REMARK    1  A    between atoms: N_5  and  C_6
REMARK    2  A    between atoms: C_6  and  C_7
REMARK    3  A    between atoms: C_7  and  N_8
REMARK    4  A    between atoms: C_12  and  C_13
REMARK                            x       y       z     vdW  Elec       q    Type
REMARK                         _______ _______ _______ _____ _____    ______ ____
ROOT
ATOM      1  N   UNL     1       4.851   6.164  17.209  0.00  0.00    +0.000 NA
ATOM      2  C   UNL     1       5.812   6.698  18.192  0.00  0.00    +0.000 C 
ATOM      3  C   UNL     1       7.256   6.309  17.875  0.00  0.00    +0.000 C 
ATOM      4  C   UNL     1       7.403   4.803  17.668  0.00  0.00    +0.000 C 
ATOM      5  C   UNL     1       6.397   4.304  16.607  0.00  0.00    +0.000 C 
ATOM      6  C   UNL     1       4.996   4.703  17.093  0.00  0.00    +0.000 C 
ENDROOT
BRANCH   5   7
ATOM      7  C   UNL     1       6.822   4.768  15.225  0.00  0.00    +0.000 A 
ATOM      8  N   UNL     1       7.856   5.574  15.037  0.00  0.00    +0.000 NA
ATOM      9  N   UNL     1       8.174   5.608  13.713  0.00  0.00    +0.000 NA
ATOM     10  C   UNL     1       7.340   4.816  13.091  0.00  0.00    +0.000 A 
ATOM     11  C   UNL     1       7.294   4.369  11.743  0.00  0.00    +0.000 A 
ATOM     12  C   UNL     1       6.316   3.534  11.350  0.00  0.00    +0.000 A 
ATOM     13  C   UNL     1       5.241   3.164  12.252  0.00  0.00    +0.000 A 
ATOM     14  C   UNL     1       5.296   3.558  13.538  0.00  0.00    +0.000 A 
ATOM     15  N   UNL     1       6.381   4.331  13.977  0.00  0.00    +0.000 N 
ENDBRANCH   5   7
BRANCH   1  16
ATOM     16  C   UNL     1       3.460   6.545  17.536  0.00  0.00    +0.000 C 
BRANCH  16  17
ATOM     17  C   UNL     1       3.177   6.487  19.044  0.00  0.00    +0.000 C 
BRANCH  17  22
ATOM     18 CL   UNL     1       1.232   2.536  21.832  0.00  0.00    +0.000 Cl
ATOM     19  C   UNL     1       1.655   3.625  20.611  0.00  0.00    +0.000 A 
ATOM     20  C   UNL     1       1.248   3.579  19.267  0.00  0.00    +0.000 A 
ATOM     21  N   UNL     1       1.754   4.587  18.547  0.00  0.00    +0.000 NA
ATOM     22  N   UNL     1       2.491   5.274  19.446  0.00  0.00    +0.000 N 
ATOM     23  C   UNL     1       2.451   4.739  20.703  0.00  0.00    +0.000 A 
ENDBRANCH  17  22
ENDBRANCH  16  17
ENDBRANCH   1  16
TORSDOF 4
ENDMDL
