MODEL 1
REMARK VINA RESULT:      -8.7      0.000      0.000
REMARK  Name = 
REMARK  6 active torsions:
REMARK  status: ('A' for Active; 'I' for Inactive)
REMARK    1  A    between atoms: C_1  and  N_2
REMARK    2  A    between atoms: N_5  and  C_6
REMARK    3  A    between atoms: C_6  and  C_7
REMARK    4  A    between atoms: C_10  and  C_11
REMARK    5  A    between atoms: C_16  and  N_17
REMARK    6  A    between atoms: C_18  and  C_20
REMARK                            x       y       z     vdW  Elec       q    Type
REMARK                         _______ _______ _______ _____ _____    ______ ____
ROOT
ATOM      1  C   UNL     1       2.114   6.742  19.937  0.00  0.00    +0.000 A 
ATOM      2  C   UNL     1       1.784   5.692  20.804  0.00  0.00    +0.000 A 
ATOM      3  C   UNL     1       2.363   4.432  20.657  0.00  0.00    +0.000 A 
ATOM      4  C   UNL     1       3.265   4.175  19.618  0.00  0.00    +0.000 A 
ATOM      5 CL   UNL     1       4.153   2.699  19.796  0.00  0.00    +0.000 Cl
ATOM      6  C   UNL     1       3.529   5.159  18.645  0.00  0.00    +0.000 A 
ATOM      7  C   UNL     1       2.974   6.443  18.852  0.00  0.00    +0.000 A 
ENDROOT
BRANCH   1  11
ATOM      8  C   UNL     1       0.644  10.707  20.532  0.00  0.00    +0.000 A 
ATOM      9  C   UNL     1       0.743   9.860  21.633  0.00  0.00    +0.000 A 
ATOM     10  C   UNL     1       1.223   8.560  21.452  0.00  0.00    +0.000 A 
ATOM     11  C   UNL     1       1.581   8.102  20.180  0.00  0.00    +0.000 A 
ATOM     12  C   UNL     1       1.408   9.027  19.142  0.00  0.00    +0.000 A 
ATOM     13  N   UNL     1       0.965  10.301  19.282  0.00  0.00    +0.000 NA
BRANCH   8  14
ATOM     14  C   UNL     1       0.223  12.156  20.709  0.00  0.00    +0.000 C 
BRANCH  14  19
ATOM     15  C   UNL     1       1.088  16.483  18.791  0.00  0.00    +0.000 C 
ATOM     16  N   UNL     1       1.450  15.579  19.877  0.00  0.00    +0.000 NA
ATOM     17  C   UNL     1       2.051  14.337  19.353  0.00  0.00    +0.000 C 
ATOM     18  C   UNL     1       2.374  13.323  20.477  0.00  0.00    +0.000 C 
ATOM     19  N   UNL     1       1.242  12.995  21.377  0.00  0.00    +0.000 NA
ATOM     20  C   UNL     1       0.652  14.267  21.849  0.00  0.00    +0.000 C 
ATOM     21  C   UNL     1       0.287  15.267  20.725  0.00  0.00    +0.000 C 
ENDBRANCH  14  19
ENDBRANCH   8  14
ENDBRANCH   1  11
BRANCH   6  22
ATOM     22  N   UNL     1       4.331   4.998  17.473  0.00  0.00    +0.000 N 
ATOM     23  C   UNL     1       5.716   4.940  17.434  0.00  0.00    +0.000 C 
ATOM     24  O   UNL     1       6.452   4.917  18.412  0.00  0.00    +0.000 OA
ATOM     25  H   UNL     1       3.877   4.691  16.619  0.00  0.00    +0.000 HD
BRANCH  23  26
ATOM     26  C   UNL     1       6.299   4.817  16.098  0.00  0.00    +0.000 A 
ATOM     27  C   UNL     1       5.945   3.828  15.207  0.00  0.00    +0.000 A 
ATOM     28  O   UNL     1       6.625   4.022  14.053  0.00  0.00    +0.000 OA
ATOM     29  C   UNL     1       7.370   5.132  14.291  0.00  0.00    +0.000 A 
ATOM     30  N   UNL     1       8.122   5.529  13.268  0.00  0.00    +0.000 N 
ATOM     31  N   UNL     1       7.245   5.641  15.503  0.00  0.00    +0.000 NA
ATOM     32  H   UNL     1       8.265   4.857  12.523  0.00  0.00    +0.000 HD
ATOM     33  H   UNL     1       8.915   6.123  13.459  0.00  0.00    +0.000 HD
ENDBRANCH  23  26
ENDBRANCH   6  22
TORSDOF 5
ENDMDL
MODEL 2
REMARK VINA RESULT:      -8.6      1.474      1.786
REMARK  Name = 
REMARK  6 active torsions:
REMARK  status: ('A' for Active; 'I' for Inactive)
REMARK    1  A    between atoms: C_1  and  N_2
REMARK    2  A    between atoms: N_5  and  C_6
REMARK    3  A    between atoms: C_6  and  C_7
REMARK    4  A    between atoms: C_10  and  C_11
REMARK    5  A    between atoms: C_16  and  N_17
REMARK    6  A    between atoms: C_18  and  C_20
REMARK                            x       y       z     vdW  Elec       q    Type
REMARK                         _______ _______ _______ _____ _____    ______ ____
ROOT
ATOM      1  C   UNL     1       2.155   6.465  20.022  0.00  0.00    +0.000 A 
ATOM      2  C   UNL     1       1.830   5.378  20.842  0.00  0.00    +0.000 A 
ATOM      3  C   UNL     1       2.411   4.126  20.639  0.00  0.00    +0.000 A 
ATOM      4  C   UNL     1       3.310   3.917  19.587  0.00  0.00    +0.000 A 
ATOM      5 CL   UNL     1       4.201   2.436  19.696  0.00  0.00    +0.000 Cl
ATOM      6  C   UNL     1       3.569   4.943  18.656  0.00  0.00    +0.000 A 
ATOM      7  C   UNL     1       3.013   6.216  18.921  0.00  0.00    +0.000 A 
ENDROOT
BRANCH   1  11
ATOM      8  C   UNL     1       0.686  10.399  20.799  0.00  0.00    +0.000 A 
ATOM      9  C   UNL     1       0.733   9.485  21.848  0.00  0.00    +0.000 A 
ATOM     10  C   UNL     1       1.213   8.195  21.607  0.00  0.00    +0.000 A 
ATOM     11  C   UNL     1       1.621   7.813  20.325  0.00  0.00    +0.000 A 
ATOM     12  C   UNL     1       1.497   8.800  19.340  0.00  0.00    +0.000 A 
ATOM     13  N   UNL     1       1.056  10.068  19.540  0.00  0.00    +0.000 NA
BRANCH   8  14
ATOM     14  C   UNL     1       0.266  11.838  21.047  0.00  0.00    +0.000 C 
BRANCH  14  19
ATOM     15  C   UNL     1      -1.231  16.269  22.174  0.00  0.00    +0.000 C 
ATOM     16  N   UNL     1      -1.645  14.874  22.068  0.00  0.00    +0.000 NA
ATOM     17  C   UNL     1      -0.884  14.025  23.004  0.00  0.00    +0.000 C 
ATOM     18  C   UNL     1      -1.244  12.527  22.860  0.00  0.00    +0.000 C 
ATOM     19  N   UNL     1      -1.140  11.981  21.486  0.00  0.00    +0.000 NA
ATOM     20  C   UNL     1      -1.886  12.882  20.580  0.00  0.00    +0.000 C 
ATOM     21  C   UNL     1      -1.499  14.376  20.690  0.00  0.00    +0.000 C 
ENDBRANCH  14  19
ENDBRANCH   8  14
ENDBRANCH   1  11
BRANCH   6  22
ATOM     22  N   UNL     1       4.367   4.836  17.476  0.00  0.00    +0.000 N 
ATOM     23  C   UNL     1       5.749   4.718  17.433  0.00  0.00    +0.000 C 
ATOM     24  O   UNL     1       6.479   4.587  18.407  0.00  0.00    +0.000 OA
ATOM     25  H   UNL     1       3.904   4.615  16.601  0.00  0.00    +0.000 HD
BRANCH  23  26
ATOM     26  C   UNL     1       6.330   4.670  16.093  0.00  0.00    +0.000 A 
ATOM     27  C   UNL     1       6.011   3.704  15.164  0.00  0.00    +0.000 A 
ATOM     28  O   UNL     1       6.679   3.970  14.016  0.00  0.00    +0.000 OA
ATOM     29  C   UNL     1       7.382   5.097  14.296  0.00  0.00    +0.000 A 
ATOM     30  N   UNL     1       8.114   5.563  13.288  0.00  0.00    +0.000 N 
ATOM     31  N   UNL     1       7.242   5.553  15.528  0.00  0.00    +0.000 NA
ATOM     32  H   UNL     1       8.280   4.927  12.517  0.00  0.00    +0.000 HD
ATOM     33  H   UNL     1       8.885   6.179  13.501  0.00  0.00    +0.000 HD
ENDBRANCH  23  26
ENDBRANCH   6  22
TORSDOF 5
ENDMDL
MODEL 3
REMARK VINA RESULT:      -8.5      1.411      1.946
REMARK  Name = 
REMARK  6 active torsions:
REMARK  status: ('A' for Active; 'I' for Inactive)
REMARK    1  A    between atoms: C_1  and  N_2
REMARK    2  A    between atoms: N_5  and  C_6
REMARK    3  A    between atoms: C_6  and  C_7
REMARK    4  A    between atoms: C_10  and  C_11
REMARK    5  A    between atoms: C_16  and  N_17
REMARK    6  A    between atoms: C_18  and  C_20
REMARK                            x       y       z     vdW  Elec       q    Type
REMARK                         _______ _______ _______ _____ _____    ______ ____
ROOT
ATOM      1  C   UNL     1       2.139   6.645  19.919  0.00  0.00    +0.000 A 
ATOM      2  C   UNL     1       1.826   5.586  20.781  0.00  0.00    +0.000 A 
ATOM      3  C   UNL     1       2.418   4.333  20.623  0.00  0.00    +0.000 A 
ATOM      4  C   UNL     1       3.316   4.093  19.577  0.00  0.00    +0.000 A 
ATOM      5 CL   UNL     1       4.222   2.626  19.740  0.00  0.00    +0.000 Cl
ATOM      6  C   UNL     1       3.563   5.085  18.608  0.00  0.00    +0.000 A 
ATOM      7  C   UNL     1       2.996   6.362  18.826  0.00  0.00    +0.000 A 
ENDROOT
BRANCH   1  11
ATOM      8  C   UNL     1       0.637  10.592  20.554  0.00  0.00    +0.000 A 
ATOM      9  C   UNL     1       0.671   9.710  21.631  0.00  0.00    +0.000 A 
ATOM     10  C   UNL     1       1.162   8.415  21.437  0.00  0.00    +0.000 A 
ATOM     11  C   UNL     1       1.593   7.998  20.174  0.00  0.00    +0.000 A 
ATOM     12  C   UNL     1       1.481   8.955  19.157  0.00  0.00    +0.000 A 
ATOM     13  N   UNL     1       1.031  10.225  19.312  0.00  0.00    +0.000 NA
BRANCH   8  14
ATOM     14  C   UNL     1       0.206  12.035  20.752  0.00  0.00    +0.000 C 
BRANCH  14  19
ATOM     15  C   UNL     1      -3.217  15.197  21.947  0.00  0.00    +0.000 C 
ATOM     16  N   UNL     1      -2.604  14.486  20.830  0.00  0.00    +0.000 NA
ATOM     17  C   UNL     1      -2.777  13.027  20.975  0.00  0.00    +0.000 C 
ATOM     18  C   UNL     1      -2.070  12.239  19.846  0.00  0.00    +0.000 C 
ATOM     19  N   UNL     1      -0.635  12.561  19.655  0.00  0.00    +0.000 NA
ATOM     20  C   UNL     1      -0.507  14.032  19.550  0.00  0.00    +0.000 C 
ATOM     21  C   UNL     1      -1.177  14.822  20.700  0.00  0.00    +0.000 C 
ENDBRANCH  14  19
ENDBRANCH   8  14
ENDBRANCH   1  11
BRANCH   6  22
ATOM     22  N   UNL     1       4.359   4.941  17.429  0.00  0.00    +0.000 N 
ATOM     23  C   UNL     1       5.744   4.899  17.381  0.00  0.00    +0.000 C 
ATOM     24  O   UNL     1       6.487   4.878  18.355  0.00  0.00    +0.000 OA
ATOM     25  H   UNL     1       3.903   4.634  16.577  0.00  0.00    +0.000 HD
BRANCH  23  26
ATOM     26  C   UNL     1       6.319   4.790  16.041  0.00  0.00    +0.000 A 
ATOM     27  C   UNL     1       5.947   3.822  15.135  0.00  0.00    +0.000 A 
ATOM     28  O   UNL     1       6.625   4.026  13.981  0.00  0.00    +0.000 OA
ATOM     29  C   UNL     1       7.388   5.120  14.234  0.00  0.00    +0.000 A 
ATOM     30  N   UNL     1       8.141   5.525  13.216  0.00  0.00    +0.000 N 
ATOM     31  N   UNL     1       7.276   5.610  15.456  0.00  0.00    +0.000 NA
ATOM     32  H   UNL     1       8.271   4.863  12.458  0.00  0.00    +0.000 HD
ATOM     33  H   UNL     1       8.944   6.103  13.413  0.00  0.00    +0.000 HD
ENDBRANCH  23  26
ENDBRANCH   6  22
TORSDOF 5
ENDMDL
MODEL 4
REMARK VINA RESULT:      -8.4      1.677      2.333
REMARK  Name = 
REMARK  6 active torsions:
REMARK  status: ('A' for Active; 'I' for Inactive)
REMARK    1  A    between atoms: C_1  and  N_2
REMARK    2  A    between atoms: N_5  and  C_6
REMARK    3  A    between atoms: C_6  and  C_7
REMARK    4  A    between atoms: C_10  and  C_11
REMARK    5  A    between atoms: C_16  and  N_17
REMARK    6  A    between atoms: C_18  and  C_20
REMARK                            x       y       z     vdW  Elec       q    Type
REMARK                         _______ _______ _______ _____ _____    ______ ____
ROOT
ATOM      1  C   UNL     1       2.144   6.734  19.862  0.00  0.00    +0.000 A 
ATOM      2  C   UNL     1       1.865   5.699  20.763  0.00  0.00    +0.000 A 
ATOM      3  C   UNL     1       2.490   4.458  20.648  0.00  0.00    +0.000 A 
ATOM      4  C   UNL     1       3.389   4.203  19.605  0.00  0.00    +0.000 A 
ATOM      5 CL   UNL     1       4.335   2.768  19.816  0.00  0.00    +0.000 Cl
ATOM      6  C   UNL     1       3.603   5.166  18.599  0.00  0.00    +0.000 A 
ATOM      7  C   UNL     1       3.003   6.434  18.774  0.00  0.00    +0.000 A 
ENDROOT
BRANCH   1  11
ATOM      8  C   UNL     1       0.401  10.568  20.563  0.00  0.00    +0.000 A 
ATOM      9  C   UNL     1       0.828  10.255  19.276  0.00  0.00    +0.000 A 
ATOM     10  C   UNL     1       1.400   9.003  19.032  0.00  0.00    +0.000 A 
ATOM     11  C   UNL     1       1.563   8.080  20.070  0.00  0.00    +0.000 A 
ATOM     12  C   UNL     1       1.131   8.514  21.330  0.00  0.00    +0.000 A 
ATOM     13  N   UNL     1       0.553   9.711  21.599  0.00  0.00    +0.000 NA
BRANCH   8  14
ATOM     14  C   UNL     1      -0.316  11.879  20.841  0.00  0.00    +0.000 C 
BRANCH  14  19
ATOM     15  C   UNL     1      -3.981  14.591  22.376  0.00  0.00    +0.000 C 
ATOM     16  N   UNL     1      -2.753  13.922  22.790  0.00  0.00    +0.000 NA
ATOM     17  C   UNL     1      -1.583  14.482  22.087  0.00  0.00    +0.000 C 
ATOM     18  C   UNL     1      -0.273  13.740  22.446  0.00  0.00    +0.000 C 
ATOM     19  N   UNL     1      -0.311  12.269  22.268  0.00  0.00    +0.000 NA
ATOM     20  C   UNL     1      -1.516  11.757  22.958  0.00  0.00    +0.000 C 
ATOM     21  C   UNL     1      -2.835  12.468  22.570  0.00  0.00    +0.000 C 
ENDBRANCH  14  19
ENDBRANCH   8  14
ENDBRANCH   1  11
BRANCH   6  22
ATOM     22  N   UNL     1       4.396   5.000  17.422  0.00  0.00    +0.000 N 
ATOM     23  C   UNL     1       5.781   5.053  17.357  0.00  0.00    +0.000 C 
ATOM     24  O   UNL     1       6.532   5.149  18.319  0.00  0.00    +0.000 OA
ATOM     25  H   UNL     1       3.956   4.605  16.598  0.00  0.00    +0.000 HD
BRANCH  23  26
ATOM     26  C   UNL     1       6.350   4.896  16.019  0.00  0.00    +0.000 A 
ATOM     27  C   UNL     1       5.945   3.921  15.135  0.00  0.00    +0.000 A 
ATOM     28  O   UNL     1       6.628   4.078  13.976  0.00  0.00    +0.000 OA
ATOM     29  C   UNL     1       7.426   5.152  14.205  0.00  0.00    +0.000 A 
ATOM     30  N   UNL     1       8.190   5.508  13.177  0.00  0.00    +0.000 N 
ATOM     31  N   UNL     1       7.332   5.672  15.415  0.00  0.00    +0.000 NA
ATOM     32  H   UNL     1       8.297   4.827  12.434  0.00  0.00    +0.000 HD
ATOM     33  H   UNL     1       9.012   6.065  13.361  0.00  0.00    +0.000 HD
ENDBRANCH  23  26
ENDBRANCH   6  22
TORSDOF 5
ENDMDL
MODEL 5
REMARK VINA RESULT:      -8.4      0.739      1.170
REMARK  Name = 
REMARK  6 active torsions:
REMARK  status: ('A' for Active; 'I' for Inactive)
REMARK    1  A    between atoms: C_1  and  N_2
REMARK    2  A    between atoms: N_5  and  C_6
REMARK    3  A    between atoms: C_6  and  C_7
REMARK    4  A    between atoms: C_10  and  C_11
REMARK    5  A    between atoms: C_16  and  N_17
REMARK    6  A    between atoms: C_18  and  C_20
REMARK                            x       y       z     vdW  Elec       q    Type
REMARK                         _______ _______ _______ _____ _____    ______ ____
ROOT
ATOM      1  C   UNL     1       2.105   6.621  20.012  0.00  0.00    +0.000 A 
ATOM      2  C   UNL     1       1.737   5.546  20.830  0.00  0.00    +0.000 A 
ATOM      3  C   UNL     1       2.285   4.277  20.640  0.00  0.00    +0.000 A 
ATOM      4  C   UNL     1       3.195   4.039  19.602  0.00  0.00    +0.000 A 
ATOM      5 CL   UNL     1       4.042   2.535  19.731  0.00  0.00    +0.000 Cl
ATOM      6  C   UNL     1       3.497   5.055  18.674  0.00  0.00    +0.000 A 
ATOM      7  C   UNL     1       2.973   6.344  18.926  0.00  0.00    +0.000 A 
ENDROOT
BRANCH   1  11
ATOM      8  C   UNL     1       0.728  10.595  20.749  0.00  0.00    +0.000 A 
ATOM      9  C   UNL     1       0.816   9.711  21.820  0.00  0.00    +0.000 A 
ATOM     10  C   UNL     1       1.267   8.407  21.592  0.00  0.00    +0.000 A 
ATOM     11  C   UNL     1       1.605   7.984  20.303  0.00  0.00    +0.000 A 
ATOM     12  C   UNL     1       1.444   8.945  19.297  0.00  0.00    +0.000 A 
ATOM     13  N   UNL     1       1.031  10.224  19.483  0.00  0.00    +0.000 NA
BRANCH   8  14
ATOM     14  C   UNL     1       0.340  12.047  20.976  0.00  0.00    +0.000 C 
BRANCH  14  19
ATOM     15  C   UNL     1       0.943  16.630  22.310  0.00  0.00    +0.000 C 
ATOM     16  N   UNL     1       1.108  15.689  21.206  0.00  0.00    +0.000 NA
ATOM     17  C   UNL     1      -0.195  15.147  20.776  0.00  0.00    +0.000 C 
ATOM     18  C   UNL     1      -0.047  14.086  19.659  0.00  0.00    +0.000 C 
ATOM     19  N   UNL     1       0.887  12.975  19.962  0.00  0.00    +0.000 NA
ATOM     20  C   UNL     1       2.164  13.565  20.421  0.00  0.00    +0.000 C 
ATOM     21  C   UNL     1       2.024  14.595  21.568  0.00  0.00    +0.000 C 
ENDBRANCH  14  19
ENDBRANCH   8  14
ENDBRANCH   1  11
BRANCH   6  22
ATOM     22  N   UNL     1       4.311   4.922  17.506  0.00  0.00    +0.000 N 
ATOM     23  C   UNL     1       5.687   4.751  17.486  0.00  0.00    +0.000 C 
ATOM     24  O   UNL     1       6.395   4.590  18.472  0.00  0.00    +0.000 OA
ATOM     25  H   UNL     1       3.854   4.721  16.623  0.00  0.00    +0.000 HD
BRANCH  23  26
ATOM     26  C   UNL     1       6.289   4.686  16.155  0.00  0.00    +0.000 A 
ATOM     27  C   UNL     1       5.977   3.713  15.231  0.00  0.00    +0.000 A 
ATOM     28  O   UNL     1       6.664   3.963  14.092  0.00  0.00    +0.000 OA
ATOM     29  C   UNL     1       7.371   5.087  14.371  0.00  0.00    +0.000 A 
ATOM     30  N   UNL     1       8.123   5.538  13.371  0.00  0.00    +0.000 N 
ATOM     31  N   UNL     1       7.217   5.556  15.596  0.00  0.00    +0.000 NA
ATOM     32  H   UNL     1       8.296   4.893  12.608  0.00  0.00    +0.000 HD
ATOM     33  H   UNL     1       8.895   6.150  13.589  0.00  0.00    +0.000 HD
ENDBRANCH  23  26
ENDBRANCH   6  22
TORSDOF 5
ENDMDL
MODEL 6
REMARK VINA RESULT:      -8.3      1.918      2.496
REMARK  Name = 
REMARK  6 active torsions:
REMARK  status: ('A' for Active; 'I' for Inactive)
REMARK    1  A    between atoms: C_1  and  N_2
REMARK    2  A    between atoms: N_5  and  C_6
REMARK    3  A    between atoms: C_6  and  C_7
REMARK    4  A    between atoms: C_10  and  C_11
REMARK    5  A    between atoms: C_16  and  N_17
REMARK    6  A    between atoms: C_18  and  C_20
REMARK                            x       y       z     vdW  Elec       q    Type
REMARK                         _______ _______ _______ _____ _____    ______ ____
ROOT
ATOM      1  C   UNL     1       1.862   6.951  20.201  0.00  0.00    +0.000 A 
ATOM      2  C   UNL     1       1.396   5.937  21.046  0.00  0.00    +0.000 A 
ATOM      3  C   UNL     1       1.847   4.624  20.909  0.00  0.00    +0.000 A 
ATOM      4  C   UNL     1       2.753   4.280  19.899  0.00  0.00    +0.000 A 
ATOM      5 CL   UNL     1       3.478   2.720  20.094  0.00  0.00    +0.000 Cl
ATOM      6  C   UNL     1       3.150   5.236  18.944  0.00  0.00    +0.000 A 
ATOM      7  C   UNL     1       2.724   6.570  19.142  0.00  0.00    +0.000 A 
ENDROOT
BRANCH   1  11
ATOM      8  C   UNL     1       0.664  10.972  20.995  0.00  0.00    +0.000 A 
ATOM      9  C   UNL     1       0.807  10.568  19.670  0.00  0.00    +0.000 A 
ATOM     10  C   UNL     1       1.198   9.254  19.397  0.00  0.00    +0.000 A 
ATOM     11  C   UNL     1       1.464   8.358  20.437  0.00  0.00    +0.000 A 
ATOM     12  C   UNL     1       1.323   8.882  21.728  0.00  0.00    +0.000 A 
ATOM     13  N   UNL     1       0.926  10.143  22.032  0.00  0.00    +0.000 NA
BRANCH   8  14
ATOM     14  C   UNL     1       0.144  12.361  21.326  0.00  0.00    +0.000 C 
BRANCH  14  19
ATOM     15  C   UNL     1      -3.955  14.879  21.272  0.00  0.00    +0.000 C 
ATOM     16  N   UNL     1      -3.082  14.062  22.108  0.00  0.00    +0.000 NA
ATOM     17  C   UNL     1      -1.758  14.694  22.263  0.00  0.00    +0.000 C 
ATOM     18  C   UNL     1      -0.781  13.814  23.080  0.00  0.00    +0.000 C 
ATOM     19  N   UNL     1      -0.623  12.423  22.590  0.00  0.00    +0.000 NA
ATOM     20  C   UNL     1      -1.974  11.845  22.416  0.00  0.00    +0.000 C 
ATOM     21  C   UNL     1      -2.940  12.702  21.564  0.00  0.00    +0.000 C 
ENDBRANCH  14  19
ENDBRANCH   8  14
ENDBRANCH   1  11
BRANCH   6  22
ATOM     22  N   UNL     1       3.971   5.000  17.798  0.00  0.00    +0.000 N 
ATOM     23  C   UNL     1       5.336   4.750  17.809  0.00  0.00    +0.000 C 
ATOM     24  O   UNL     1       6.019   4.595  18.814  0.00  0.00    +0.000 OA
ATOM     25  H   UNL     1       3.516   4.784  16.917  0.00  0.00    +0.000 HD
BRANCH  23  26
ATOM     26  C   UNL     1       5.952   4.586  16.494  0.00  0.00    +0.000 A 
ATOM     27  C   UNL     1       7.202   5.071  16.179  0.00  0.00    +0.000 A 
ATOM     28  O   UNL     1       7.498   4.711  14.907  0.00  0.00    +0.000 OA
ATOM     29  C   UNL     1       6.406   4.016  14.498  0.00  0.00    +0.000 A 
ATOM     30  N   UNL     1       6.480   3.540  13.258  0.00  0.00    +0.000 N 
ATOM     31  N   UNL     1       5.433   3.927  15.386  0.00  0.00    +0.000 NA
ATOM     32  H   UNL     1       7.199   3.935  12.663  0.00  0.00    +0.000 HD
ATOM     33  H   UNL     1       5.621   3.305  12.783  0.00  0.00    +0.000 HD
ENDBRANCH  23  26
ENDBRANCH   6  22
TORSDOF 5
ENDMDL
MODEL 7
REMARK VINA RESULT:      -8.2      1.094      1.513
REMARK  Name = 
REMARK  6 active torsions:
REMARK  status: ('A' for Active; 'I' for Inactive)
REMARK    1  A    between atoms: C_1  and  N_2
REMARK    2  A    between atoms: N_5  and  C_6
REMARK    3  A    between atoms: C_6  and  C_7
REMARK    4  A    between atoms: C_10  and  C_11
REMARK    5  A    between atoms: C_16  and  N_17
REMARK    6  A    between atoms: C_18  and  C_20
REMARK                            x       y       z     vdW  Elec       q    Type
REMARK                         _______ _______ _______ _____ _____    ______ ____
ROOT
ATOM      1  C   UNL     1       2.175   6.723  19.775  0.00  0.00    +0.000 A 
ATOM      2  C   UNL     1       1.913   5.691  20.684  0.00  0.00    +0.000 A 
ATOM      3  C   UNL     1       2.552   4.457  20.573  0.00  0.00    +0.000 A 
ATOM      4  C   UNL     1       3.449   4.207  19.528  0.00  0.00    +0.000 A 
ATOM      5 CL   UNL     1       4.413   2.784  19.742  0.00  0.00    +0.000 Cl
ATOM      6  C   UNL     1       3.647   5.166  18.514  0.00  0.00    +0.000 A 
ATOM      7  C   UNL     1       3.032   6.428  18.685  0.00  0.00    +0.000 A 
ENDROOT
BRANCH   1  11
ATOM      8  C   UNL     1       0.380  10.538  20.452  0.00  0.00    +0.000 A 
ATOM      9  C   UNL     1       0.924  10.270  19.199  0.00  0.00    +0.000 A 
ATOM     10  C   UNL     1       1.514   9.025  18.964  0.00  0.00    +0.000 A 
ATOM     11  C   UNL     1       1.579   8.064  19.977  0.00  0.00    +0.000 A 
ATOM     12  C   UNL     1       1.033   8.454  21.207  0.00  0.00    +0.000 A 
ATOM     13  N   UNL     1       0.434   9.643  21.466  0.00  0.00    +0.000 NA
BRANCH   8  14
ATOM     14  C   UNL     1      -0.358  11.842  20.710  0.00  0.00    +0.000 C 
BRANCH  14  19
ATOM     15  C   UNL     1      -1.762  16.428  21.078  0.00  0.00    +0.000 C 
ATOM     16  N   UNL     1      -0.941  15.392  21.694  0.00  0.00    +0.000 NA
ATOM     17  C   UNL     1       0.132  14.955  20.781  0.00  0.00    +0.000 C 
ATOM     18  C   UNL     1       0.973  13.799  21.374  0.00  0.00    +0.000 C 
ATOM     19  N   UNL     1       0.195  12.625  21.837  0.00  0.00    +0.000 NA
ATOM     20  C   UNL     1      -0.888  13.114  22.720  0.00  0.00    +0.000 C 
ATOM     21  C   UNL     1      -1.758  14.241  22.113  0.00  0.00    +0.000 C 
ENDBRANCH  14  19
ENDBRANCH   8  14
ENDBRANCH   1  11
BRANCH   6  22
ATOM     22  N   UNL     1       4.436   5.002  17.334  0.00  0.00    +0.000 N 
ATOM     23  C   UNL     1       5.822   5.041  17.268  0.00  0.00    +0.000 C 
ATOM     24  O   UNL     1       6.575   5.120  18.230  0.00  0.00    +0.000 OA
ATOM     25  H   UNL     1       3.991   4.619  16.508  0.00  0.00    +0.000 HD
BRANCH  23  26
ATOM     26  C   UNL     1       6.387   4.890  15.928  0.00  0.00    +0.000 A 
ATOM     27  C   UNL     1       5.986   3.912  15.044  0.00  0.00    +0.000 A 
ATOM     28  O   UNL     1       6.663   4.076  13.883  0.00  0.00    +0.000 OA
ATOM     29  C   UNL     1       7.453   5.156  14.109  0.00  0.00    +0.000 A 
ATOM     30  N   UNL     1       8.211   5.520  13.079  0.00  0.00    +0.000 N 
ATOM     31  N   UNL     1       7.359   5.674  15.321  0.00  0.00    +0.000 NA
ATOM     32  H   UNL     1       8.321   4.840  12.335  0.00  0.00    +0.000 HD
ATOM     33  H   UNL     1       9.029   6.083  13.260  0.00  0.00    +0.000 HD
ENDBRANCH  23  26
ENDBRANCH   6  22
TORSDOF 5
ENDMDL
MODEL 8
REMARK VINA RESULT:      -8.2      1.046      1.619
REMARK  Name = 
REMARK  6 active torsions:
REMARK  status: ('A' for Active; 'I' for Inactive)
REMARK    1  A    between atoms: C_1  and  N_2
REMARK    2  A    between atoms: N_5  and  C_6
REMARK    3  A    between atoms: C_6  and  C_7
REMARK    4  A    between atoms: C_10  and  C_11
REMARK    5  A    between atoms: C_16  and  N_17
REMARK    6  A    between atoms: C_18  and  C_20
REMARK                            x       y       z     vdW  Elec       q    Type
REMARK                         _______ _______ _______ _____ _____    ______ ____
ROOT
ATOM      1  C   UNL     1       2.193   6.612  19.910  0.00  0.00    +0.000 A 
ATOM      2  C   UNL     1       1.862   5.544  20.753  0.00  0.00    +0.000 A 
ATOM      3  C   UNL     1       2.432   4.284  20.573  0.00  0.00    +0.000 A 
ATOM      4  C   UNL     1       3.325   4.046  19.521  0.00  0.00    +0.000 A 
ATOM      5 CL   UNL     1       4.204   2.561  19.657  0.00  0.00    +0.000 Cl
ATOM      6  C   UNL     1       3.588   5.051  18.569  0.00  0.00    +0.000 A 
ATOM      7  C   UNL     1       3.043   6.334  18.811  0.00  0.00    +0.000 A 
ENDROOT
BRANCH   1  11
ATOM      8  C   UNL     1       0.623  10.479  20.815  0.00  0.00    +0.000 A 
ATOM      9  C   UNL     1       0.987  10.198  19.501  0.00  0.00    +0.000 A 
ATOM     10  C   UNL     1       1.501   8.935  19.191  0.00  0.00    +0.000 A 
ATOM     11  C   UNL     1       1.671   7.970  20.188  0.00  0.00    +0.000 A 
ATOM     12  C   UNL     1       1.305   8.373  21.479  0.00  0.00    +0.000 A 
ATOM     13  N   UNL     1       0.784   9.580  21.814  0.00  0.00    +0.000 NA
BRANCH   8  14
ATOM     14  C   UNL     1      -0.033  11.804  21.168  0.00  0.00    +0.000 C 
BRANCH  14  19
ATOM     15  C   UNL     1      -0.124  16.376  22.660  0.00  0.00    +0.000 C 
ATOM     16  N   UNL     1       0.037  15.519  21.490  0.00  0.00    +0.000 NA
ATOM     17  C   UNL     1      -1.188  14.736  21.237  0.00  0.00    +0.000 C 
ATOM     18  C   UNL     1      -1.022  13.757  20.050  0.00  0.00    +0.000 C 
ATOM     19  N   UNL     1       0.148  12.850  20.137  0.00  0.00    +0.000 NA
ATOM     20  C   UNL     1       1.343  13.674  20.426  0.00  0.00    +0.000 C 
ATOM     21  C   UNL     1       1.196  14.624  21.639  0.00  0.00    +0.000 C 
ENDBRANCH  14  19
ENDBRANCH   8  14
ENDBRANCH   1  11
BRANCH   6  22
ATOM     22  N   UNL     1       4.380   4.914  17.387  0.00  0.00    +0.000 N 
ATOM     23  C   UNL     1       5.765   4.866  17.335  0.00  0.00    +0.000 C 
ATOM     24  O   UNL     1       6.510   4.833  18.306  0.00  0.00    +0.000 OA
ATOM     25  H   UNL     1       3.921   4.615  16.534  0.00  0.00    +0.000 HD
BRANCH  23  26
ATOM     26  C   UNL     1       6.336   4.766  15.993  0.00  0.00    +0.000 A 
ATOM     27  C   UNL     1       5.952   3.812  15.077  0.00  0.00    +0.000 A 
ATOM     28  O   UNL     1       6.630   4.022  13.924  0.00  0.00    +0.000 OA
ATOM     29  C   UNL     1       7.404   5.105  14.187  0.00  0.00    +0.000 A 
ATOM     30  N   UNL     1       8.159   5.513  13.171  0.00  0.00    +0.000 N 
ATOM     31  N   UNL     1       7.300   5.583  15.414  0.00  0.00    +0.000 NA
ATOM     32  H   UNL     1       8.281   4.859  12.406  0.00  0.00    +0.000 HD
ATOM     33  H   UNL     1       8.968   6.081  13.373  0.00  0.00    +0.000 HD
ENDBRANCH  23  26
ENDBRANCH   6  22
TORSDOF 5
ENDMDL
MODEL 9
REMARK VINA RESULT:      -8.1      1.030      1.068
REMARK  Name = 
REMARK  6 active torsions:
REMARK  status: ('A' for Active; 'I' for Inactive)
REMARK    1  A    between atoms: C_1  and  N_2
REMARK    2  A    between atoms: N_5  and  C_6
REMARK    3  A    between atoms: C_6  and  C_7
REMARK    4  A    between atoms: C_10  and  C_11
REMARK    5  A    between atoms: C_16  and  N_17
REMARK    6  A    between atoms: C_18  and  C_20
REMARK                            x       y       z     vdW  Elec       q    Type
REMARK                         _______ _______ _______ _____ _____    ______ ____
ROOT
ATOM      1  C   UNL     1       2.068   6.912  20.100  0.00  0.00    +0.000 A 
ATOM      2  C   UNL     1       1.723   5.783  20.853  0.00  0.00    +0.000 A 
ATOM      3  C   UNL     1       2.375   4.565  20.660  0.00  0.00    +0.000 A 
ATOM      4  C   UNL     1       3.370   4.432  19.684  0.00  0.00    +0.000 A 
ATOM      5 CL   UNL     1       4.314   2.988  19.823  0.00  0.00    +0.000 Cl
ATOM      6  C   UNL     1       3.661   5.502  18.814  0.00  0.00    +0.000 A 
ATOM      7  C   UNL     1       3.027   6.740  19.071  0.00  0.00    +0.000 A 
ENDROOT
BRANCH   1  11
ATOM      8  C   UNL     1       0.344  10.744  20.860  0.00  0.00    +0.000 A 
ATOM      9  C   UNL     1       0.542   9.878  21.931  0.00  0.00    +0.000 A 
ATOM     10  C   UNL     1       1.106   8.621  21.696  0.00  0.00    +0.000 A 
ATOM     11  C   UNL     1       1.450   8.224  20.400  0.00  0.00    +0.000 A 
ATOM     12  C   UNL     1       1.175   9.161  19.396  0.00  0.00    +0.000 A 
ATOM     13  N   UNL     1       0.648  10.396  19.588  0.00  0.00    +0.000 NA
BRANCH   8  14
ATOM     14  C   UNL     1      -0.172  12.155  21.093  0.00  0.00    +0.000 C 
BRANCH  14  19
ATOM     15  C   UNL     1       0.397  16.358  18.823  0.00  0.00    +0.000 C 
ATOM     16  N   UNL     1       0.859  15.551  19.947  0.00  0.00    +0.000 NA
ATOM     17  C   UNL     1       1.481  14.298  19.478  0.00  0.00    +0.000 C 
ATOM     18  C   UNL     1       1.911  13.383  20.649  0.00  0.00    +0.000 C 
ATOM     19  N   UNL     1       0.847  13.079  21.637  0.00  0.00    +0.000 NA
ATOM     20  C   UNL     1       0.231  14.359  22.051  0.00  0.00    +0.000 C 
ATOM     21  C   UNL     1      -0.240  15.259  20.883  0.00  0.00    +0.000 C 
ENDBRANCH  14  19
ENDBRANCH   8  14
ENDBRANCH   1  11
BRANCH   6  22
ATOM     22  N   UNL     1       4.561   5.472  17.705  0.00  0.00    +0.000 N 
ATOM     23  C   UNL     1       4.565   4.534  16.682  0.00  0.00    +0.000 C 
ATOM     24  O   UNL     1       3.731   3.651  16.529  0.00  0.00    +0.000 OA
ATOM     25  H   UNL     1       5.112   6.301  17.510  0.00  0.00    +0.000 HD
BRANCH  23  26
ATOM     26  C   UNL     1       5.622   4.700  15.686  0.00  0.00    +0.000 A 
ATOM     27  C   UNL     1       6.867   5.211  15.983  0.00  0.00    +0.000 A 
ATOM     28  O   UNL     1       7.623   5.188  14.860  0.00  0.00    +0.000 OA
ATOM     29  C   UNL     1       6.800   4.658  13.919  0.00  0.00    +0.000 A 
ATOM     30  N   UNL     1       7.346   4.520  12.714  0.00  0.00    +0.000 N 
ATOM     31  N   UNL     1       5.581   4.371  14.338  0.00  0.00    +0.000 NA
ATOM     32  H   UNL     1       8.203   5.034  12.543  0.00  0.00    +0.000 HD
ATOM     33  H   UNL     1       6.733   4.444  11.916  0.00  0.00    +0.000 HD
ENDBRANCH  23  26
ENDBRANCH   6  22
TORSDOF 5
ENDMDL
