MODEL 1
REMARK VINA RESULT:      -7.4      0.000      0.000
REMARK  Name = 
REMARK  6 active torsions:
REMARK  status: ('A' for Active; 'I' for Inactive)
REMARK    1  A    between atoms: C_1  and  N_2
REMARK    2  A    between atoms: C_3  and  C_4
REMARK    3  A    between atoms: C_7  and  C_8
REMARK    4  A    between atoms: N_9  and  N_10
REMARK    5  A    between atoms: N_10  and  C_11
REMARK    6  A    between atoms: N_16  and  N_17
REMARK                            x       y       z     vdW  Elec       q    Type
REMARK                         _______ _______ _______ _____ _____    ______ ____
ROOT
ATOM      1  C   UNL     1       5.748   5.918  18.140  0.00  0.00    +0.000 A 
ATOM      2  C   UNL     1       5.580   7.038  17.322  0.00  0.00    +0.000 A 
ATOM      3  C   UNL     1       6.578   8.021  17.243  0.00  0.00    +0.000 A 
ATOM      4  C   UNL     1       7.757   7.889  17.980  0.00  0.00    +0.000 A 
ATOM      5  C   UNL     1       7.943   6.757  18.780  0.00  0.00    +0.000 A 
ATOM      6  C   UNL     1       6.938   5.780  18.869  0.00  0.00    +0.000 A 
ENDROOT
BRANCH   1   9
ATOM      7  C   UNL     1       2.773   6.211  19.559  0.00  0.00    +0.000 C 
ATOM      8  N   UNL     1       3.370   5.050  18.938  0.00  0.00    +0.000 N 
ATOM      9  C   UNL     1       4.643   4.910  18.306  0.00  0.00    +0.000 A 
ATOM     10  C   UNL     1       4.674   3.583  17.853  0.00  0.00    +0.000 A 
ATOM     11  N   UNL     1       3.504   2.984  18.231  0.00  0.00    +0.000 N 
ATOM     12  C   UNL     1       2.966   1.728  18.142  0.00  0.00    +0.000 A 
ATOM     13  C   UNL     1       1.755   1.696  18.721  0.00  0.00    +0.000 A 
ATOM     14  S   UNL     1       1.242   3.240  19.431  0.00  0.00    +0.000 S 
ATOM     15  C   UNL     1       2.789   3.866  18.903  0.00  0.00    +0.000 A 
ENDBRANCH   1   9
BRANCH   4  16
ATOM     16  C   UNL     1       8.802   8.943  17.946  0.00  0.00    +0.000 C 
ATOM     17  N   UNL     1       8.907   9.826  18.891  0.00  0.00    +0.000 NA
BRANCH  17  18
ATOM     18  N   UNL     1       9.898  10.746  18.723  0.00  0.00    +0.000 N 
ATOM     19  H   UNL     1      10.321  11.087  19.586  0.00  0.00    +0.000 HD
BRANCH  18  20
ATOM     20  C   UNL     1       9.599  11.895  17.876  0.00  0.00    +0.000 C 
ATOM     21  N   UNL     1       8.751  12.959  18.450  0.00  0.00    +0.000 NA
ATOM     22  N   UNL     1       9.241  14.099  18.207  0.00  0.00    +0.000 NA
ATOM     23  C   UNL     1      10.491  13.952  17.636  0.00  0.00    +0.000 C 
ATOM     24  S   UNL     1      11.507  15.191  17.144  0.00  0.00    +0.000 S 
ATOM     25  N   UNL     1      10.790  12.602  17.523  0.00  0.00    +0.000 N 
BRANCH  25  26
ATOM     26  N   UNL     1      12.072  12.049  17.312  0.00  0.00    +0.000 NA
ATOM     27  H   UNL     1      12.112  11.705  16.346  0.00  0.00    +0.000 HD
ATOM     28  H   UNL     1      12.170  11.225  17.908  0.00  0.00    +0.000 HD
ENDBRANCH  25  26
ENDBRANCH  18  20
ENDBRANCH  17  18
ENDBRANCH   4  16
TORSDOF 5
ENDMDL
MODEL 2
REMARK VINA RESULT:      -7.3      3.427     10.688
REMARK  Name = 
REMARK  6 active torsions:
REMARK  status: ('A' for Active; 'I' for Inactive)
REMARK    1  A    between atoms: C_1  and  N_2
REMARK    2  A    between atoms: C_3  and  C_4
REMARK    3  A    between atoms: C_7  and  C_8
REMARK    4  A    between atoms: N_9  and  N_10
REMARK    5  A    between atoms: N_10  and  C_11
REMARK    6  A    between atoms: N_16  and  N_17
REMARK                            x       y       z     vdW  Elec       q    Type
REMARK                         _______ _______ _______ _____ _____    ______ ____
ROOT
ATOM      1  C   UNL     1       9.571  12.918  19.084  0.00  0.00    +0.000 A 
ATOM      2  C   UNL     1       9.097  12.368  17.890  0.00  0.00    +0.000 A 
ATOM      3  C   UNL     1       8.824  10.995  17.795  0.00  0.00    +0.000 A 
ATOM      4  C   UNL     1       9.019  10.161  18.897  0.00  0.00    +0.000 A 
ATOM      5  C   UNL     1       9.468  10.709  20.102  0.00  0.00    +0.000 A 
ATOM      6  C   UNL     1       9.754  12.081  20.193  0.00  0.00    +0.000 A 
ENDROOT
BRANCH   1   9
ATOM      7  C   UNL     1      12.163  14.521  17.793  0.00  0.00    +0.000 C 
ATOM      8  N   UNL     1      11.094  15.042  18.615  0.00  0.00    +0.000 N 
ATOM      9  C   UNL     1       9.959  14.371  19.165  0.00  0.00    +0.000 A 
ATOM     10  C   UNL     1       9.242  15.370  19.838  0.00  0.00    +0.000 A 
ATOM     11  N   UNL     1       9.938  16.541  19.713  0.00  0.00    +0.000 N 
ATOM     12  C   UNL     1       9.801  17.823  20.173  0.00  0.00    +0.000 A 
ATOM     13  C   UNL     1      10.822  18.584  19.747  0.00  0.00    +0.000 A 
ATOM     14  S   UNL     1      12.022  17.717  18.767  0.00  0.00    +0.000 S 
ATOM     15  C   UNL     1      11.039  16.294  19.028  0.00  0.00    +0.000 A 
ENDBRANCH   1   9
BRANCH   4  16
ATOM     16  C   UNL     1       8.782   8.698  18.799  0.00  0.00    +0.000 C 
ATOM     17  N   UNL     1       7.840   8.211  18.051  0.00  0.00    +0.000 NA
BRANCH  17  18
ATOM     18  N   UNL     1       7.722   6.854  18.069  0.00  0.00    +0.000 N 
ATOM     19  H   UNL     1       8.542   6.345  17.740  0.00  0.00    +0.000 HD
BRANCH  18  20
ATOM     20  C   UNL     1       6.543   6.282  17.427  0.00  0.00    +0.000 C 
ATOM     21  N   UNL     1       5.803   7.140  16.480  0.00  0.00    +0.000 NA
ATOM     22  N   UNL     1       5.526   6.500  15.425  0.00  0.00    +0.000 NA
ATOM     23  C   UNL     1       6.159   5.273  15.449  0.00  0.00    +0.000 C 
ATOM     24  S   UNL     1       6.074   4.091  14.263  0.00  0.00    +0.000 S 
ATOM     25  N   UNL     1       6.889   5.153  16.623  0.00  0.00    +0.000 N 
BRANCH  25  26
ATOM     26  N   UNL     1       7.919   4.220  16.870  0.00  0.00    +0.000 NA
ATOM     27  H   UNL     1       7.493   3.377  17.268  0.00  0.00    +0.000 HD
ATOM     28  H   UNL     1       8.529   4.598  17.598  0.00  0.00    +0.000 HD
ENDBRANCH  25  26
ENDBRANCH  18  20
ENDBRANCH  17  18
ENDBRANCH   4  16
TORSDOF 5
ENDMDL
MODEL 3
REMARK VINA RESULT:      -7.3      2.544     10.757
REMARK  Name = 
REMARK  6 active torsions:
REMARK  status: ('A' for Active; 'I' for Inactive)
REMARK    1  A    between atoms: C_1  and  N_2
REMARK    2  A    between atoms: C_3  and  C_4
REMARK    3  A    between atoms: C_7  and  C_8
REMARK    4  A    between atoms: N_9  and  N_10
REMARK    5  A    between atoms: N_10  and  C_11
REMARK    6  A    between atoms: N_16  and  N_17
REMARK                            x       y       z     vdW  Elec       q    Type
REMARK                         _______ _______ _______ _____ _____    ______ ____
ROOT
ATOM      1  C   UNL     1       9.509  12.617  18.846  0.00  0.00    +0.000 A 
ATOM      2  C   UNL     1       8.719  12.288  17.741  0.00  0.00    +0.000 A 
ATOM      3  C   UNL     1       8.324  10.961  17.515  0.00  0.00    +0.000 A 
ATOM      4  C   UNL     1       8.714   9.951  18.396  0.00  0.00    +0.000 A 
ATOM      5  C   UNL     1       9.482  10.277  19.518  0.00  0.00    +0.000 A 
ATOM      6  C   UNL     1       9.889  11.604  19.737  0.00  0.00    +0.000 A 
ENDROOT
BRANCH   1   9
ATOM      7  C   UNL     1      11.933  14.255  17.298  0.00  0.00    +0.000 C 
ATOM      8  N   UNL     1      11.079  14.705  18.374  0.00  0.00    +0.000 N 
ATOM      9  C   UNL     1      10.018  14.020  19.041  0.00  0.00    +0.000 A 
ATOM     10  C   UNL     1       9.519  14.947  19.968  0.00  0.00    +0.000 A 
ATOM     11  N   UNL     1      10.269  16.086  19.866  0.00  0.00    +0.000 N 
ATOM     12  C   UNL     1      10.321  17.294  20.510  0.00  0.00    +0.000 A 
ATOM     13  C   UNL     1      11.301  18.055  19.997  0.00  0.00    +0.000 A 
ATOM     14  S   UNL     1      12.226  17.279  18.695  0.00  0.00    +0.000 S 
ATOM     15  C   UNL     1      11.200  15.885  18.953  0.00  0.00    +0.000 A 
ENDBRANCH   1   9
BRANCH   4  16
ATOM     16  C   UNL     1       8.346   8.534  18.145  0.00  0.00    +0.000 C 
ATOM     17  N   UNL     1       7.464   8.210  17.251  0.00  0.00    +0.000 NA
BRANCH  17  18
ATOM     18  N   UNL     1       7.209   6.876  17.138  0.00  0.00    +0.000 N 
ATOM     19  H   UNL     1       7.482   6.458  16.249  0.00  0.00    +0.000 HD
BRANCH  18  20
ATOM     20  C   UNL     1       5.857   6.430  17.456  0.00  0.00    +0.000 C 
ATOM     21  N   UNL     1       5.121   5.693  16.409  0.00  0.00    +0.000 NA
ATOM     22  N   UNL     1       4.560   4.669  16.897  0.00  0.00    +0.000 NA
ATOM     23  C   UNL     1       4.969   4.497  18.205  0.00  0.00    +0.000 C 
ATOM     24  S   UNL     1       4.480   3.276  19.244  0.00  0.00    +0.000 S 
ATOM     25  N   UNL     1       5.860   5.505  18.546  0.00  0.00    +0.000 N 
BRANCH  25  26
ATOM     26  N   UNL     1       6.744   5.497  19.648  0.00  0.00    +0.000 NA
ATOM     27  H   UNL     1       7.260   4.611  19.631  0.00  0.00    +0.000 HD
ATOM     28  H   UNL     1       6.189   5.483  20.506  0.00  0.00    +0.000 HD
ENDBRANCH  25  26
ENDBRANCH  18  20
ENDBRANCH  17  18
ENDBRANCH   4  16
TORSDOF 5
ENDMDL
MODEL 4
REMARK VINA RESULT:      -7.2      2.616     10.670
REMARK  Name = 
REMARK  6 active torsions:
REMARK  status: ('A' for Active; 'I' for Inactive)
REMARK    1  A    between atoms: C_1  and  N_2
REMARK    2  A    between atoms: C_3  and  C_4
REMARK    3  A    between atoms: C_7  and  C_8
REMARK    4  A    between atoms: N_9  and  N_10
REMARK    5  A    between atoms: N_10  and  C_11
REMARK    6  A    between atoms: N_16  and  N_17
REMARK                            x       y       z     vdW  Elec       q    Type
REMARK                         _______ _______ _______ _____ _____    ______ ____
ROOT
ATOM      1  C   UNL     1       9.434  12.576  18.868  0.00  0.00    +0.000 A 
ATOM      2  C   UNL     1       9.874  11.581  19.745  0.00  0.00    +0.000 A 
ATOM      3  C   UNL     1       9.514  10.240  19.540  0.00  0.00    +0.000 A 
ATOM      4  C   UNL     1       8.715   9.883  18.453  0.00  0.00    +0.000 A 
ATOM      5  C   UNL     1       8.293  10.871  17.557  0.00  0.00    +0.000 A 
ATOM      6  C   UNL     1       8.642  12.215  17.769  0.00  0.00    +0.000 A 
ENDROOT
BRANCH   1   9
ATOM      7  C   UNL     1      12.197  14.325  18.360  0.00  0.00    +0.000 C 
ATOM      8  N   UNL     1      10.940  14.762  18.925  0.00  0.00    +0.000 N 
ATOM      9  C   UNL     1       9.733  14.028  19.135  0.00  0.00    +0.000 A 
ATOM     10  C   UNL     1       8.835  14.960  19.673  0.00  0.00    +0.000 A 
ATOM     11  N   UNL     1       9.493  16.152  19.798  0.00  0.00    +0.000 N 
ATOM     12  C   UNL     1       9.199  17.395  20.292  0.00  0.00    +0.000 A 
ATOM     13  C   UNL     1      10.262  18.207  20.179  0.00  0.00    +0.000 A 
ATOM     14  S   UNL     1      11.697  17.440  19.471  0.00  0.00    +0.000 S 
ATOM     15  C   UNL     1      10.737  15.979  19.391  0.00  0.00    +0.000 A 
ENDBRANCH   1   9
BRANCH   4  16
ATOM     16  C   UNL     1       8.285   8.476  18.250  0.00  0.00    +0.000 C 
ATOM     17  N   UNL     1       7.700   8.096  17.156  0.00  0.00    +0.000 NA
BRANCH  17  18
ATOM     18  N   UNL     1       7.342   6.782  17.111  0.00  0.00    +0.000 N 
ATOM     19  H   UNL     1       7.561   6.305  16.237  0.00  0.00    +0.000 HD
BRANCH  18  20
ATOM     20  C   UNL     1       5.969   6.455  17.477  0.00  0.00    +0.000 C 
ATOM     21  N   UNL     1       5.127   5.810  16.449  0.00  0.00    +0.000 NA
ATOM     22  N   UNL     1       4.494   4.833  16.942  0.00  0.00    +0.000 NA
ATOM     23  C   UNL     1       4.936   4.598  18.230  0.00  0.00    +0.000 C 
ATOM     24  S   UNL     1       4.377   3.406  19.268  0.00  0.00    +0.000 S 
ATOM     25  N   UNL     1       5.929   5.513  18.550  0.00  0.00    +0.000 N 
BRANCH  25  26
ATOM     26  N   UNL     1       6.850   5.401  19.615  0.00  0.00    +0.000 NA
ATOM     27  H   UNL     1       7.631   6.038  19.424  0.00  0.00    +0.000 HD
ATOM     28  H   UNL     1       7.246   4.459  19.602  0.00  0.00    +0.000 HD
ENDBRANCH  25  26
ENDBRANCH  18  20
ENDBRANCH  17  18
ENDBRANCH   4  16
TORSDOF 5
ENDMDL
MODEL 5
REMARK VINA RESULT:      -7.2      5.523      8.490
REMARK  Name = 
REMARK  6 active torsions:
REMARK  status: ('A' for Active; 'I' for Inactive)
REMARK    1  A    between atoms: C_1  and  N_2
REMARK    2  A    between atoms: C_3  and  C_4
REMARK    3  A    between atoms: C_7  and  C_8
REMARK    4  A    between atoms: N_9  and  N_10
REMARK    5  A    between atoms: N_10  and  C_11
REMARK    6  A    between atoms: N_16  and  N_17
REMARK                            x       y       z     vdW  Elec       q    Type
REMARK                         _______ _______ _______ _____ _____    ______ ____
ROOT
ATOM      1  C   UNL     1       1.035   9.535  20.063  0.00  0.00    +0.000 A 
ATOM      2  C   UNL     1       1.248   9.579  18.682  0.00  0.00    +0.000 A 
ATOM      3  C   UNL     1       1.858   8.503  18.019  0.00  0.00    +0.000 A 
ATOM      4  C   UNL     1       2.257   7.371  18.733  0.00  0.00    +0.000 A 
ATOM      5  C   UNL     1       2.023   7.310  20.110  0.00  0.00    +0.000 A 
ATOM      6  C   UNL     1       1.425   8.392  20.775  0.00  0.00    +0.000 A 
ENDROOT
BRANCH   1   9
ATOM      7  C   UNL     1       1.811  12.746  19.859  0.00  0.00    +0.000 C 
ATOM      8  N   UNL     1       0.832  12.102  20.707  0.00  0.00    +0.000 N 
ATOM      9  C   UNL     1       0.472  10.723  20.795  0.00  0.00    +0.000 A 
ATOM     10  C   UNL     1      -0.554  10.681  21.751  0.00  0.00    +0.000 A 
ATOM     11  N   UNL     1      -0.751  11.954  22.211  0.00  0.00    +0.000 N 
ATOM     12  C   UNL     1      -1.541  12.550  23.156  0.00  0.00    +0.000 A 
ATOM     13  C   UNL     1      -1.298  13.869  23.205  0.00  0.00    +0.000 A 
ATOM     14  S   UNL     1      -0.041  14.424  22.081  0.00  0.00    +0.000 S 
ATOM     15  C   UNL     1       0.113  12.747  21.606  0.00  0.00    +0.000 A 
ENDBRANCH   1   9
BRANCH   4  16
ATOM     16  C   UNL     1       2.948   6.245  18.055  0.00  0.00    +0.000 C 
ATOM     17  N   UNL     1       3.583   5.334  18.727  0.00  0.00    +0.000 NA
BRANCH  17  18
ATOM     18  N   UNL     1       4.187   4.370  17.977  0.00  0.00    +0.000 N 
ATOM     19  H   UNL     1       4.320   3.476  18.450  0.00  0.00    +0.000 HD
BRANCH  18  20
ATOM     20  C   UNL     1       5.438   4.729  17.319  0.00  0.00    +0.000 C 
ATOM     21  N   UNL     1       5.353   5.587  16.120  0.00  0.00    +0.000 NA
ATOM     22  N   UNL     1       6.211   6.515  16.175  0.00  0.00    +0.000 NA
ATOM     23  C   UNL     1       6.817   6.509  17.416  0.00  0.00    +0.000 C 
ATOM     24  S   UNL     1       8.019   7.557  17.937  0.00  0.00    +0.000 S 
ATOM     25  N   UNL     1       6.281   5.488  18.188  0.00  0.00    +0.000 N 
BRANCH  25  26
ATOM     26  N   UNL     1       6.383   5.364  19.591  0.00  0.00    +0.000 NA
ATOM     27  H   UNL     1       7.179   5.931  19.901  0.00  0.00    +0.000 HD
ATOM     28  H   UNL     1       6.625   4.396  19.812  0.00  0.00    +0.000 HD
ENDBRANCH  25  26
ENDBRANCH  18  20
ENDBRANCH  17  18
ENDBRANCH   4  16
TORSDOF 5
ENDMDL
MODEL 6
REMARK VINA RESULT:      -7.1      5.297      8.254
REMARK  Name = 
REMARK  6 active torsions:
REMARK  status: ('A' for Active; 'I' for Inactive)
REMARK    1  A    between atoms: C_1  and  N_2
REMARK    2  A    between atoms: C_3  and  C_4
REMARK    3  A    between atoms: C_7  and  C_8
REMARK    4  A    between atoms: N_9  and  N_10
REMARK    5  A    between atoms: N_10  and  C_11
REMARK    6  A    between atoms: N_16  and  N_17
REMARK                            x       y       z     vdW  Elec       q    Type
REMARK                         _______ _______ _______ _____ _____    ______ ____
ROOT
ATOM      1  C   UNL     1       0.963   9.171  19.932  0.00  0.00    +0.000 A 
ATOM      2  C   UNL     1       1.341   8.042  20.663  0.00  0.00    +0.000 A 
ATOM      3  C   UNL     1       2.105   7.028  20.067  0.00  0.00    +0.000 A 
ATOM      4  C   UNL     1       2.503   7.138  18.733  0.00  0.00    +0.000 A 
ATOM      5  C   UNL     1       2.151   8.278  18.003  0.00  0.00    +0.000 A 
ATOM      6  C   UNL     1       1.374   9.286  18.596  0.00  0.00    +0.000 A 
ENDROOT
BRANCH   1   9
ATOM      7  C   UNL     1      -0.024   9.605  23.060  0.00  0.00    +0.000 C 
ATOM      8  N   UNL     1      -0.368  10.377  21.887  0.00  0.00    +0.000 N 
ATOM      9  C   UNL     1       0.062  10.216  20.534  0.00  0.00    +0.000 A 
ATOM     10  C   UNL     1      -0.553  11.264  19.835  0.00  0.00    +0.000 A 
ATOM     11  N   UNL     1      -1.320  11.967  20.723  0.00  0.00    +0.000 N 
ATOM     12  C   UNL     1      -2.179  13.031  20.658  0.00  0.00    +0.000 A 
ATOM     13  C   UNL     1      -2.689  13.295  21.872  0.00  0.00    +0.000 A 
ATOM     14  S   UNL     1      -2.132  12.200  23.153  0.00  0.00    +0.000 S 
ATOM     15  C   UNL     1      -1.218  11.386  21.903  0.00  0.00    +0.000 A 
ENDBRANCH   1   9
BRANCH   4  16
ATOM     16  C   UNL     1       3.270   6.051  18.072  0.00  0.00    +0.000 C 
ATOM     17  N   UNL     1       3.877   5.133  18.759  0.00  0.00    +0.000 NA
BRANCH  17  18
ATOM     18  N   UNL     1       4.558   4.209  18.026  0.00  0.00    +0.000 N 
ATOM     19  H   UNL     1       4.745   3.329  18.507  0.00  0.00    +0.000 HD
BRANCH  18  20
ATOM     20  C   UNL     1       5.792   4.649  17.386  0.00  0.00    +0.000 C 
ATOM     21  N   UNL     1       5.669   5.458  16.157  0.00  0.00    +0.000 NA
ATOM     22  N   UNL     1       6.445   6.456  16.201  0.00  0.00    +0.000 NA
ATOM     23  C   UNL     1       7.017   6.541  17.456  0.00  0.00    +0.000 C 
ATOM     24  S   UNL     1       8.113   7.701  17.968  0.00  0.00    +0.000 S 
ATOM     25  N   UNL     1       6.546   5.504  18.249  0.00  0.00    +0.000 N 
BRANCH  25  26
ATOM     26  N   UNL     1       6.621   5.434  19.657  0.00  0.00    +0.000 NA
ATOM     27  H   UNL     1       5.917   4.761  19.977  0.00  0.00    +0.000 HD
ATOM     28  H   UNL     1       6.340   6.339  20.041  0.00  0.00    +0.000 HD
ENDBRANCH  25  26
ENDBRANCH  18  20
ENDBRANCH  17  18
ENDBRANCH   4  16
TORSDOF 5
ENDMDL
MODEL 7
REMARK VINA RESULT:      -7.1      5.379      8.324
REMARK  Name = 
REMARK  6 active torsions:
REMARK  status: ('A' for Active; 'I' for Inactive)
REMARK    1  A    between atoms: C_1  and  N_2
REMARK    2  A    between atoms: C_3  and  C_4
REMARK    3  A    between atoms: C_7  and  C_8
REMARK    4  A    between atoms: N_9  and  N_10
REMARK    5  A    between atoms: N_10  and  C_11
REMARK    6  A    between atoms: N_16  and  N_17
REMARK                            x       y       z     vdW  Elec       q    Type
REMARK                         _______ _______ _______ _____ _____    ______ ____
ROOT
ATOM      1  C   UNL     1       0.947   9.263  19.864  0.00  0.00    +0.000 A 
ATOM      2  C   UNL     1       1.370   8.163  20.614  0.00  0.00    +0.000 A 
ATOM      3  C   UNL     1       2.131   7.144  20.020  0.00  0.00    +0.000 A 
ATOM      4  C   UNL     1       2.478   7.221  18.670  0.00  0.00    +0.000 A 
ATOM      5  C   UNL     1       2.081   8.333  17.921  0.00  0.00    +0.000 A 
ATOM      6  C   UNL     1       1.309   9.346  18.512  0.00  0.00    +0.000 A 
ENDROOT
BRANCH   1   9
ATOM      7  C   UNL     1      -1.677  10.829  18.595  0.00  0.00    +0.000 C 
ATOM      8  N   UNL     1      -1.070  10.989  19.897  0.00  0.00    +0.000 N 
ATOM      9  C   UNL     1       0.050  10.310  20.468  0.00  0.00    +0.000 A 
ATOM     10  C   UNL     1       0.168  10.838  21.762  0.00  0.00    +0.000 A 
ATOM     11  N   UNL     1      -0.804  11.788  21.917  0.00  0.00    +0.000 N 
ATOM     12  C   UNL     1      -1.172  12.672  22.895  0.00  0.00    +0.000 A 
ATOM     13  C   UNL     1      -2.219  13.409  22.491  0.00  0.00    +0.000 A 
ATOM     14  S   UNL     1      -2.779  13.043  20.847  0.00  0.00    +0.000 S 
ATOM     15  C   UNL     1      -1.477  11.876  20.785  0.00  0.00    +0.000 A 
ENDBRANCH   1   9
BRANCH   4  16
ATOM     16  C   UNL     1       3.241   6.128  18.014  0.00  0.00    +0.000 C 
ATOM     17  N   UNL     1       3.819   5.194  18.704  0.00  0.00    +0.000 NA
BRANCH  17  18
ATOM     18  N   UNL     1       4.499   4.265  17.976  0.00  0.00    +0.000 N 
ATOM     19  H   UNL     1       4.676   3.383  18.457  0.00  0.00    +0.000 HD
BRANCH  18  20
ATOM     20  C   UNL     1       5.742   4.697  17.346  0.00  0.00    +0.000 C 
ATOM     21  N   UNL     1       5.634   5.538  16.137  0.00  0.00    +0.000 NA
ATOM     22  N   UNL     1       6.429   6.519  16.205  0.00  0.00    +0.000 NA
ATOM     23  C   UNL     1       7.003   6.563  17.461  0.00  0.00    +0.000 C 
ATOM     24  S   UNL     1       8.121   7.689  18.001  0.00  0.00    +0.000 S 
ATOM     25  N   UNL     1       6.512   5.516  18.229  0.00  0.00    +0.000 N 
BRANCH  25  26
ATOM     26  N   UNL     1       6.585   5.410  19.635  0.00  0.00    +0.000 NA
ATOM     27  H   UNL     1       7.356   4.773  19.864  0.00  0.00    +0.000 HD
ATOM     28  H   UNL     1       5.734   4.954  19.969  0.00  0.00    +0.000 HD
ENDBRANCH  25  26
ENDBRANCH  18  20
ENDBRANCH  17  18
ENDBRANCH   4  16
TORSDOF 5
ENDMDL
MODEL 8
REMARK VINA RESULT:      -7.1      2.588     10.724
REMARK  Name = 
REMARK  6 active torsions:
REMARK  status: ('A' for Active; 'I' for Inactive)
REMARK    1  A    between atoms: C_1  and  N_2
REMARK    2  A    between atoms: C_3  and  C_4
REMARK    3  A    between atoms: C_7  and  C_8
REMARK    4  A    between atoms: N_9  and  N_10
REMARK    5  A    between atoms: N_10  and  C_11
REMARK    6  A    between atoms: N_16  and  N_17
REMARK                            x       y       z     vdW  Elec       q    Type
REMARK                         _______ _______ _______ _____ _____    ______ ____
ROOT
ATOM      1  C   UNL     1       9.450  12.956  18.248  0.00  0.00    +0.000 A 
ATOM      2  C   UNL     1       8.357  12.526  17.491  0.00  0.00    +0.000 A 
ATOM      3  C   UNL     1       7.986  11.173  17.477  0.00  0.00    +0.000 A 
ATOM      4  C   UNL     1       8.705  10.238  18.225  0.00  0.00    +0.000 A 
ATOM      5  C   UNL     1       9.784  10.666  19.006  0.00  0.00    +0.000 A 
ATOM      6  C   UNL     1      10.163  12.019  19.009  0.00  0.00    +0.000 A 
ENDROOT
BRANCH   1   9
ATOM      7  C   UNL     1       7.864  15.756  19.023  0.00  0.00    +0.000 C 
ATOM      8  N   UNL     1       9.207  15.587  18.514  0.00  0.00    +0.000 N 
ATOM      9  C   UNL     1       9.913  14.388  18.191  0.00  0.00    +0.000 A 
ATOM     10  C   UNL     1      11.183  14.818  17.781  0.00  0.00    +0.000 A 
ATOM     11  N   UNL     1      11.199  16.185  17.832  0.00  0.00    +0.000 N 
ATOM     12  C   UNL     1      12.091  17.174  17.516  0.00  0.00    +0.000 A 
ATOM     13  C   UNL     1      11.554  18.381  17.751  0.00  0.00    +0.000 A 
ATOM     14  S   UNL     1       9.887  18.335  18.358  0.00  0.00    +0.000 S 
ATOM     15  C   UNL     1      10.006  16.595  18.222  0.00  0.00    +0.000 A 
ENDBRANCH   1   9
BRANCH   4  16
ATOM     16  C   UNL     1       8.357   8.795  18.183  0.00  0.00    +0.000 C 
ATOM     17  N   UNL     1       7.780   8.266  17.149  0.00  0.00    +0.000 NA
BRANCH  17  18
ATOM     18  N   UNL     1       7.500   6.936  17.252  0.00  0.00    +0.000 N 
ATOM     19  H   UNL     1       7.613   6.403  16.390  0.00  0.00    +0.000 HD
BRANCH  18  20
ATOM     20  C   UNL     1       6.220   6.572  17.850  0.00  0.00    +0.000 C 
ATOM     21  N   UNL     1       4.996   6.969  17.126  0.00  0.00    +0.000 NA
ATOM     22  N   UNL     1       4.176   6.007  17.077  0.00  0.00    +0.000 NA
ATOM     23  C   UNL     1       4.777   4.863  17.567  0.00  0.00    +0.000 C 
ATOM     24  S   UNL     1       4.068   3.350  17.698  0.00  0.00    +0.000 S 
ATOM     25  N   UNL     1       6.080   5.153  17.947  0.00  0.00    +0.000 N 
BRANCH  25  26
ATOM     26  N   UNL     1       7.109   4.213  18.173  0.00  0.00    +0.000 NA
ATOM     27  H   UNL     1       8.002   4.717  18.172  0.00  0.00    +0.000 HD
ATOM     28  H   UNL     1       7.144   3.575  17.375  0.00  0.00    +0.000 HD
ENDBRANCH  25  26
ENDBRANCH  18  20
ENDBRANCH  17  18
ENDBRANCH   4  16
TORSDOF 5
ENDMDL
MODEL 9
REMARK VINA RESULT:      -7.1      5.920      8.434
REMARK  Name = 
REMARK  6 active torsions:
REMARK  status: ('A' for Active; 'I' for Inactive)
REMARK    1  A    between atoms: C_1  and  N_2
REMARK    2  A    between atoms: C_3  and  C_4
REMARK    3  A    between atoms: C_7  and  C_8
REMARK    4  A    between atoms: N_9  and  N_10
REMARK    5  A    between atoms: N_10  and  C_11
REMARK    6  A    between atoms: N_16  and  N_17
REMARK                            x       y       z     vdW  Elec       q    Type
REMARK                         _______ _______ _______ _____ _____    ______ ____
ROOT
ATOM      1  C   UNL     1       1.151   9.021  19.594  0.00  0.00    +0.000 A 
ATOM      2  C   UNL     1       1.580   9.340  18.303  0.00  0.00    +0.000 A 
ATOM      3  C   UNL     1       2.545   8.553  17.656  0.00  0.00    +0.000 A 
ATOM      4  C   UNL     1       3.086   7.436  18.296  0.00  0.00    +0.000 A 
ATOM      5  C   UNL     1       2.642   7.096  19.578  0.00  0.00    +0.000 A 
ATOM      6  C   UNL     1       1.686   7.892  20.230  0.00  0.00    +0.000 A 
ENDROOT
BRANCH   1   9
ATOM      7  C   UNL     1      -0.992  11.270  18.453  0.00  0.00    +0.000 C 
ATOM      8  N   UNL     1      -0.716  10.895  19.822  0.00  0.00    +0.000 N 
ATOM      9  C   UNL     1       0.191   9.915  20.332  0.00  0.00    +0.000 A 
ATOM     10  C   UNL     1       0.015   9.952  21.722  0.00  0.00    +0.000 A 
ATOM     11  N   UNL     1      -0.913  10.918  22.002  0.00  0.00    +0.000 N 
ATOM     12  C   UNL     1      -1.462  11.461  23.132  0.00  0.00    +0.000 A 
ATOM     13  C   UNL     1      -2.336  12.428  22.810  0.00  0.00    +0.000 A 
ATOM     14  S   UNL     1      -2.493  12.721  21.066  0.00  0.00    +0.000 S 
ATOM     15  C   UNL     1      -1.280  11.476  20.863  0.00  0.00    +0.000 A 
ENDBRANCH   1   9
BRANCH   4  16
ATOM     16  C   UNL     1       4.144   6.621  17.645  0.00  0.00    +0.000 C 
ATOM     17  N   UNL     1       4.994   5.930  18.341  0.00  0.00    +0.000 NA
BRANCH  17  18
ATOM     18  N   UNL     1       5.921   5.244  17.617  0.00  0.00    +0.000 N 
ATOM     19  H   UNL     1       6.844   5.180  18.046  0.00  0.00    +0.000 HD
BRANCH  18  20
ATOM     20  C   UNL     1       6.093   5.633  16.221  0.00  0.00    +0.000 C 
ATOM     21  N   UNL     1       7.474   5.823  15.735  0.00  0.00    +0.000 NA
ATOM     22  N   UNL     1       7.633   5.257  14.615  0.00  0.00    +0.000 NA
ATOM     23  C   UNL     1       6.511   4.511  14.311  0.00  0.00    +0.000 C 
ATOM     24  S   UNL     1       6.274   3.597  12.926  0.00  0.00    +0.000 S 
ATOM     25  N   UNL     1       5.586   4.630  15.338  0.00  0.00    +0.000 N 
BRANCH  25  26
ATOM     26  N   UNL     1       4.482   3.779  15.567  0.00  0.00    +0.000 NA
ATOM     27  H   UNL     1       3.636   4.270  15.260  0.00  0.00    +0.000 HD
ATOM     28  H   UNL     1       4.381   3.647  16.575  0.00  0.00    +0.000 HD
ENDBRANCH  25  26
ENDBRANCH  18  20
ENDBRANCH  17  18
ENDBRANCH   4  16
TORSDOF 5
ENDMDL
