MODEL 1
REMARK VINA RESULT:      -6.5      0.000      0.000
REMARK  Name = 
REMARK  4 active torsions:
REMARK  status: ('A' for Active; 'I' for Inactive)
REMARK    1  A    between atoms: C_1  and  C_2
REMARK    2  A    between atoms: C_2  and  C_3
REMARK    3  A    between atoms: C_7  and  C_8
REMARK    4  A    between atoms: C_11  and  O_12
REMARK                            x       y       z     vdW  Elec       q    Type
REMARK                         _______ _______ _______ _____ _____    ______ ____
ROOT
ATOM      1  C   UNL     1       4.366   7.075  15.293  0.00  0.00    +0.000 C 
ATOM      2  C   UNL     1       4.923   6.133  16.372  0.00  0.00    +0.000 C 
ATOM      3  C   UNL     1       6.209   6.728  16.966  0.00  0.00    +0.000 C 
ATOM      4  C   UNL     1       3.923   5.881  17.443  0.00  0.00    +0.000 C 
ATOM      5  C   UNL     1       3.626   4.595  17.531  0.00  0.00    +0.000 C 
ATOM      6  O   UNL     1       4.293   3.770  16.643  0.00  0.00    +0.000 OA
ATOM      7  C   UNL     1       5.067   4.679  15.791  0.00  0.00    +0.000 C 
ATOM      8  C   UNL     1       2.684   4.028  18.496  0.00  0.00    +0.000 A 
ATOM      9  C   UNL     1       2.317   2.675  18.534  0.00  0.00    +0.000 A 
ATOM     10  C   UNL     1       1.422   2.193  19.495  0.00  0.00    +0.000 A 
ATOM     11  C   UNL     1       0.877   3.055  20.442  0.00  0.00    +0.000 A 
ATOM     12  C   UNL     1       1.217   4.403  20.423  0.00  0.00    +0.000 A 
ATOM     13  C   UNL     1       2.106   4.884  19.453  0.00  0.00    +0.000 A 
ATOM     14  C   UNL     1       2.429   6.332  19.449  0.00  0.00    +0.000 C 
ATOM     15  O   UNL     1       1.993   7.084  20.308  0.00  0.00    +0.000 OA
ATOM     16  C   UNL     1       3.323   6.871  18.343  0.00  0.00    +0.000 C 
ATOM     17  O   UNL     1       3.535   8.068  18.225  0.00  0.00    +0.000 OA
ENDROOT
BRANCH   7  18
ATOM     18  C   UNL     1       6.506   4.148  15.692  0.00  0.00    +0.000 C 
ATOM     19  I   UNL     1       7.368   4.572  13.753  0.00  0.00    +0.000 I 
ENDBRANCH   7  18
BRANCH   9  20
ATOM     20  O   UNL     1       2.791   1.745  17.649  0.00  0.00    +0.000 OA
ATOM     21  H   UNL     1       2.159   1.672  16.908  0.00  0.00    +0.000 HD
ENDBRANCH   9  20
TORSDOF 2
ENDMDL
MODEL 2
REMARK VINA RESULT:      -6.5      1.801      1.818
REMARK  Name = 
REMARK  4 active torsions:
REMARK  status: ('A' for Active; 'I' for Inactive)
REMARK    1  A    between atoms: C_1  and  C_2
REMARK    2  A    between atoms: C_2  and  C_3
REMARK    3  A    between atoms: C_7  and  C_8
REMARK    4  A    between atoms: C_11  and  O_12
REMARK                            x       y       z     vdW  Elec       q    Type
REMARK                         _______ _______ _______ _____ _____    ______ ____
ROOT
ATOM      1  C   UNL     1       5.093   6.341  15.445  0.00  0.00    +0.000 C 
ATOM      2  C   UNL     1       5.567   6.111  16.888  0.00  0.00    +0.000 C 
ATOM      3  C   UNL     1       6.457   7.281  17.335  0.00  0.00    +0.000 C 
ATOM      4  C   UNL     1       4.419   5.946  17.817  0.00  0.00    +0.000 C 
ATOM      5  C   UNL     1       4.445   4.763  18.410  0.00  0.00    +0.000 C 
ATOM      6  O   UNL     1       5.509   3.950  18.063  0.00  0.00    +0.000 OA
ATOM      7  C   UNL     1       6.223   4.687  17.016  0.00  0.00    +0.000 C 
ATOM      8  C   UNL     1       3.459   4.307  19.390  0.00  0.00    +0.000 A 
ATOM      9  C   UNL     1       3.451   3.024  19.958  0.00  0.00    +0.000 A 
ATOM     10  C   UNL     1       2.487   2.655  20.902  0.00  0.00    +0.000 A 
ATOM     11  C   UNL     1       1.512   3.565  21.302  0.00  0.00    +0.000 A 
ATOM     12  C   UNL     1       1.491   4.841  20.750  0.00  0.00    +0.000 A 
ATOM     13  C   UNL     1       2.452   5.203  19.796  0.00  0.00    +0.000 A 
ATOM     14  C   UNL     1       2.385   6.565  19.213  0.00  0.00    +0.000 C 
ATOM     15  O   UNL     1       1.563   7.384  19.596  0.00  0.00    +0.000 OA
ATOM     16  C   UNL     1       3.372   6.930  18.114  0.00  0.00    +0.000 C 
ATOM     17  O   UNL     1       3.297   7.995  17.521  0.00  0.00    +0.000 OA
ENDROOT
BRANCH   7  18
ATOM     18  C   UNL     1       7.723   4.680  17.350  0.00  0.00    +0.000 C 
ATOM     19  I   UNL     1       8.082   5.353  19.375  0.00  0.00    +0.000 I 
ENDBRANCH   7  18
BRANCH   9  20
ATOM     20  O   UNL     1       4.361   2.055  19.632  0.00  0.00    +0.000 OA
ATOM     21  H   UNL     1       3.877   1.281  19.285  0.00  0.00    +0.000 HD
ENDBRANCH   9  20
TORSDOF 2
ENDMDL
MODEL 3
REMARK VINA RESULT:      -6.1      8.182     10.397
REMARK  Name = 
REMARK  4 active torsions:
REMARK  status: ('A' for Active; 'I' for Inactive)
REMARK    1  A    between atoms: C_1  and  C_2
REMARK    2  A    between atoms: C_2  and  C_3
REMARK    3  A    between atoms: C_7  and  C_8
REMARK    4  A    between atoms: C_11  and  O_12
REMARK                            x       y       z     vdW  Elec       q    Type
REMARK                         _______ _______ _______ _____ _____    ______ ____
ROOT
ATOM      1  C   UNL     1      -1.218  11.381  22.955  0.00  0.00    +0.000 C 
ATOM      2  C   UNL     1      -1.280  12.367  21.777  0.00  0.00    +0.000 C 
ATOM      3  C   UNL     1      -0.069  13.311  21.828  0.00  0.00    +0.000 C 
ATOM      4  C   UNL     1      -1.331  11.654  20.474  0.00  0.00    +0.000 C 
ATOM      5  C   UNL     1      -2.436  11.947  19.808  0.00  0.00    +0.000 C 
ATOM      6  O   UNL     1      -3.288  12.838  20.437  0.00  0.00    +0.000 OA
ATOM      7  C   UNL     1      -2.681  13.081  21.749  0.00  0.00    +0.000 C 
ATOM      8  C   UNL     1      -2.772  11.415  18.488  0.00  0.00    +0.000 A 
ATOM      9  C   UNL     1      -3.979  11.671  17.821  0.00  0.00    +0.000 A 
ATOM     10  C   UNL     1      -4.232  11.143  16.550  0.00  0.00    +0.000 A 
ATOM     11  C   UNL     1      -3.278  10.350  15.917  0.00  0.00    +0.000 A 
ATOM     12  C   UNL     1      -2.076  10.074  16.558  0.00  0.00    +0.000 A 
ATOM     13  C   UNL     1      -1.831  10.595  17.835  0.00  0.00    +0.000 A 
ATOM     14  C   UNL     1      -0.546  10.261  18.497  0.00  0.00    +0.000 C 
ATOM     15  O   UNL     1       0.314   9.608  17.926  0.00  0.00    +0.000 OA
ATOM     16  C   UNL     1      -0.316  10.753  19.918  0.00  0.00    +0.000 C 
ATOM     17  O   UNL     1       0.673  10.420  20.553  0.00  0.00    +0.000 OA
ENDROOT
BRANCH   7  18
ATOM     18  C   UNL     1      -2.654  14.596  22.002  0.00  0.00    +0.000 C 
ATOM     19  I   UNL     1      -3.367  15.075  23.988  0.00  0.00    +0.000 I 
ENDBRANCH   7  18
BRANCH   9  20
ATOM     20  O   UNL     1      -4.983  12.433  18.355  0.00  0.00    +0.000 OA
ATOM     21  H   UNL     1      -5.644  12.605  17.658  0.00  0.00    +0.000 HD
ENDBRANCH   9  20
TORSDOF 2
ENDMDL
MODEL 4
REMARK VINA RESULT:      -6.0      6.062      8.225
REMARK  Name = 
REMARK  4 active torsions:
REMARK  status: ('A' for Active; 'I' for Inactive)
REMARK    1  A    between atoms: C_1  and  C_2
REMARK    2  A    between atoms: C_2  and  C_3
REMARK    3  A    between atoms: C_7  and  C_8
REMARK    4  A    between atoms: C_11  and  O_12
REMARK                            x       y       z     vdW  Elec       q    Type
REMARK                         _______ _______ _______ _____ _____    ______ ____
ROOT
ATOM      1  C   UNL     1      -2.645  13.069  20.446  0.00  0.00    +0.000 C 
ATOM      2  C   UNL     1      -1.108  13.058  20.424  0.00  0.00    +0.000 C 
ATOM      3  C   UNL     1      -0.568  14.078  21.437  0.00  0.00    +0.000 C 
ATOM      4  C   UNL     1      -0.571  11.702  20.712  0.00  0.00    +0.000 C 
ATOM      5  C   UNL     1       0.154  11.247  19.703  0.00  0.00    +0.000 C 
ATOM      6  O   UNL     1       0.268  12.103  18.622  0.00  0.00    +0.000 OA
ATOM      7  C   UNL     1      -0.593  13.244  18.950  0.00  0.00    +0.000 C 
ATOM      8  C   UNL     1       0.828   9.949  19.688  0.00  0.00    +0.000 A 
ATOM      9  C   UNL     1       1.532   9.441  18.586  0.00  0.00    +0.000 A 
ATOM     10  C   UNL     1       2.169   8.197  18.643  0.00  0.00    +0.000 A 
ATOM     11  C   UNL     1       2.119   7.435  19.807  0.00  0.00    +0.000 A 
ATOM     12  C   UNL     1       1.422   7.910  20.912  0.00  0.00    +0.000 A 
ATOM     13  C   UNL     1       0.777   9.152  20.848  0.00  0.00    +0.000 A 
ATOM     14  C   UNL     1       0.024   9.617  22.039  0.00  0.00    +0.000 C 
ATOM     15  O   UNL     1       0.019   8.976  23.080  0.00  0.00    +0.000 OA
ATOM     16  C   UNL     1      -0.750  10.922  21.941  0.00  0.00    +0.000 C 
ATOM     17  O   UNL     1      -1.474  11.301  22.849  0.00  0.00    +0.000 OA
ENDROOT
BRANCH   7  18
ATOM     18  C   UNL     1       0.190  14.539  18.684  0.00  0.00    +0.000 C 
ATOM     19  I   UNL     1       2.321  14.171  18.612  0.00  0.00    +0.000 I 
ENDBRANCH   7  18
BRANCH   9  20
ATOM     20  O   UNL     1       1.639  10.107  17.395  0.00  0.00    +0.000 OA
ATOM     21  H   UNL     1       1.489   9.470  16.670  0.00  0.00    +0.000 HD
ENDBRANCH   9  20
TORSDOF 2
ENDMDL
MODEL 5
REMARK VINA RESULT:      -5.9      7.923      9.898
REMARK  Name = 
REMARK  4 active torsions:
REMARK  status: ('A' for Active; 'I' for Inactive)
REMARK    1  A    between atoms: C_1  and  C_2
REMARK    2  A    between atoms: C_2  and  C_3
REMARK    3  A    between atoms: C_7  and  C_8
REMARK    4  A    between atoms: C_11  and  O_12
REMARK                            x       y       z     vdW  Elec       q    Type
REMARK                         _______ _______ _______ _____ _____    ______ ____
ROOT
ATOM      1  C   UNL     1      -1.223  13.913  22.108  0.00  0.00    +0.000 C 
ATOM      2  C   UNL     1      -1.594  12.444  21.846  0.00  0.00    +0.000 C 
ATOM      3  C   UNL     1      -2.297  11.858  23.079  0.00  0.00    +0.000 C 
ATOM      4  C   UNL     1      -2.454  12.308  20.642  0.00  0.00    +0.000 C 
ATOM      5  C   UNL     1      -1.880  11.550  19.722  0.00  0.00    +0.000 C 
ATOM      6  O   UNL     1      -0.637  11.046  20.062  0.00  0.00    +0.000 OA
ATOM      7  C   UNL     1      -0.326  11.650  21.361  0.00  0.00    +0.000 C 
ATOM      8  C   UNL     1      -2.481  11.216  18.431  0.00  0.00    +0.000 A 
ATOM      9  C   UNL     1      -1.835  10.475  17.431  0.00  0.00    +0.000 A 
ATOM     10  C   UNL     1      -2.473  10.177  16.222  0.00  0.00    +0.000 A 
ATOM     11  C   UNL     1      -3.776  10.611  15.990  0.00  0.00    +0.000 A 
ATOM     12  C   UNL     1      -4.438  11.354  16.961  0.00  0.00    +0.000 A 
ATOM     13  C   UNL     1      -3.791  11.660  18.166  0.00  0.00    +0.000 A 
ATOM     14  C   UNL     1      -4.520  12.474  19.169  0.00  0.00    +0.000 C 
ATOM     15  O   UNL     1      -5.680  12.816  18.991  0.00  0.00    +0.000 OA
ATOM     16  C   UNL     1      -3.789  12.882  20.439  0.00  0.00    +0.000 C 
ATOM     17  O   UNL     1      -4.299  13.640  21.249  0.00  0.00    +0.000 OA
ENDROOT
BRANCH   7  18
ATOM     18  C   UNL     1       0.162  10.544  22.310  0.00  0.00    +0.000 C 
ATOM     19  I   UNL     1       0.812   8.796  21.212  0.00  0.00    +0.000 I 
ENDBRANCH   7  18
BRANCH   9  20
ATOM     20  O   UNL     1      -0.556  10.004  17.556  0.00  0.00    +0.000 OA
ATOM     21  H   UNL     1      -0.584   9.028  17.549  0.00  0.00    +0.000 HD
ENDBRANCH   9  20
TORSDOF 2
ENDMDL
MODEL 6
REMARK VINA RESULT:      -5.8      8.696     10.776
REMARK  Name = 
REMARK  4 active torsions:
REMARK  status: ('A' for Active; 'I' for Inactive)
REMARK    1  A    between atoms: C_1  and  C_2
REMARK    2  A    between atoms: C_2  and  C_3
REMARK    3  A    between atoms: C_7  and  C_8
REMARK    4  A    between atoms: C_11  and  O_12
REMARK                            x       y       z     vdW  Elec       q    Type
REMARK                         _______ _______ _______ _____ _____    ______ ____
ROOT
ATOM      1  C   UNL     1      -2.918  14.665  22.043  0.00  0.00    +0.000 C 
ATOM      2  C   UNL     1      -2.867  13.145  21.819  0.00  0.00    +0.000 C 
ATOM      3  C   UNL     1      -3.543  12.425  22.995  0.00  0.00    +0.000 C 
ATOM      4  C   UNL     1      -3.510  12.763  20.534  0.00  0.00    +0.000 C 
ATOM      5  C   UNL     1      -2.653  12.160  19.727  0.00  0.00    +0.000 C 
ATOM      6  O   UNL     1      -1.374  12.003  20.231  0.00  0.00    +0.000 OA
ATOM      7  C   UNL     1      -1.389  12.696  21.523  0.00  0.00    +0.000 C 
ATOM      8  C   UNL     1      -2.986  11.653  18.396  0.00  0.00    +0.000 A 
ATOM      9  C   UNL     1      -2.055  11.082  17.516  0.00  0.00    +0.000 A 
ATOM     10  C   UNL     1      -2.443  10.602  16.261  0.00  0.00    +0.000 A 
ATOM     11  C   UNL     1      -3.774  10.678  15.861  0.00  0.00    +0.000 A 
ATOM     12  C   UNL     1      -4.718  11.246  16.710  0.00  0.00    +0.000 A 
ATOM     13  C   UNL     1      -4.323  11.736  17.962  0.00  0.00    +0.000 A 
ATOM     14  C   UNL     1      -5.353  12.355  18.832  0.00  0.00    +0.000 C 
ATOM     15  O   UNL     1      -6.531  12.380  18.507  0.00  0.00    +0.000 OA
ATOM     16  C   UNL     1      -4.911  12.967  20.152  0.00  0.00    +0.000 C 
ATOM     17  O   UNL     1      -5.693  13.585  20.859  0.00  0.00    +0.000 OA
ENDROOT
BRANCH   7  18
ATOM     18  C   UNL     1      -0.755  11.776  22.579  0.00  0.00    +0.000 C 
ATOM     19  I   UNL     1       0.033   9.973  21.679  0.00  0.00    +0.000 I 
ENDBRANCH   7  18
BRANCH   9  20
ATOM     20  O   UNL     1      -0.723  10.963  17.810  0.00  0.00    +0.000 OA
ATOM     21  H   UNL     1      -0.225  10.910  16.971  0.00  0.00    +0.000 HD
ENDBRANCH   9  20
TORSDOF 2
ENDMDL
MODEL 7
REMARK VINA RESULT:      -5.7      9.135     11.064
REMARK  Name = 
REMARK  4 active torsions:
REMARK  status: ('A' for Active; 'I' for Inactive)
REMARK    1  A    between atoms: C_1  and  C_2
REMARK    2  A    between atoms: C_2  and  C_3
REMARK    3  A    between atoms: C_7  and  C_8
REMARK    4  A    between atoms: C_11  and  O_12
REMARK                            x       y       z     vdW  Elec       q    Type
REMARK                         _______ _______ _______ _____ _____    ______ ____
ROOT
ATOM      1  C   UNL     1      -1.586  14.427  22.422  0.00  0.00    +0.000 C 
ATOM      2  C   UNL     1      -1.769  13.002  21.875  0.00  0.00    +0.000 C 
ATOM      3  C   UNL     1      -1.364  11.979  22.947  0.00  0.00    +0.000 C 
ATOM      4  C   UNL     1      -3.168  12.766  21.430  0.00  0.00    +0.000 C 
ATOM      5  C   UNL     1      -3.220  12.466  20.143  0.00  0.00    +0.000 C 
ATOM      6  O   UNL     1      -1.999  12.425  19.494  0.00  0.00    +0.000 OA
ATOM      7  C   UNL     1      -1.022  12.856  20.498  0.00  0.00    +0.000 C 
ATOM      8  C   UNL     1      -4.451  12.166  19.412  0.00  0.00    +0.000 A 
ATOM      9  C   UNL     1      -4.508  11.923  18.032  0.00  0.00    +0.000 A 
ATOM     10  C   UNL     1      -5.717  11.627  17.397  0.00  0.00    +0.000 A 
ATOM     11  C   UNL     1      -6.899  11.562  18.130  0.00  0.00    +0.000 A 
ATOM     12  C   UNL     1      -6.874  11.807  19.499  0.00  0.00    +0.000 A 
ATOM     13  C   UNL     1      -5.662  12.114  20.130  0.00  0.00    +0.000 A 
ATOM     14  C   UNL     1      -5.677  12.390  21.588  0.00  0.00    +0.000 C 
ATOM     15  O   UNL     1      -6.702  12.287  22.245  0.00  0.00    +0.000 OA
ATOM     16  C   UNL     1      -4.378  12.811  22.258  0.00  0.00    +0.000 C 
ATOM     17  O   UNL     1      -4.350  13.156  23.429  0.00  0.00    +0.000 OA
ENDROOT
BRANCH   7  18
ATOM     18  C   UNL     1       0.157  11.871  20.489  0.00  0.00    +0.000 C 
ATOM     19  I   UNL     1      -0.049  10.412  18.904  0.00  0.00    +0.000 I 
ENDBRANCH   7  18
BRANCH   9  20
ATOM     20  O   UNL     1      -3.407  11.965  17.219  0.00  0.00    +0.000 OA
ATOM     21  H   UNL     1      -3.438  11.197  16.617  0.00  0.00    +0.000 HD
ENDBRANCH   9  20
TORSDOF 2
ENDMDL
MODEL 8
REMARK VINA RESULT:      -5.7      7.592      9.442
REMARK  Name = 
REMARK  4 active torsions:
REMARK  status: ('A' for Active; 'I' for Inactive)
REMARK    1  A    between atoms: C_1  and  C_2
REMARK    2  A    between atoms: C_2  and  C_3
REMARK    3  A    between atoms: C_7  and  C_8
REMARK    4  A    between atoms: C_11  and  O_12
REMARK                            x       y       z     vdW  Elec       q    Type
REMARK                         _______ _______ _______ _____ _____    ______ ____
ROOT
ATOM      1  C   UNL     1       0.534  12.938  21.346  0.00  0.00    +0.000 C 
ATOM      2  C   UNL     1      -0.215  11.647  20.980  0.00  0.00    +0.000 C 
ATOM      3  C   UNL     1      -0.281  10.720  22.204  0.00  0.00    +0.000 C 
ATOM      4  C   UNL     1      -1.581  11.937  20.472  0.00  0.00    +0.000 C 
ATOM      5  C   UNL     1      -1.739  11.496  19.235  0.00  0.00    +0.000 C 
ATOM      6  O   UNL     1      -0.637  10.864  18.686  0.00  0.00    +0.000 OA
ATOM      7  C   UNL     1       0.420  11.005  19.692  0.00  0.00    +0.000 C 
ATOM      8  C   UNL     1      -2.976  11.619  18.464  0.00  0.00    +0.000 A 
ATOM      9  C   UNL     1      -3.113  11.216  17.127  0.00  0.00    +0.000 A 
ATOM     10  C   UNL     1      -4.331  11.347  16.451  0.00  0.00    +0.000 A 
ATOM     11  C   UNL     1      -5.441  11.880  17.101  0.00  0.00    +0.000 A 
ATOM     12  C   UNL     1      -5.332  12.295  18.424  0.00  0.00    +0.000 A 
ATOM     13  C   UNL     1      -4.108  12.172  19.094  0.00  0.00    +0.000 A 
ATOM     14  C   UNL     1      -4.023  12.645  20.498  0.00  0.00    +0.000 C 
ATOM     15  O   UNL     1      -5.006  13.067  21.088  0.00  0.00    +0.000 OA
ATOM     16  C   UNL     1      -2.674  12.594  21.197  0.00  0.00    +0.000 C 
ATOM     17  O   UNL     1      -2.518  13.069  22.312  0.00  0.00    +0.000 OA
ENDROOT
BRANCH   7  18
ATOM     18  C   UNL     1       1.086   9.636  19.897  0.00  0.00    +0.000 C 
ATOM     19  I   UNL     1       1.895   8.869  18.042  0.00  0.00    +0.000 I 
ENDBRANCH   7  18
BRANCH   9  20
ATOM     20  O   UNL     1      -2.085  10.684  16.396  0.00  0.00    +0.000 OA
ATOM     21  H   UNL     1      -1.252  10.831  16.883  0.00  0.00    +0.000 HD
ENDBRANCH   9  20
TORSDOF 2
ENDMDL
MODEL 9
REMARK VINA RESULT:      -5.7      1.936      3.822
REMARK  Name = 
REMARK  4 active torsions:
REMARK  status: ('A' for Active; 'I' for Inactive)
REMARK    1  A    between atoms: C_1  and  C_2
REMARK    2  A    between atoms: C_2  and  C_3
REMARK    3  A    between atoms: C_7  and  C_8
REMARK    4  A    between atoms: C_11  and  O_12
REMARK                            x       y       z     vdW  Elec       q    Type
REMARK                         _______ _______ _______ _____ _____    ______ ____
ROOT
ATOM      1  C   UNL     1       6.447   4.413  18.204  0.00  0.00    +0.000 C 
ATOM      2  C   UNL     1       5.088   4.674  17.535  0.00  0.00    +0.000 C 
ATOM      3  C   UNL     1       4.564   3.377  16.901  0.00  0.00    +0.000 C 
ATOM      4  C   UNL     1       4.101   5.217  18.504  0.00  0.00    +0.000 C 
ATOM      5  C   UNL     1       3.672   6.414  18.136  0.00  0.00    +0.000 C 
ATOM      6  O   UNL     1       4.206   6.897  16.955  0.00  0.00    +0.000 OA
ATOM      7  C   UNL     1       5.200   5.898  16.553  0.00  0.00    +0.000 C 
ATOM      8  C   UNL     1       2.686   7.203  18.875  0.00  0.00    +0.000 A 
ATOM      9  C   UNL     1       2.293   8.501  18.520  0.00  0.00    +0.000 A 
ATOM     10  C   UNL     1       1.332   9.196  19.261  0.00  0.00    +0.000 A 
ATOM     11  C   UNL     1       0.740   8.604  20.374  0.00  0.00    +0.000 A 
ATOM     12  C   UNL     1       1.116   7.321  20.753  0.00  0.00    +0.000 A 
ATOM     13  C   UNL     1       2.087   6.632  20.014  0.00  0.00    +0.000 A 
ATOM     14  C   UNL     1       2.479   5.273  20.462  0.00  0.00    +0.000 C 
ATOM     15  O   UNL     1       1.928   4.729  21.407  0.00  0.00    +0.000 OA
ATOM     16  C   UNL     1       3.595   4.560  19.714  0.00  0.00    +0.000 C 
ATOM     17  O   UNL     1       4.036   3.488  20.101  0.00  0.00    +0.000 OA
ENDROOT
BRANCH   7  18
ATOM     18  C   UNL     1       4.991   5.571  15.066  0.00  0.00    +0.000 C 
ATOM     19  I   UNL     1       6.736   4.613  14.218  0.00  0.00    +0.000 I 
ENDBRANCH   7  18
BRANCH   9  20
ATOM     20  O   UNL     1       2.814   9.175  17.449  0.00  0.00    +0.000 OA
ATOM     21  H   UNL     1       2.705  10.133  17.603  0.00  0.00    +0.000 HD
ENDBRANCH   9  20
TORSDOF 2
ENDMDL
