MODEL 1
REMARK VINA RESULT:      -7.1      0.000      0.000
REMARK  Name = 
REMARK  9 active torsions:
REMARK  status: ('A' for Active; 'I' for Inactive)
REMARK    1  A    between atoms: C_1  and  S_2
REMARK    2  A    between atoms: S_2  and  N_5
REMARK    3  A    between atoms: N_5  and  C_6
REMARK    4  A    between atoms: C_8  and  O_9
REMARK    5  A    between atoms: C_11  and  C_12
REMARK    6  A    between atoms: C_12  and  O_13
REMARK    7  A    between atoms: C_12  and  C_14
REMARK    8  A    between atoms: C_14  and  N_15
REMARK    9  A    between atoms: N_15  and  C_16
REMARK                            x       y       z     vdW  Elec       q    Type
REMARK                         _______ _______ _______ _____ _____    ______ ____
ROOT
ATOM      1  C   UNL     1       3.979   3.192  18.103  0.00  0.00    +0.000 A 
ATOM      2  C   UNL     1       4.759   3.666  19.154  0.00  0.00    +0.000 A 
ATOM      3  C   UNL     1       5.727   4.627  18.891  0.00  0.00    +0.000 A 
ATOM      4  C   UNL     1       5.916   5.127  17.607  0.00  0.00    +0.000 A 
ATOM      5  C   UNL     1       5.112   4.685  16.545  0.00  0.00    +0.000 A 
ATOM      6  C   UNL     1       4.130   3.714  16.813  0.00  0.00    +0.000 A 
ENDROOT
BRANCH   1   7
ATOM      7  N   UNL     1       2.983   2.195  18.359  0.00  0.00    +0.000 N 
ATOM      8  H   UNL     1       2.717   1.665  17.527  0.00  0.00    +0.000 HD
BRANCH   7  10
ATOM      9  C   UNL     1       1.606   4.456  18.757  0.00  0.00    +0.000 C 
ATOM     10  S   UNL     1       1.560   2.715  19.123  0.00  0.00    +0.000 S 
ATOM     11  O   UNL     1       1.798   2.553  20.540  0.00  0.00    +0.000 OA
ATOM     12  O   UNL     1       0.399   2.149  18.469  0.00  0.00    +0.000 OA
ENDBRANCH   7  10
ENDBRANCH   1   7
BRANCH   3  13
ATOM     13  O   UNL     1       6.534   5.122  19.874  0.00  0.00    +0.000 OA
ATOM     14  H   UNL     1       7.406   5.322  19.493  0.00  0.00    +0.000 HD
ENDBRANCH   3  13
BRANCH   5  15
ATOM     15  C   UNL     1       5.288   5.235  15.141  0.00  0.00    +0.000 C 
BRANCH  15  16
ATOM     16  O   UNL     1       5.423   6.660  15.190  0.00  0.00    +0.000 OA
ATOM     17  H   UNL     1       5.550   6.979  14.281  0.00  0.00    +0.000 HD
ENDBRANCH  15  16
BRANCH  15  18
ATOM     18  C   UNL     1       6.506   4.655  14.379  0.00  0.00    +0.000 C 
BRANCH  18  19
ATOM     19  N   UNL     1       6.258   3.343  13.767  0.00  0.00    +0.000 NA
ATOM     20  H   UNL     1       5.456   2.902  14.218  0.00  0.00    +0.000 HD
BRANCH  19  21
ATOM     21  C   UNL     1       6.068   3.435  12.317  0.00  0.00    +0.000 C 
ATOM     22  C   UNL     1       5.721   2.185  11.559  0.00  0.00    +0.000 C 
ATOM     23  C   UNL     1       4.697   3.270  11.725  0.00  0.00    +0.000 C 
ENDBRANCH  19  21
ENDBRANCH  18  19
ENDBRANCH  15  18
ENDBRANCH   5  15
TORSDOF 8
ENDMDL
MODEL 2
REMARK VINA RESULT:      -7.0      1.067      1.276
REMARK  Name = 
REMARK  9 active torsions:
REMARK  status: ('A' for Active; 'I' for Inactive)
REMARK    1  A    between atoms: C_1  and  S_2
REMARK    2  A    between atoms: S_2  and  N_5
REMARK    3  A    between atoms: N_5  and  C_6
REMARK    4  A    between atoms: C_8  and  O_9
REMARK    5  A    between atoms: C_11  and  C_12
REMARK    6  A    between atoms: C_12  and  O_13
REMARK    7  A    between atoms: C_12  and  C_14
REMARK    8  A    between atoms: C_14  and  N_15
REMARK    9  A    between atoms: N_15  and  C_16
REMARK                            x       y       z     vdW  Elec       q    Type
REMARK                         _______ _______ _______ _____ _____    ______ ____
ROOT
ATOM      1  C   UNL     1       4.260   3.754  18.534  0.00  0.00    +0.000 A 
ATOM      2  C   UNL     1       5.204   4.220  19.446  0.00  0.00    +0.000 A 
ATOM      3  C   UNL     1       6.223   5.049  18.992  0.00  0.00    +0.000 A 
ATOM      4  C   UNL     1       6.304   5.425  17.655  0.00  0.00    +0.000 A 
ATOM      5  C   UNL     1       5.338   4.993  16.733  0.00  0.00    +0.000 A 
ATOM      6  C   UNL     1       4.305   4.157  17.194  0.00  0.00    +0.000 A 
ENDROOT
BRANCH   1   7
ATOM      7  N   UNL     1       3.209   2.894  18.988  0.00  0.00    +0.000 N 
ATOM      8  H   UNL     1       3.082   2.065  18.402  0.00  0.00    +0.000 HD
BRANCH   7  10
ATOM      9  C   UNL     1       1.230   2.897  20.790  0.00  0.00    +0.000 C 
ATOM     10  S   UNL     1       1.687   3.604  19.223  0.00  0.00    +0.000 S 
ATOM     11  O   UNL     1       0.829   3.030  18.210  0.00  0.00    +0.000 OA
ATOM     12  O   UNL     1       1.818   5.035  19.397  0.00  0.00    +0.000 OA
ENDBRANCH   7  10
ENDBRANCH   1   7
BRANCH   3  13
ATOM     13  O   UNL     1       7.187   5.528  19.830  0.00  0.00    +0.000 OA
ATOM     14  H   UNL     1       7.384   6.449  19.587  0.00  0.00    +0.000 HD
ENDBRANCH   3  13
BRANCH   5  15
ATOM     15  C   UNL     1       5.396   5.411  15.275  0.00  0.00    +0.000 C 
BRANCH  15  16
ATOM     16  O   UNL     1       5.432   6.839  15.180  0.00  0.00    +0.000 OA
ATOM     17  H   UNL     1       5.310   7.080  14.246  0.00  0.00    +0.000 HD
ENDBRANCH  15  16
BRANCH  15  18
ATOM     18  C   UNL     1       6.609   4.840  14.497  0.00  0.00    +0.000 C 
BRANCH  18  19
ATOM     19  N   UNL     1       6.364   3.526  13.890  0.00  0.00    +0.000 NA
ATOM     20  H   UNL     1       5.534   3.106  14.309  0.00  0.00    +0.000 HD
BRANCH  19  21
ATOM     21  C   UNL     1       6.243   3.604  12.432  0.00  0.00    +0.000 C 
ATOM     22  C   UNL     1       6.652   2.412  11.614  0.00  0.00    +0.000 C 
ATOM     23  C   UNL     1       5.203   2.787  11.719  0.00  0.00    +0.000 C 
ENDBRANCH  19  21
ENDBRANCH  18  19
ENDBRANCH  15  18
ENDBRANCH   5  15
TORSDOF 8
ENDMDL
MODEL 3
REMARK VINA RESULT:      -6.9      2.716      5.866
REMARK  Name = 
REMARK  9 active torsions:
REMARK  status: ('A' for Active; 'I' for Inactive)
REMARK    1  A    between atoms: C_1  and  S_2
REMARK    2  A    between atoms: S_2  and  N_5
REMARK    3  A    between atoms: N_5  and  C_6
REMARK    4  A    between atoms: C_8  and  O_9
REMARK    5  A    between atoms: C_11  and  C_12
REMARK    6  A    between atoms: C_12  and  O_13
REMARK    7  A    between atoms: C_12  and  C_14
REMARK    8  A    between atoms: C_14  and  N_15
REMARK    9  A    between atoms: N_15  and  C_16
REMARK                            x       y       z     vdW  Elec       q    Type
REMARK                         _______ _______ _______ _____ _____    ______ ____
ROOT
ATOM      1  C   UNL     1       6.488   4.383  16.966  0.00  0.00    +0.000 A 
ATOM      2  C   UNL     1       7.531   4.837  17.770  0.00  0.00    +0.000 A 
ATOM      3  C   UNL     1       7.232   5.381  19.014  0.00  0.00    +0.000 A 
ATOM      4  C   UNL     1       5.919   5.466  19.466  0.00  0.00    +0.000 A 
ATOM      5  C   UNL     1       4.863   4.979  18.682  0.00  0.00    +0.000 A 
ATOM      6  C   UNL     1       5.166   4.425  17.424  0.00  0.00    +0.000 A 
ENDROOT
BRANCH   1   7
ATOM      7  N   UNL     1       6.783   3.828  15.680  0.00  0.00    +0.000 N 
ATOM      8  H   UNL     1       7.688   3.354  15.640  0.00  0.00    +0.000 HD
BRANCH   7  10
ATOM      9  C   UNL     1       6.250   3.739  13.058  0.00  0.00    +0.000 C 
ATOM     10  S   UNL     1       6.685   4.879  14.352  0.00  0.00    +0.000 S 
ATOM     11  O   UNL     1       8.040   5.327  14.111  0.00  0.00    +0.000 OA
ATOM     12  O   UNL     1       5.588   5.808  14.521  0.00  0.00    +0.000 OA
ENDBRANCH   7  10
ENDBRANCH   1   7
BRANCH   3  13
ATOM     13  O   UNL     1       8.206   5.855  19.843  0.00  0.00    +0.000 OA
ATOM     14  H   UNL     1       7.827   5.987  20.728  0.00  0.00    +0.000 HD
ENDBRANCH   3  13
BRANCH   5  15
ATOM     15  C   UNL     1       3.426   5.042  19.167  0.00  0.00    +0.000 C 
BRANCH  15  16
ATOM     16  O   UNL     1       3.296   6.054  20.172  0.00  0.00    +0.000 OA
ATOM     17  H   UNL     1       4.117   6.573  20.181  0.00  0.00    +0.000 HD
ENDBRANCH  15  16
BRANCH  15  18
ATOM     18  C   UNL     1       2.389   5.327  18.051  0.00  0.00    +0.000 C 
BRANCH  18  19
ATOM     19  N   UNL     1       1.565   4.167  17.691  0.00  0.00    +0.000 NA
ATOM     20  H   UNL     1       1.807   3.855  16.750  0.00  0.00    +0.000 HD
BRANCH  19  21
ATOM     21  C   UNL     1       1.690   3.076  18.661  0.00  0.00    +0.000 C 
ATOM     22  C   UNL     1       0.828   3.107  19.890  0.00  0.00    +0.000 C 
ATOM     23  C   UNL     1       0.576   2.081  18.824  0.00  0.00    +0.000 C 
ENDBRANCH  19  21
ENDBRANCH  18  19
ENDBRANCH  15  18
ENDBRANCH   5  15
TORSDOF 8
ENDMDL
MODEL 4
REMARK VINA RESULT:      -6.9      1.781      1.902
REMARK  Name = 
REMARK  9 active torsions:
REMARK  status: ('A' for Active; 'I' for Inactive)
REMARK    1  A    between atoms: C_1  and  S_2
REMARK    2  A    between atoms: S_2  and  N_5
REMARK    3  A    between atoms: N_5  and  C_6
REMARK    4  A    between atoms: C_8  and  O_9
REMARK    5  A    between atoms: C_11  and  C_12
REMARK    6  A    between atoms: C_12  and  O_13
REMARK    7  A    between atoms: C_12  and  C_14
REMARK    8  A    between atoms: C_14  and  N_15
REMARK    9  A    between atoms: N_15  and  C_16
REMARK                            x       y       z     vdW  Elec       q    Type
REMARK                         _______ _______ _______ _____ _____    ______ ____
ROOT
ATOM      1  C   UNL     1       4.979   4.701  18.486  0.00  0.00    +0.000 A 
ATOM      2  C   UNL     1       5.962   5.236  19.315  0.00  0.00    +0.000 A 
ATOM      3  C   UNL     1       7.135   5.715  18.744  0.00  0.00    +0.000 A 
ATOM      4  C   UNL     1       7.333   5.678  17.367  0.00  0.00    +0.000 A 
ATOM      5  C   UNL     1       6.336   5.177  16.517  0.00  0.00    +0.000 A 
ATOM      6  C   UNL     1       5.147   4.695  17.096  0.00  0.00    +0.000 A 
ENDROOT
BRANCH   1   7
ATOM      7  N   UNL     1       3.770   4.198  19.063  0.00  0.00    +0.000 N 
ATOM      8  H   UNL     1       3.489   4.693  19.912  0.00  0.00    +0.000 HD
BRANCH   7  10
ATOM      9  C   UNL     1       2.250   2.444  20.398  0.00  0.00    +0.000 C 
ATOM     10  S   UNL     1       3.712   2.534  19.388  0.00  0.00    +0.000 S 
ATOM     11  O   UNL     1       4.853   2.263  20.235  0.00  0.00    +0.000 OA
ATOM     12  O   UNL     1       3.465   1.788  18.172  0.00  0.00    +0.000 OA
ENDBRANCH   7  10
ENDBRANCH   1   7
BRANCH   3  13
ATOM     13  O   UNL     1       8.142   6.237  19.501  0.00  0.00    +0.000 OA
ATOM     14  H   UNL     1       8.431   7.076  19.102  0.00  0.00    +0.000 HD
ENDBRANCH   3  13
BRANCH   5  15
ATOM     15  C   UNL     1       6.523   5.149  15.011  0.00  0.00    +0.000 C 
BRANCH  15  16
ATOM     16  O   UNL     1       7.819   5.655  14.673  0.00  0.00    +0.000 OA
ATOM     17  H   UNL     1       8.454   5.311  15.323  0.00  0.00    +0.000 HD
ENDBRANCH  15  16
BRANCH  15  18
ATOM     18  C   UNL     1       6.366   3.745  14.376  0.00  0.00    +0.000 C 
BRANCH  18  19
ATOM     19  N   UNL     1       5.141   3.581  13.583  0.00  0.00    +0.000 NA
ATOM     20  H   UNL     1       4.492   4.338  13.798  0.00  0.00    +0.000 HD
BRANCH  19  21
ATOM     21  C   UNL     1       5.417   3.510  12.145  0.00  0.00    +0.000 C 
ATOM     22  C   UNL     1       5.283   2.182  11.455  0.00  0.00    +0.000 C 
ATOM     23  C   UNL     1       4.295   3.277  11.174  0.00  0.00    +0.000 C 
ENDBRANCH  19  21
ENDBRANCH  18  19
ENDBRANCH  15  18
ENDBRANCH   5  15
TORSDOF 8
ENDMDL
MODEL 5
REMARK VINA RESULT:      -6.8      1.973      2.258
REMARK  Name = 
REMARK  9 active torsions:
REMARK  status: ('A' for Active; 'I' for Inactive)
REMARK    1  A    between atoms: C_1  and  S_2
REMARK    2  A    between atoms: S_2  and  N_5
REMARK    3  A    between atoms: N_5  and  C_6
REMARK    4  A    between atoms: C_8  and  O_9
REMARK    5  A    between atoms: C_11  and  C_12
REMARK    6  A    between atoms: C_12  and  O_13
REMARK    7  A    between atoms: C_12  and  C_14
REMARK    8  A    between atoms: C_14  and  N_15
REMARK    9  A    between atoms: N_15  and  C_16
REMARK                            x       y       z     vdW  Elec       q    Type
REMARK                         _______ _______ _______ _____ _____    ______ ____
ROOT
ATOM      1  C   UNL     1       4.108   4.634  18.332  0.00  0.00    +0.000 A 
ATOM      2  C   UNL     1       3.416   5.838  18.232  0.00  0.00    +0.000 A 
ATOM      3  C   UNL     1       3.915   6.831  17.397  0.00  0.00    +0.000 A 
ATOM      4  C   UNL     1       5.078   6.635  16.658  0.00  0.00    +0.000 A 
ATOM      5  C   UNL     1       5.764   5.413  16.722  0.00  0.00    +0.000 A 
ATOM      6  C   UNL     1       5.257   4.407  17.564  0.00  0.00    +0.000 A 
ENDROOT
BRANCH   1   7
ATOM      7  N   UNL     1       3.609   3.605  19.194  0.00  0.00    +0.000 N 
ATOM      8  H   UNL     1       4.328   3.194  19.794  0.00  0.00    +0.000 HD
BRANCH   7  10
ATOM      9  C   UNL     1       1.457   2.078  19.643  0.00  0.00    +0.000 C 
ATOM     10  S   UNL     1       2.757   2.337  18.457  0.00  0.00    +0.000 S 
ATOM     11  O   UNL     1       3.641   1.193  18.510  0.00  0.00    +0.000 OA
ATOM     12  O   UNL     1       2.154   2.784  17.219  0.00  0.00    +0.000 OA
ENDBRANCH   7  10
ENDBRANCH   1   7
BRANCH   3  13
ATOM     13  O   UNL     1       3.293   8.038  17.265  0.00  0.00    +0.000 OA
ATOM     14  H   UNL     1       3.599   8.627  17.976  0.00  0.00    +0.000 HD
ENDBRANCH   3  13
BRANCH   5  15
ATOM     15  C   UNL     1       7.022   5.171  15.907  0.00  0.00    +0.000 C 
BRANCH  15  16
ATOM     16  O   UNL     1       7.669   3.974  16.354  0.00  0.00    +0.000 OA
ATOM     17  H   UNL     1       7.427   3.257  15.744  0.00  0.00    +0.000 HD
ENDBRANCH  15  16
BRANCH  15  18
ATOM     18  C   UNL     1       6.778   5.052  14.381  0.00  0.00    +0.000 C 
BRANCH  18  19
ATOM     19  N   UNL     1       6.419   3.699  13.937  0.00  0.00    +0.000 NA
ATOM     20  H   UNL     1       5.556   3.407  14.397  0.00  0.00    +0.000 HD
BRANCH  19  21
ATOM     21  C   UNL     1       6.302   3.607  12.479  0.00  0.00    +0.000 C 
ATOM     22  C   UNL     1       6.071   2.257  11.863  0.00  0.00    +0.000 C 
ATOM     23  C   UNL     1       4.977   3.285  11.849  0.00  0.00    +0.000 C 
ENDBRANCH  19  21
ENDBRANCH  18  19
ENDBRANCH  15  18
ENDBRANCH   5  15
TORSDOF 8
ENDMDL
MODEL 6
REMARK VINA RESULT:      -6.7      1.431      1.673
REMARK  Name = 
REMARK  9 active torsions:
REMARK  status: ('A' for Active; 'I' for Inactive)
REMARK    1  A    between atoms: C_1  and  S_2
REMARK    2  A    between atoms: S_2  and  N_5
REMARK    3  A    between atoms: N_5  and  C_6
REMARK    4  A    between atoms: C_8  and  O_9
REMARK    5  A    between atoms: C_11  and  C_12
REMARK    6  A    between atoms: C_12  and  O_13
REMARK    7  A    between atoms: C_12  and  C_14
REMARK    8  A    between atoms: C_14  and  N_15
REMARK    9  A    between atoms: N_15  and  C_16
REMARK                            x       y       z     vdW  Elec       q    Type
REMARK                         _______ _______ _______ _____ _____    ______ ____
ROOT
ATOM      1  C   UNL     1       4.115   4.936  18.325  0.00  0.00    +0.000 A 
ATOM      2  C   UNL     1       5.021   5.102  19.369  0.00  0.00    +0.000 A 
ATOM      3  C   UNL     1       6.364   5.296  19.068  0.00  0.00    +0.000 A 
ATOM      4  C   UNL     1       6.808   5.338  17.751  0.00  0.00    +0.000 A 
ATOM      5  C   UNL     1       5.900   5.210  16.689  0.00  0.00    +0.000 A 
ATOM      6  C   UNL     1       4.541   5.017  16.994  0.00  0.00    +0.000 A 
ENDROOT
BRANCH   1   7
ATOM      7  N   UNL     1       2.729   4.729  18.622  0.00  0.00    +0.000 N 
ATOM      8  H   UNL     1       2.486   4.944  19.591  0.00  0.00    +0.000 HD
BRANCH   7  10
ATOM      9  C   UNL     1       3.379   2.143  18.861  0.00  0.00    +0.000 C 
ATOM     10  S   UNL     1       2.088   3.203  18.249  0.00  0.00    +0.000 S 
ATOM     11  O   UNL     1       2.094   3.121  16.805  0.00  0.00    +0.000 OA
ATOM     12  O   UNL     1       0.894   2.952  19.028  0.00  0.00    +0.000 OA
ENDBRANCH   7  10
ENDBRANCH   1   7
BRANCH   3  13
ATOM     13  O   UNL     1       7.303   5.451  20.045  0.00  0.00    +0.000 OA
ATOM     14  H   UNL     1       8.178   5.240  19.675  0.00  0.00    +0.000 HD
ENDBRANCH   3  13
BRANCH   5  15
ATOM     15  C   UNL     1       6.362   5.276  15.244  0.00  0.00    +0.000 C 
BRANCH  15  16
ATOM     16  O   UNL     1       7.729   5.701  15.189  0.00  0.00    +0.000 OA
ATOM     17  H   UNL     1       8.266   5.043  15.660  0.00  0.00    +0.000 HD
ENDBRANCH  15  16
BRANCH  15  18
ATOM     18  C   UNL     1       6.236   3.937  14.474  0.00  0.00    +0.000 C 
BRANCH  18  19
ATOM     19  N   UNL     1       5.042   3.847  13.624  0.00  0.00    +0.000 NA
ATOM     20  H   UNL     1       4.465   4.678  13.758  0.00  0.00    +0.000 HD
BRANCH  19  21
ATOM     21  C   UNL     1       5.380   3.656  12.211  0.00  0.00    +0.000 C 
ATOM     22  C   UNL     1       5.525   2.254  11.693  0.00  0.00    +0.000 C 
ATOM     23  C   UNL     1       4.359   3.095  11.262  0.00  0.00    +0.000 C 
ENDBRANCH  19  21
ENDBRANCH  18  19
ENDBRANCH  15  18
ENDBRANCH   5  15
TORSDOF 8
ENDMDL
MODEL 7
REMARK VINA RESULT:      -6.7      1.843      2.175
REMARK  Name = 
REMARK  9 active torsions:
REMARK  status: ('A' for Active; 'I' for Inactive)
REMARK    1  A    between atoms: C_1  and  S_2
REMARK    2  A    between atoms: S_2  and  N_5
REMARK    3  A    between atoms: N_5  and  C_6
REMARK    4  A    between atoms: C_8  and  O_9
REMARK    5  A    between atoms: C_11  and  C_12
REMARK    6  A    between atoms: C_12  and  O_13
REMARK    7  A    between atoms: C_12  and  C_14
REMARK    8  A    between atoms: C_14  and  N_15
REMARK    9  A    between atoms: N_15  and  C_16
REMARK                            x       y       z     vdW  Elec       q    Type
REMARK                         _______ _______ _______ _____ _____    ______ ____
ROOT
ATOM      1  C   UNL     1       5.277   4.654  18.647  0.00  0.00    +0.000 A 
ATOM      2  C   UNL     1       6.307   5.221  19.395  0.00  0.00    +0.000 A 
ATOM      3  C   UNL     1       7.358   5.840  18.729  0.00  0.00    +0.000 A 
ATOM      4  C   UNL     1       7.388   5.912  17.340  0.00  0.00    +0.000 A 
ATOM      5  C   UNL     1       6.339   5.379  16.576  0.00  0.00    +0.000 A 
ATOM      6  C   UNL     1       5.274   4.755  17.251  0.00  0.00    +0.000 A 
ENDROOT
BRANCH   1   7
ATOM      7  N   UNL     1       4.193   4.006  19.321  0.00  0.00    +0.000 N 
ATOM      8  H   UNL     1       3.975   3.082  18.943  0.00  0.00    +0.000 HD
BRANCH   7  10
ATOM      9  C   UNL     1       2.085   4.213  20.959  0.00  0.00    +0.000 C 
ATOM     10  S   UNL     1       2.741   4.875  19.443  0.00  0.00    +0.000 S 
ATOM     11  O   UNL     1       1.911   4.401  18.357  0.00  0.00    +0.000 OA
ATOM     12  O   UNL     1       3.008   6.283  19.647  0.00  0.00    +0.000 OA
ENDBRANCH   7  10
ENDBRANCH   1   7
BRANCH   3  13
ATOM     13  O   UNL     1       8.403   6.402  19.402  0.00  0.00    +0.000 OA
ATOM     14  H   UNL     1       8.056   6.891  20.167  0.00  0.00    +0.000 HD
ENDBRANCH   3  13
BRANCH   5  15
ATOM     15  C   UNL     1       6.342   5.467  15.060  0.00  0.00    +0.000 C 
BRANCH  15  16
ATOM     16  O   UNL     1       7.686   5.399  14.572  0.00  0.00    +0.000 OA
ATOM     17  H   UNL     1       8.033   4.513  14.773  0.00  0.00    +0.000 HD
ENDBRANCH  15  16
BRANCH  15  18
ATOM     18  C   UNL     1       5.511   4.365  14.357  0.00  0.00    +0.000 C 
BRANCH  18  19
ATOM     19  N   UNL     1       6.322   3.344  13.683  0.00  0.00    +0.000 NA
ATOM     20  H   UNL     1       6.125   2.428  14.089  0.00  0.00    +0.000 HD
BRANCH  19  21
ATOM     21  C   UNL     1       6.114   3.338  12.232  0.00  0.00    +0.000 C 
ATOM     22  C   UNL     1       7.040   2.522  11.378  0.00  0.00    +0.000 C 
ATOM     23  C   UNL     1       5.610   2.099  11.549  0.00  0.00    +0.000 C 
ENDBRANCH  19  21
ENDBRANCH  18  19
ENDBRANCH  15  18
ENDBRANCH   5  15
TORSDOF 8
ENDMDL
MODEL 8
REMARK VINA RESULT:      -6.7      1.328      1.415
REMARK  Name = 
REMARK  9 active torsions:
REMARK  status: ('A' for Active; 'I' for Inactive)
REMARK    1  A    between atoms: C_1  and  S_2
REMARK    2  A    between atoms: S_2  and  N_5
REMARK    3  A    between atoms: N_5  and  C_6
REMARK    4  A    between atoms: C_8  and  O_9
REMARK    5  A    between atoms: C_11  and  C_12
REMARK    6  A    between atoms: C_12  and  O_13
REMARK    7  A    between atoms: C_12  and  C_14
REMARK    8  A    between atoms: C_14  and  N_15
REMARK    9  A    between atoms: N_15  and  C_16
REMARK                            x       y       z     vdW  Elec       q    Type
REMARK                         _______ _______ _______ _____ _____    ______ ____
ROOT
ATOM      1  C   UNL     1       3.760   4.777  18.709  0.00  0.00    +0.000 A 
ATOM      2  C   UNL     1       4.807   4.938  19.613  0.00  0.00    +0.000 A 
ATOM      3  C   UNL     1       6.073   5.243  19.128  0.00  0.00    +0.000 A 
ATOM      4  C   UNL     1       6.304   5.399  17.765  0.00  0.00    +0.000 A 
ATOM      5  C   UNL     1       5.251   5.276  16.846  0.00  0.00    +0.000 A 
ATOM      6  C   UNL     1       3.969   4.971  17.338  0.00  0.00    +0.000 A 
ENDROOT
BRANCH   1   7
ATOM      7  N   UNL     1       2.453   4.456  19.196  0.00  0.00    +0.000 N 
ATOM      8  H   UNL     1       2.125   5.092  19.926  0.00  0.00    +0.000 HD
BRANCH   7  10
ATOM      9  C   UNL     1       0.679   2.470  18.920  0.00  0.00    +0.000 C 
ATOM     10  S   UNL     1       2.208   2.868  19.739  0.00  0.00    +0.000 S 
ATOM     11  O   UNL     1       1.937   2.978  21.155  0.00  0.00    +0.000 OA
ATOM     12  O   UNL     1       3.236   1.991  19.220  0.00  0.00    +0.000 OA
ENDBRANCH   7  10
ENDBRANCH   1   7
BRANCH   3  13
ATOM     13  O   UNL     1       7.143   5.400  19.960  0.00  0.00    +0.000 OA
ATOM     14  H   UNL     1       7.557   6.260  19.778  0.00  0.00    +0.000 HD
ENDBRANCH   3  13
BRANCH   5  15
ATOM     15  C   UNL     1       5.477   5.465  15.356  0.00  0.00    +0.000 C 
BRANCH  15  16
ATOM     16  O   UNL     1       5.341   6.849  15.016  0.00  0.00    +0.000 OA
ATOM     17  H   UNL     1       6.225   7.195  14.809  0.00  0.00    +0.000 HD
ENDBRANCH  15  16
BRANCH  15  18
ATOM     18  C   UNL     1       6.859   4.974  14.855  0.00  0.00    +0.000 C 
BRANCH  18  19
ATOM     19  N   UNL     1       6.881   4.599  13.436  0.00  0.00    +0.000 NA
ATOM     20  H   UNL     1       7.838   4.382  13.155  0.00  0.00    +0.000 HD
BRANCH  19  21
ATOM     21  C   UNL     1       5.976   3.484  13.143  0.00  0.00    +0.000 C 
ATOM     22  C   UNL     1       5.014   3.624  11.999  0.00  0.00    +0.000 C 
ATOM     23  C   UNL     1       6.166   2.667  11.897  0.00  0.00    +0.000 C 
ENDBRANCH  19  21
ENDBRANCH  18  19
ENDBRANCH  15  18
ENDBRANCH   5  15
TORSDOF 8
ENDMDL
MODEL 9
REMARK VINA RESULT:      -6.7      2.330      3.201
REMARK  Name = 
REMARK  9 active torsions:
REMARK  status: ('A' for Active; 'I' for Inactive)
REMARK    1  A    between atoms: C_1  and  S_2
REMARK    2  A    between atoms: S_2  and  N_5
REMARK    3  A    between atoms: N_5  and  C_6
REMARK    4  A    between atoms: C_8  and  O_9
REMARK    5  A    between atoms: C_11  and  C_12
REMARK    6  A    between atoms: C_12  and  O_13
REMARK    7  A    between atoms: C_12  and  C_14
REMARK    8  A    between atoms: C_14  and  N_15
REMARK    9  A    between atoms: N_15  and  C_16
REMARK                            x       y       z     vdW  Elec       q    Type
REMARK                         _______ _______ _______ _____ _____    ______ ____
ROOT
ATOM      1  C   UNL     1       3.199   5.500  19.898  0.00  0.00    +0.000 A 
ATOM      2  C   UNL     1       2.464   6.426  19.162  0.00  0.00    +0.000 A 
ATOM      3  C   UNL     1       3.073   7.066  18.088  0.00  0.00    +0.000 A 
ATOM      4  C   UNL     1       4.389   6.786  17.735  0.00  0.00    +0.000 A 
ATOM      5  C   UNL     1       5.128   5.828  18.445  0.00  0.00    +0.000 A 
ATOM      6  C   UNL     1       4.511   5.179  19.529  0.00  0.00    +0.000 A 
ENDROOT
BRANCH   1   7
ATOM      7  N   UNL     1       2.586   4.841  21.011  0.00  0.00    +0.000 N 
ATOM      8  H   UNL     1       3.089   4.978  21.891  0.00  0.00    +0.000 HD
BRANCH   7  10
ATOM      9  C   UNL     1       0.937   3.212  19.672  0.00  0.00    +0.000 C 
ATOM     10  S   UNL     1       2.278   3.181  20.841  0.00  0.00    +0.000 S 
ATOM     11  O   UNL     1       1.745   2.752  22.116  0.00  0.00    +0.000 OA
ATOM     12  O   UNL     1       3.403   2.518  20.217  0.00  0.00    +0.000 OA
ENDBRANCH   7  10
ENDBRANCH   1   7
BRANCH   3  13
ATOM     13  O   UNL     1       2.412   7.993  17.336  0.00  0.00    +0.000 OA
ATOM     14  H   UNL     1       1.533   7.644  17.111  0.00  0.00    +0.000 HD
ENDBRANCH   3  13
BRANCH   5  15
ATOM     15  C   UNL     1       6.558   5.492  18.060  0.00  0.00    +0.000 C 
BRANCH  15  16
ATOM     16  O   UNL     1       6.813   4.103  18.301  0.00  0.00    +0.000 OA
ATOM     17  H   UNL     1       6.868   3.656  17.440  0.00  0.00    +0.000 HD
ENDBRANCH  15  16
BRANCH  15  18
ATOM     18  C   UNL     1       6.910   5.804  16.584  0.00  0.00    +0.000 C 
BRANCH  18  19
ATOM     19  N   UNL     1       7.429   4.651  15.837  0.00  0.00    +0.000 NA
ATOM     20  H   UNL     1       7.976   4.058  16.462  0.00  0.00    +0.000 HD
BRANCH  19  21
ATOM     21  C   UNL     1       6.362   3.890  15.181  0.00  0.00    +0.000 C 
ATOM     22  C   UNL     1       5.246   4.646  14.518  0.00  0.00    +0.000 C 
ATOM     23  C   UNL     1       6.244   3.896  13.684  0.00  0.00    +0.000 C 
ENDBRANCH  19  21
ENDBRANCH  18  19
ENDBRANCH  15  18
ENDBRANCH   5  15
TORSDOF 8
ENDMDL
