MODEL 1
REMARK VINA RESULT:      -7.2      0.000      0.000
REMARK  Name = 
REMARK  7 active torsions:
REMARK  status: ('A' for Active; 'I' for Inactive)
REMARK    1  A    between atoms: C_1  and  O_2
REMARK    2  A    between atoms: O_2  and  C_3
REMARK    3  A    between atoms: C_9  and  C_10
REMARK    4  A    between atoms: N_12  and  N_13
REMARK    5  A    between atoms: C_14  and  C_16
REMARK    6  A    between atoms: C_16  and  N_17
REMARK    7  A    between atoms: C_18  and  C_20
REMARK                            x       y       z     vdW  Elec       q    Type
REMARK                         _______ _______ _______ _____ _____    ______ ____
ROOT
ATOM      1  N   UNL     1       8.524   7.800  18.771  0.00  0.00    +0.000 N 
ATOM      2  C   UNL     1       8.526   9.144  18.454  0.00  0.00    +0.000 C 
ATOM      3  O   UNL     1       7.675   9.667  17.732  0.00  0.00    +0.000 OA
ATOM      4  H   UNL     1       9.107   7.400  19.508  0.00  0.00    +0.000 HD
ENDROOT
BRANCH   1   7
ATOM      5  C   UNL     1       7.155   5.834  18.892  0.00  0.00    +0.000 C 
ATOM      6  O   UNL     1       7.594   5.549  20.005  0.00  0.00    +0.000 OA
ATOM      7  N   UNL     1       7.528   6.983  18.227  0.00  0.00    +0.000 N 
ATOM      8  H   UNL     1       7.269   7.148  17.253  0.00  0.00    +0.000 HD
BRANCH   5  15
ATOM      9  C   UNL     1       6.257   4.509  16.867  0.00  0.00    +0.000 A 
ATOM     10  C   UNL     1       5.264   3.668  16.338  0.00  0.00    +0.000 A 
ATOM     11  C   UNL     1       4.182   3.263  17.120  0.00  0.00    +0.000 A 
ATOM     12  C   UNL     1       4.090   3.681  18.442  0.00  0.00    +0.000 A 
ATOM     13 CL   UNL     1       2.752   3.180  19.400  0.00  0.00    +0.000 Cl
ATOM     14  C   UNL     1       5.072   4.502  18.990  0.00  0.00    +0.000 A 
ATOM     15  C   UNL     1       6.169   4.926  18.213  0.00  0.00    +0.000 A 
BRANCH   9  17
ATOM     16  C   UNL     1       7.166   4.995  14.720  0.00  0.00    +0.000 C 
ATOM     17  O   UNL     1       7.343   4.910  16.133  0.00  0.00    +0.000 OA
ENDBRANCH   9  17
ENDBRANCH   5  15
ENDBRANCH   1   7
BRANCH   2  18
ATOM     18  C   UNL     1       9.618   9.953  19.151  0.00  0.00    +0.000 C 
BRANCH  18  19
ATOM     19  N   UNL     1       9.702  11.295  18.613  0.00  0.00    +0.000 N 
ATOM     20  C   UNL     1      10.907  11.942  18.478  0.00  0.00    +0.000 C 
ATOM     21  O   UNL     1      11.965  11.404  18.797  0.00  0.00    +0.000 OA
ATOM     22  H   UNL     1       8.853  11.826  18.442  0.00  0.00    +0.000 HD
BRANCH  20  23
ATOM     23  C   UNL     1      10.815  13.284  17.939  0.00  0.00    +0.000 A 
ATOM     24  C   UNL     1      11.544  13.915  16.946  0.00  0.00    +0.000 A 
ATOM     25  C   UNL     1      11.028  15.227  16.831  0.00  0.00    +0.000 A 
ATOM     26  C   UNL     1      10.014  15.321  17.756  0.00  0.00    +0.000 A 
ATOM     27  O   UNL     1       9.874  14.151  18.431  0.00  0.00    +0.000 OA
ENDBRANCH  20  23
ENDBRANCH  18  19
ENDBRANCH   2  18
TORSDOF 6
ENDMDL
MODEL 2
REMARK VINA RESULT:      -7.2      6.561      9.171
REMARK  Name = 
REMARK  7 active torsions:
REMARK  status: ('A' for Active; 'I' for Inactive)
REMARK    1  A    between atoms: C_1  and  O_2
REMARK    2  A    between atoms: O_2  and  C_3
REMARK    3  A    between atoms: C_9  and  C_10
REMARK    4  A    between atoms: N_12  and  N_13
REMARK    5  A    between atoms: C_14  and  C_16
REMARK    6  A    between atoms: C_16  and  N_17
REMARK    7  A    between atoms: C_18  and  C_20
REMARK                            x       y       z     vdW  Elec       q    Type
REMARK                         _______ _______ _______ _____ _____    ______ ____
ROOT
ATOM      1  N   UNL     1       2.773   6.524  20.252  0.00  0.00    +0.000 N 
ATOM      2  C   UNL     1       2.375   5.203  20.212  0.00  0.00    +0.000 C 
ATOM      3  O   UNL     1       1.195   4.853  20.276  0.00  0.00    +0.000 OA
ATOM      4  H   UNL     1       3.719   6.828  20.016  0.00  0.00    +0.000 HD
ENDROOT
BRANCH   1   7
ATOM      5  C   UNL     1       1.672   8.491  19.433  0.00  0.00    +0.000 C 
ATOM      6  O   UNL     1       2.319   8.466  18.387  0.00  0.00    +0.000 OA
ATOM      7  N   UNL     1       1.799   7.515  20.399  0.00  0.00    +0.000 N 
ATOM      8  H   UNL     1       1.364   7.611  21.318  0.00  0.00    +0.000 HD
BRANCH   5  15
ATOM      9  C   UNL     1       0.443  10.172  20.957  0.00  0.00    +0.000 A 
ATOM     10  C   UNL     1      -0.507  11.201  21.076  0.00  0.00    +0.000 A 
ATOM     11  C   UNL     1      -1.220  11.645  19.962  0.00  0.00    +0.000 A 
ATOM     12  C   UNL     1      -0.979  11.078  18.716  0.00  0.00    +0.000 A 
ATOM     13 CL   UNL     1      -1.863  11.629  17.348  0.00  0.00    +0.000 Cl
ATOM     14  C   UNL     1      -0.030  10.069  18.575  0.00  0.00    +0.000 A 
ATOM     15  C   UNL     1       0.695   9.603  19.690  0.00  0.00    +0.000 A 
BRANCH   9  17
ATOM     16  C   UNL     1       0.452   9.436  23.222  0.00  0.00    +0.000 C 
ATOM     17  O   UNL     1       1.174   9.725  22.028  0.00  0.00    +0.000 OA
ENDBRANCH   9  17
ENDBRANCH   5  15
ENDBRANCH   1   7
BRANCH   2  18
ATOM     18  C   UNL     1       3.513   4.209  19.986  0.00  0.00    +0.000 C 
BRANCH  18  19
ATOM     19  N   UNL     1       4.077   4.350  18.660  0.00  0.00    +0.000 N 
ATOM     20  C   UNL     1       5.435   4.418  18.461  0.00  0.00    +0.000 C 
ATOM     21  O   UNL     1       6.228   4.350  19.398  0.00  0.00    +0.000 OA
ATOM     22  H   UNL     1       3.469   4.525  17.866  0.00  0.00    +0.000 HD
BRANCH  20  23
ATOM     23  C   UNL     1       5.836   4.574  17.076  0.00  0.00    +0.000 A 
ATOM     24  C   UNL     1       7.090   4.633  16.495  0.00  0.00    +0.000 A 
ATOM     25  C   UNL     1       6.890   4.795  15.104  0.00  0.00    +0.000 A 
ATOM     26  C   UNL     1       5.528   4.825  14.916  0.00  0.00    +0.000 A 
ATOM     27  O   UNL     1       4.879   4.689  16.101  0.00  0.00    +0.000 OA
ENDBRANCH  20  23
ENDBRANCH  18  19
ENDBRANCH   2  18
TORSDOF 6
ENDMDL
MODEL 3
REMARK VINA RESULT:      -7.0      6.135      9.087
REMARK  Name = 
REMARK  7 active torsions:
REMARK  status: ('A' for Active; 'I' for Inactive)
REMARK    1  A    between atoms: C_1  and  O_2
REMARK    2  A    between atoms: O_2  and  C_3
REMARK    3  A    between atoms: C_9  and  C_10
REMARK    4  A    between atoms: N_12  and  N_13
REMARK    5  A    between atoms: C_14  and  C_16
REMARK    6  A    between atoms: C_16  and  N_17
REMARK    7  A    between atoms: C_18  and  C_20
REMARK                            x       y       z     vdW  Elec       q    Type
REMARK                         _______ _______ _______ _____ _____    ______ ____
ROOT
ATOM      1  N   UNL     1       2.599   5.620  20.706  0.00  0.00    +0.000 N 
ATOM      2  C   UNL     1       1.987   4.396  20.521  0.00  0.00    +0.000 C 
ATOM      3  O   UNL     1       0.764   4.256  20.467  0.00  0.00    +0.000 OA
ATOM      4  H   UNL     1       3.600   5.769  20.568  0.00  0.00    +0.000 HD
ENDROOT
BRANCH   1   7
ATOM      5  C   UNL     1       1.893   7.786  19.957  0.00  0.00    +0.000 C 
ATOM      6  O   UNL     1       2.587   7.705  18.944  0.00  0.00    +0.000 OA
ATOM      7  N   UNL     1       1.798   6.754  20.866  0.00  0.00    +0.000 N 
ATOM      8  H   UNL     1       1.333   6.875  21.767  0.00  0.00    +0.000 HD
BRANCH   5  15
ATOM      9  C   UNL     1       1.021  10.142  19.362  0.00  0.00    +0.000 A 
ATOM     10  C   UNL     1       0.260  11.261  19.737  0.00  0.00    +0.000 A 
ATOM     11  C   UNL     1      -0.393  11.299  20.970  0.00  0.00    +0.000 A 
ATOM     12  C   UNL     1      -0.304  10.213  21.832  0.00  0.00    +0.000 A 
ATOM     13 CL   UNL     1      -1.109  10.267  23.352  0.00  0.00    +0.000 Cl
ATOM     14  C   UNL     1       0.432   9.087  21.472  0.00  0.00    +0.000 A 
ATOM     15  C   UNL     1       1.103   9.034  20.234  0.00  0.00    +0.000 A 
BRANCH   9  17
ATOM     16  C   UNL     1       2.422  11.200  17.753  0.00  0.00    +0.000 C 
ATOM     17  O   UNL     1       1.659  10.064  18.150  0.00  0.00    +0.000 OA
ENDBRANCH   9  17
ENDBRANCH   5  15
ENDBRANCH   1   7
BRANCH   2  18
ATOM     18  C   UNL     1       2.955   3.236  20.295  0.00  0.00    +0.000 C 
BRANCH  18  19
ATOM     19  N   UNL     1       4.119   3.662  19.547  0.00  0.00    +0.000 N 
ATOM     20  C   UNL     1       4.151   3.605  18.174  0.00  0.00    +0.000 C 
ATOM     21  O   UNL     1       3.189   3.202  17.524  0.00  0.00    +0.000 OA
ATOM     22  H   UNL     1       4.978   3.895  20.035  0.00  0.00    +0.000 HD
BRANCH  20  23
ATOM     23  C   UNL     1       5.394   4.054  17.579  0.00  0.00    +0.000 A 
ATOM     24  C   UNL     1       5.723   4.333  16.264  0.00  0.00    +0.000 A 
ATOM     25  C   UNL     1       7.080   4.732  16.257  0.00  0.00    +0.000 A 
ATOM     26  C   UNL     1       7.501   4.676  17.565  0.00  0.00    +0.000 A 
ATOM     27  O   UNL     1       6.489   4.270  18.375  0.00  0.00    +0.000 OA
ENDBRANCH  20  23
ENDBRANCH  18  19
ENDBRANCH   2  18
TORSDOF 6
ENDMDL
MODEL 4
REMARK VINA RESULT:      -7.0      6.303      9.057
REMARK  Name = 
REMARK  7 active torsions:
REMARK  status: ('A' for Active; 'I' for Inactive)
REMARK    1  A    between atoms: C_1  and  O_2
REMARK    2  A    between atoms: O_2  and  C_3
REMARK    3  A    between atoms: C_9  and  C_10
REMARK    4  A    between atoms: N_12  and  N_13
REMARK    5  A    between atoms: C_14  and  C_16
REMARK    6  A    between atoms: C_16  and  N_17
REMARK    7  A    between atoms: C_18  and  C_20
REMARK                            x       y       z     vdW  Elec       q    Type
REMARK                         _______ _______ _______ _____ _____    ______ ____
ROOT
ATOM      1  N   UNL     1       2.909   7.351  19.273  0.00  0.00    +0.000 N 
ATOM      2  C   UNL     1       2.853   6.030  19.671  0.00  0.00    +0.000 C 
ATOM      3  O   UNL     1       1.810   5.475  20.022  0.00  0.00    +0.000 OA
ATOM      4  H   UNL     1       3.722   7.760  18.810  0.00  0.00    +0.000 HD
ENDROOT
BRANCH   1   7
ATOM      5  C   UNL     1       1.502   9.028  18.292  0.00  0.00    +0.000 C 
ATOM      6  O   UNL     1       2.245   9.137  17.318  0.00  0.00    +0.000 OA
ATOM      7  N   UNL     1       1.734   8.108  19.294  0.00  0.00    +0.000 N 
ATOM      8  H   UNL     1       1.196   8.113  20.162  0.00  0.00    +0.000 HD
BRANCH   5  15
ATOM      9  C   UNL     1       0.129  10.922  19.383  0.00  0.00    +0.000 A 
ATOM     10  C   UNL     1      -1.062  11.667  19.412  0.00  0.00    +0.000 A 
ATOM     11  C   UNL     1      -2.096  11.394  18.516  0.00  0.00    +0.000 A 
ATOM     12  C   UNL     1      -1.945  10.384  17.573  0.00  0.00    +0.000 A 
ATOM     13 CL   UNL     1      -3.225  10.050  16.474  0.00  0.00    +0.000 Cl
ATOM     14  C   UNL     1      -0.766   9.645  17.518  0.00  0.00    +0.000 A 
ATOM     15  C   UNL     1       0.287   9.903  18.418  0.00  0.00    +0.000 A 
BRANCH   9  17
ATOM     16  C   UNL     1       1.365  12.535  20.624  0.00  0.00    +0.000 C 
ATOM     17  O   UNL     1       1.172  11.177  20.235  0.00  0.00    +0.000 OA
ENDBRANCH   9  17
ENDBRANCH   5  15
ENDBRANCH   1   7
BRANCH   2  18
ATOM     18  C   UNL     1       4.179   5.280  19.550  0.00  0.00    +0.000 C 
BRANCH  18  19
ATOM     19  N   UNL     1       4.566   5.119  18.165  0.00  0.00    +0.000 N 
ATOM     20  C   UNL     1       5.829   4.703  17.815  0.00  0.00    +0.000 C 
ATOM     21  O   UNL     1       6.678   4.440  18.664  0.00  0.00    +0.000 OA
ATOM     22  H   UNL     1       3.945   5.430  17.425  0.00  0.00    +0.000 HD
BRANCH  20  23
ATOM     23  C   UNL     1       6.060   4.607  16.387  0.00  0.00    +0.000 A 
ATOM     24  C   UNL     1       5.224   4.216  15.356  0.00  0.00    +0.000 A 
ATOM     25  C   UNL     1       5.975   4.313  14.161  0.00  0.00    +0.000 A 
ATOM     26  C   UNL     1       7.223   4.758  14.530  0.00  0.00    +0.000 A 
ATOM     27  O   UNL     1       7.287   4.942  15.874  0.00  0.00    +0.000 OA
ENDBRANCH  20  23
ENDBRANCH  18  19
ENDBRANCH   2  18
TORSDOF 6
ENDMDL
MODEL 5
REMARK VINA RESULT:      -7.0      6.890      9.002
REMARK  Name = 
REMARK  7 active torsions:
REMARK  status: ('A' for Active; 'I' for Inactive)
REMARK    1  A    between atoms: C_1  and  O_2
REMARK    2  A    between atoms: O_2  and  C_3
REMARK    3  A    between atoms: C_9  and  C_10
REMARK    4  A    between atoms: N_12  and  N_13
REMARK    5  A    between atoms: C_14  and  C_16
REMARK    6  A    between atoms: C_16  and  N_17
REMARK    7  A    between atoms: C_18  and  C_20
REMARK                            x       y       z     vdW  Elec       q    Type
REMARK                         _______ _______ _______ _____ _____    ______ ____
ROOT
ATOM      1  N   UNL     1       1.431   8.951  20.431  0.00  0.00    +0.000 N 
ATOM      2  C   UNL     1       0.188   9.237  20.960  0.00  0.00    +0.000 C 
ATOM      3  O   UNL     1      -0.476   8.421  21.600  0.00  0.00    +0.000 OA
ATOM      4  H   UNL     1       2.059   9.667  20.064  0.00  0.00    +0.000 HD
ENDROOT
BRANCH   1   7
ATOM      5  C   UNL     1       2.425   6.971  19.509  0.00  0.00    +0.000 C 
ATOM      6  O   UNL     1       2.498   7.481  18.392  0.00  0.00    +0.000 OA
ATOM      7  N   UNL     1       1.954   7.666  20.604  0.00  0.00    +0.000 N 
ATOM      8  H   UNL     1       1.768   7.202  21.494  0.00  0.00    +0.000 HD
BRANCH   5  15
ATOM      9  C   UNL     1       4.008   4.969  19.130  0.00  0.00    +0.000 A 
ATOM     10  C   UNL     1       4.313   3.623  19.394  0.00  0.00    +0.000 A 
ATOM     11  C   UNL     1       3.487   2.852  20.214  0.00  0.00    +0.000 A 
ATOM     12  C   UNL     1       2.358   3.423  20.789  0.00  0.00    +0.000 A 
ATOM     13 CL   UNL     1       1.342   2.467  21.796  0.00  0.00    +0.000 Cl
ATOM     14  C   UNL     1       2.048   4.760  20.553  0.00  0.00    +0.000 A 
ATOM     15  C   UNL     1       2.867   5.551  19.723  0.00  0.00    +0.000 A 
BRANCH   9  17
ATOM     16  C   UNL     1       5.489   5.116  17.271  0.00  0.00    +0.000 C 
ATOM     17  O   UNL     1       4.808   5.759  18.346  0.00  0.00    +0.000 OA
ENDBRANCH   9  17
ENDBRANCH   5  15
ENDBRANCH   1   7
BRANCH   2  18
ATOM     18  C   UNL     1      -0.259  10.685  20.767  0.00  0.00    +0.000 C 
BRANCH  18  19
ATOM     19  N   UNL     1      -1.307  10.783  19.772  0.00  0.00    +0.000 N 
ATOM     20  C   UNL     1      -1.074  10.482  18.451  0.00  0.00    +0.000 C 
ATOM     21  O   UNL     1       0.029  10.106  18.061  0.00  0.00    +0.000 OA
ATOM     22  H   UNL     1      -2.201  11.195  20.017  0.00  0.00    +0.000 HD
BRANCH  20  23
ATOM     23  C   UNL     1      -2.223  10.645  17.582  0.00  0.00    +0.000 A 
ATOM     24  C   UNL     1      -3.512  11.068  17.852  0.00  0.00    +0.000 A 
ATOM     25  C   UNL     1      -4.220  11.033  16.627  0.00  0.00    +0.000 A 
ATOM     26  C   UNL     1      -3.323  10.594  15.681  0.00  0.00    +0.000 A 
ATOM     27  O   UNL     1      -2.111  10.359  16.246  0.00  0.00    +0.000 OA
ENDBRANCH  20  23
ENDBRANCH  18  19
ENDBRANCH   2  18
TORSDOF 6
ENDMDL
MODEL 6
REMARK VINA RESULT:      -6.9      7.128      9.074
REMARK  Name = 
REMARK  7 active torsions:
REMARK  status: ('A' for Active; 'I' for Inactive)
REMARK    1  A    between atoms: C_1  and  O_2
REMARK    2  A    between atoms: O_2  and  C_3
REMARK    3  A    between atoms: C_9  and  C_10
REMARK    4  A    between atoms: N_12  and  N_13
REMARK    5  A    between atoms: C_14  and  C_16
REMARK    6  A    between atoms: C_16  and  N_17
REMARK    7  A    between atoms: C_18  and  C_20
REMARK                            x       y       z     vdW  Elec       q    Type
REMARK                         _______ _______ _______ _____ _____    ______ ____
ROOT
ATOM      1  N   UNL     1       1.437   8.852  20.105  0.00  0.00    +0.000 N 
ATOM      2  C   UNL     1       0.249   9.177  20.731  0.00  0.00    +0.000 C 
ATOM      3  O   UNL     1      -0.312   8.433  21.537  0.00  0.00    +0.000 OA
ATOM      4  H   UNL     1       1.997   9.529  19.586  0.00  0.00    +0.000 HD
ENDROOT
BRANCH   1   7
ATOM      5  C   UNL     1       2.395   6.794  19.329  0.00  0.00    +0.000 C 
ATOM      6  O   UNL     1       2.330   7.161  18.157  0.00  0.00    +0.000 OA
ATOM      7  N   UNL     1       2.020   7.610  20.376  0.00  0.00    +0.000 N 
ATOM      8  H   UNL     1       1.947   7.257  21.331  0.00  0.00    +0.000 HD
BRANCH   5  15
ATOM      9  C   UNL     1       4.117   4.877  19.183  0.00  0.00    +0.000 A 
ATOM     10  C   UNL     1       4.484   3.573  19.556  0.00  0.00    +0.000 A 
ATOM     11  C   UNL     1       3.655   2.805  20.374  0.00  0.00    +0.000 A 
ATOM     12  C   UNL     1       2.459   3.338  20.840  0.00  0.00    +0.000 A 
ATOM     13 CL   UNL     1       1.440   2.385  21.846  0.00  0.00    +0.000 Cl
ATOM     14  C   UNL     1       2.085   4.634  20.495  0.00  0.00    +0.000 A 
ATOM     15  C   UNL     1       2.907   5.421  19.665  0.00  0.00    +0.000 A 
BRANCH   9  17
ATOM     16  C   UNL     1       6.115   5.071  17.902  0.00  0.00    +0.000 C 
ATOM     17  O   UNL     1       4.917   5.665  18.396  0.00  0.00    +0.000 OA
ENDBRANCH   9  17
ENDBRANCH   5  15
ENDBRANCH   1   7
BRANCH   2  18
ATOM     18  C   UNL     1      -0.266  10.579  20.412  0.00  0.00    +0.000 C 
BRANCH  18  19
ATOM     19  N   UNL     1      -1.293  10.541  19.392  0.00  0.00    +0.000 N 
ATOM     20  C   UNL     1      -1.384  11.516  18.427  0.00  0.00    +0.000 C 
ATOM     21  O   UNL     1      -0.592  12.453  18.383  0.00  0.00    +0.000 OA
ATOM     22  H   UNL     1      -2.039   9.855  19.449  0.00  0.00    +0.000 HD
BRANCH  20  23
ATOM     23  C   UNL     1      -2.477  11.339  17.491  0.00  0.00    +0.000 A 
ATOM     24  C   UNL     1      -2.500  10.812  16.212  0.00  0.00    +0.000 A 
ATOM     25  C   UNL     1      -3.839  10.888  15.762  0.00  0.00    +0.000 A 
ATOM     26  C   UNL     1      -4.556  11.454  16.790  0.00  0.00    +0.000 A 
ATOM     27  O   UNL     1      -3.743  11.729  17.843  0.00  0.00    +0.000 OA
ENDBRANCH  20  23
ENDBRANCH  18  19
ENDBRANCH   2  18
TORSDOF 6
ENDMDL
MODEL 7
REMARK VINA RESULT:      -6.9      7.429      9.391
REMARK  Name = 
REMARK  7 active torsions:
REMARK  status: ('A' for Active; 'I' for Inactive)
REMARK    1  A    between atoms: C_1  and  O_2
REMARK    2  A    between atoms: O_2  and  C_3
REMARK    3  A    between atoms: C_9  and  C_10
REMARK    4  A    between atoms: N_12  and  N_13
REMARK    5  A    between atoms: C_14  and  C_16
REMARK    6  A    between atoms: C_16  and  N_17
REMARK    7  A    between atoms: C_18  and  C_20
REMARK                            x       y       z     vdW  Elec       q    Type
REMARK                         _______ _______ _______ _____ _____    ______ ____
ROOT
ATOM      1  N   UNL     1       0.775   9.573  19.505  0.00  0.00    +0.000 N 
ATOM      2  C   UNL     1       0.603  10.324  20.651  0.00  0.00    +0.000 C 
ATOM      3  O   UNL     1       1.251  10.137  21.682  0.00  0.00    +0.000 OA
ATOM      4  H   UNL     1       0.380   9.837  18.601  0.00  0.00    +0.000 HD
ENDROOT
BRANCH   1   7
ATOM      5  C   UNL     1       2.307   8.144  18.337  0.00  0.00    +0.000 C 
ATOM      6  O   UNL     1       2.126   8.748  17.281  0.00  0.00    +0.000 OA
ATOM      7  N   UNL     1       1.709   8.533  19.517  0.00  0.00    +0.000 N 
ATOM      8  H   UNL     1       1.753   7.954  20.357  0.00  0.00    +0.000 HD
BRANCH   5  15
ATOM      9  C   UNL     1       3.061   5.855  19.261  0.00  0.00    +0.000 A 
ATOM     10  C   UNL     1       3.982   4.795  19.215  0.00  0.00    +0.000 A 
ATOM     11  C   UNL     1       5.055   4.821  18.325  0.00  0.00    +0.000 A 
ATOM     12  C   UNL     1       5.211   5.900  17.461  0.00  0.00    +0.000 A 
ATOM     13 CL   UNL     1       6.538   5.928  16.368  0.00  0.00    +0.000 Cl
ATOM     14  C   UNL     1       4.299   6.952  17.480  0.00  0.00    +0.000 A 
ATOM     15  C   UNL     1       3.213   6.945  18.377  0.00  0.00    +0.000 A 
BRANCH   9  17
ATOM     16  C   UNL     1       1.742   4.647  20.834  0.00  0.00    +0.000 C 
ATOM     17  O   UNL     1       1.984   5.851  20.110  0.00  0.00    +0.000 OA
ENDBRANCH   9  17
ENDBRANCH   5  15
ENDBRANCH   1   7
BRANCH   2  18
ATOM     18  C   UNL     1      -0.395  11.471  20.507  0.00  0.00    +0.000 C 
BRANCH  18  19
ATOM     19  N   UNL     1      -1.388  11.179  19.495  0.00  0.00    +0.000 N 
ATOM     20  C   UNL     1      -1.513  11.953  18.366  0.00  0.00    +0.000 C 
ATOM     21  O   UNL     1      -0.779  12.917  18.162  0.00  0.00    +0.000 OA
ATOM     22  H   UNL     1      -2.092  10.468  19.666  0.00  0.00    +0.000 HD
BRANCH  20  23
ATOM     23  C   UNL     1      -2.565  11.535  17.460  0.00  0.00    +0.000 A 
ATOM     24  C   UNL     1      -2.508  10.883  16.241  0.00  0.00    +0.000 A 
ATOM     25  C   UNL     1      -3.842  10.731  15.796  0.00  0.00    +0.000 A 
ATOM     26  C   UNL     1      -4.636  11.295  16.767  0.00  0.00    +0.000 A 
ATOM     27  O   UNL     1      -3.875  11.784  17.780  0.00  0.00    +0.000 OA
ENDBRANCH  20  23
ENDBRANCH  18  19
ENDBRANCH   2  18
TORSDOF 6
ENDMDL
MODEL 8
REMARK VINA RESULT:      -6.9      6.381      9.261
REMARK  Name = 
REMARK  7 active torsions:
REMARK  status: ('A' for Active; 'I' for Inactive)
REMARK    1  A    between atoms: C_1  and  O_2
REMARK    2  A    between atoms: O_2  and  C_3
REMARK    3  A    between atoms: C_9  and  C_10
REMARK    4  A    between atoms: N_12  and  N_13
REMARK    5  A    between atoms: C_14  and  C_16
REMARK    6  A    between atoms: C_16  and  N_17
REMARK    7  A    between atoms: C_18  and  C_20
REMARK                            x       y       z     vdW  Elec       q    Type
REMARK                         _______ _______ _______ _____ _____    ______ ____
ROOT
ATOM      1  N   UNL     1       2.849   6.436  19.997  0.00  0.00    +0.000 N 
ATOM      2  C   UNL     1       2.289   5.209  20.292  0.00  0.00    +0.000 C 
ATOM      3  O   UNL     1       1.154   5.080  20.754  0.00  0.00    +0.000 OA
ATOM      4  H   UNL     1       3.704   6.542  19.449  0.00  0.00    +0.000 HD
ENDROOT
BRANCH   1   7
ATOM      5  C   UNL     1       1.762   8.427  19.214  0.00  0.00    +0.000 C 
ATOM      6  O   UNL     1       1.995   8.139  18.041  0.00  0.00    +0.000 OA
ATOM      7  N   UNL     1       2.107   7.593  20.257  0.00  0.00    +0.000 N 
ATOM      8  H   UNL     1       2.036   7.894  21.230  0.00  0.00    +0.000 HD
BRANCH   5  15
ATOM      9  C   UNL     1       0.049   9.849  20.519  0.00  0.00    +0.000 A 
ATOM     10  C   UNL     1      -0.535  11.108  20.739  0.00  0.00    +0.000 A 
ATOM     11  C   UNL     1      -0.133  12.219  19.998  0.00  0.00    +0.000 A 
ATOM     12  C   UNL     1       0.867  12.088  19.041  0.00  0.00    +0.000 A 
ATOM     13 CL   UNL     1       1.355  13.461  18.129  0.00  0.00    +0.000 Cl
ATOM     14  C   UNL     1       1.468  10.852  18.819  0.00  0.00    +0.000 A 
ATOM     15  C   UNL     1       1.071   9.717  19.554  0.00  0.00    +0.000 A 
BRANCH   9  17
ATOM     16  C   UNL     1      -0.504   8.924  22.643  0.00  0.00    +0.000 C 
ATOM     17  O   UNL     1      -0.309   8.740  21.242  0.00  0.00    +0.000 OA
ENDBRANCH   9  17
ENDBRANCH   5  15
ENDBRANCH   1   7
BRANCH   2  18
ATOM     18  C   UNL     1       3.159   4.013  19.911  0.00  0.00    +0.000 C 
BRANCH  18  19
ATOM     19  N   UNL     1       3.770   4.201  18.612  0.00  0.00    +0.000 N 
ATOM     20  C   UNL     1       5.135   4.173  18.449  0.00  0.00    +0.000 C 
ATOM     21  O   UNL     1       5.892   3.974  19.395  0.00  0.00    +0.000 OA
ATOM     22  H   UNL     1       3.201   4.482  17.820  0.00  0.00    +0.000 HD
BRANCH  20  23
ATOM     23  C   UNL     1       5.586   4.394  17.089  0.00  0.00    +0.000 A 
ATOM     24  C   UNL     1       5.153   3.856  15.890  0.00  0.00    +0.000 A 
ATOM     25  C   UNL     1       5.953   4.426  14.872  0.00  0.00    +0.000 A 
ATOM     26  C   UNL     1       6.825   5.280  15.506  0.00  0.00    +0.000 A 
ATOM     27  O   UNL     1       6.611   5.271  16.847  0.00  0.00    +0.000 OA
ENDBRANCH  20  23
ENDBRANCH  18  19
ENDBRANCH   2  18
TORSDOF 6
ENDMDL
MODEL 9
REMARK VINA RESULT:      -6.8      6.979      8.384
REMARK  Name = 
REMARK  7 active torsions:
REMARK  status: ('A' for Active; 'I' for Inactive)
REMARK    1  A    between atoms: C_1  and  O_2
REMARK    2  A    between atoms: O_2  and  C_3
REMARK    3  A    between atoms: C_9  and  C_10
REMARK    4  A    between atoms: N_12  and  N_13
REMARK    5  A    between atoms: C_14  and  C_16
REMARK    6  A    between atoms: C_16  and  N_17
REMARK    7  A    between atoms: C_18  and  C_20
REMARK                            x       y       z     vdW  Elec       q    Type
REMARK                         _______ _______ _______ _____ _____    ______ ____
ROOT
ATOM      1  N   UNL     1       2.249   9.476  18.306  0.00  0.00    +0.000 N 
ATOM      2  C   UNL     1       1.019  10.098  18.226  0.00  0.00    +0.000 C 
ATOM      3  O   UNL     1       0.006   9.536  17.808  0.00  0.00    +0.000 OA
ATOM      4  H   UNL     1       3.041   9.869  18.817  0.00  0.00    +0.000 HD
ENDROOT
BRANCH   1   7
ATOM      5  C   UNL     1       2.448   7.136  18.799  0.00  0.00    +0.000 C 
ATOM      6  O   UNL     1       2.325   7.340  20.005  0.00  0.00    +0.000 OA
ATOM      7  N   UNL     1       2.362   8.152  17.870  0.00  0.00    +0.000 N 
ATOM      8  H   UNL     1       2.598   8.002  16.888  0.00  0.00    +0.000 HD
BRANCH   5  15
ATOM      9  C   UNL     1       3.754   5.374  17.438  0.00  0.00    +0.000 A 
ATOM     10  C   UNL     1       3.867   4.040  17.013  0.00  0.00    +0.000 A 
ATOM     11  C   UNL     1       2.926   3.086  17.400  0.00  0.00    +0.000 A 
ATOM     12  C   UNL     1       1.871   3.452  18.228  0.00  0.00    +0.000 A 
ATOM     13 CL   UNL     1       0.712   2.271  18.698  0.00  0.00    +0.000 Cl
ATOM     14  C   UNL     1       1.750   4.766  18.673  0.00  0.00    +0.000 A 
ATOM     15  C   UNL     1       2.688   5.744  18.287  0.00  0.00    +0.000 A 
BRANCH   9  17
ATOM     16  C   UNL     1       5.502   6.049  15.969  0.00  0.00    +0.000 C 
ATOM     17  O   UNL     1       4.672   6.332  17.093  0.00  0.00    +0.000 OA
ENDBRANCH   9  17
ENDBRANCH   5  15
ENDBRANCH   1   7
BRANCH   2  18
ATOM     18  C   UNL     1       0.996  11.519  18.787  0.00  0.00    +0.000 C 
BRANCH  18  19
ATOM     19  N   UNL     1      -0.104  11.700  19.711  0.00  0.00    +0.000 N 
ATOM     20  C   UNL     1       0.112  12.025  21.029  0.00  0.00    +0.000 C 
ATOM     21  O   UNL     1       1.245  12.188  21.475  0.00  0.00    +0.000 OA
ATOM     22  H   UNL     1      -1.050  11.467  19.426  0.00  0.00    +0.000 HD
BRANCH  20  23
ATOM     23  C   UNL     1      -1.094  12.155  21.824  0.00  0.00    +0.000 A 
ATOM     24  C   UNL     1      -1.489  11.514  22.985  0.00  0.00    +0.000 A 
ATOM     25  C   UNL     1      -2.762  12.029  23.324  0.00  0.00    +0.000 A 
ATOM     26  C   UNL     1      -3.071  12.954  22.354  0.00  0.00    +0.000 A 
ATOM     27  O   UNL     1      -2.068  13.042  21.442  0.00  0.00    +0.000 OA
ENDBRANCH  20  23
ENDBRANCH  18  19
ENDBRANCH   2  18
TORSDOF 6
ENDMDL
