MODEL 1
REMARK VINA RESULT:      -8.5      0.000      0.000
REMARK  Name = 
REMARK  8 active torsions:
REMARK  status: ('A' for Active; 'I' for Inactive)
REMARK    1  A    between atoms: C_1  and  O_2
REMARK    2  A    between atoms: O_2  and  C_3
REMARK    3  A    between atoms: C_5  and  N_6
REMARK    4  A    between atoms: C_12  and  C_13
REMARK    5  A    between atoms: C_24  and  O_25
REMARK    6  A    between atoms: O_25  and  C_26
REMARK    7  A    between atoms: C_27  and  O_28
REMARK    8  A    between atoms: O_28  and  C_29
REMARK                            x       y       z     vdW  Elec       q    Type
REMARK                         _______ _______ _______ _____ _____    ______ ____
ROOT
ATOM      1  N   UNL     1       3.919   3.770  17.079  0.00  0.00    +0.000 N 
ATOM      2  C   UNL     1       3.307   4.471  18.108  0.00  0.00    +0.000 A 
ATOM      3  C   UNL     1       2.902   3.707  19.349  0.00  0.00    +0.000 A 
ATOM      4  C   UNL     1       2.312   4.409  20.328  0.00  0.00    +0.000 A 
ATOM      5  N   UNL     1       2.080   5.768  20.173  0.00  0.00    +0.000 N 
ATOM      6  N   UNL     1       1.485   6.620  21.042  0.00  0.00    +0.000 NA
ATOM      7  C   UNL     1       1.476   7.812  20.422  0.00  0.00    +0.000 A 
ATOM      8  C   UNL     1       2.099   7.720  19.153  0.00  0.00    +0.000 A 
ATOM      9  C   UNL     1       2.468   6.409  19.009  0.00  0.00    +0.000 A 
ATOM     10  N   UNL     1       3.085   5.755  17.987  0.00  0.00    +0.000 NA
ATOM     11  H   UNL     1       4.057   2.777  17.235  0.00  0.00    +0.000 HD
ENDROOT
BRANCH   7  12
ATOM     12  C   UNL     1       0.868   9.000  21.037  0.00  0.00    +0.000 A 
ATOM     13  C   UNL     1       0.282   8.922  22.313  0.00  0.00    +0.000 A 
ATOM     14  C   UNL     1      -0.313  10.045  22.897  0.00  0.00    +0.000 A 
ATOM     15  C   UNL     1      -0.324  11.249  22.208  0.00  0.00    +0.000 A 
ATOM     16  F   UNL     1      -0.900  12.322  22.764  0.00  0.00    +0.000 F 
ATOM     17  C   UNL     1       0.248  11.356  20.947  0.00  0.00    +0.000 A 
ATOM     18  C   UNL     1       0.844  10.234  20.364  0.00  0.00    +0.000 A 
ENDBRANCH   7  12
BRANCH   1  21
ATOM     19  C   UNL     1       6.936   5.693  15.983  0.00  0.00    +0.000 A 
ATOM     20  C   UNL     1       5.783   5.330  16.696  0.00  0.00    +0.000 A 
ATOM     21  C   UNL     1       4.965   4.283  16.279  0.00  0.00    +0.000 A 
ATOM     22  C   UNL     1       5.253   3.680  15.057  0.00  0.00    +0.000 A 
ATOM     23  C   UNL     1       6.343   4.088  14.268  0.00  0.00    +0.000 A 
ATOM     24  C   UNL     1       7.214   5.097  14.734  0.00  0.00    +0.000 A 
BRANCH  19  26
ATOM     25  C   UNL     1       7.508   7.071  17.831  0.00  0.00    +0.000 C 
ATOM     26  O   UNL     1       7.783   6.646  16.495  0.00  0.00    +0.000 OA
ENDBRANCH  19  26
BRANCH  23  27
ATOM     27  O   UNL     1       6.408   3.363  13.101  0.00  0.00    +0.000 OA
ATOM     28  C   UNL     1       5.282   3.318  12.240  0.00  0.00    +0.000 C 
ENDBRANCH  23  27
BRANCH  24  29
ATOM     29  O   UNL     1       8.261   5.421  13.914  0.00  0.00    +0.000 OA
ATOM     30  C   UNL     1       8.029   5.813  12.571  0.00  0.00    +0.000 C 
ENDBRANCH  24  29
ENDBRANCH   1  21
TORSDOF 5
ENDMDL
MODEL 2
REMARK VINA RESULT:      -8.4      0.375      2.460
REMARK  Name = 
REMARK  8 active torsions:
REMARK  status: ('A' for Active; 'I' for Inactive)
REMARK    1  A    between atoms: C_1  and  O_2
REMARK    2  A    between atoms: O_2  and  C_3
REMARK    3  A    between atoms: C_5  and  N_6
REMARK    4  A    between atoms: C_12  and  C_13
REMARK    5  A    between atoms: C_24  and  O_25
REMARK    6  A    between atoms: O_25  and  C_26
REMARK    7  A    between atoms: C_27  and  O_28
REMARK    8  A    between atoms: O_28  and  C_29
REMARK                            x       y       z     vdW  Elec       q    Type
REMARK                         _______ _______ _______ _____ _____    ______ ____
ROOT
ATOM      1  N   UNL     1       4.195   3.416  17.129  0.00  0.00    +0.000 N 
ATOM      2  C   UNL     1       3.566   4.173  18.106  0.00  0.00    +0.000 A 
ATOM      3  C   UNL     1       3.159   3.486  19.390  0.00  0.00    +0.000 A 
ATOM      4  C   UNL     1       2.552   4.241  20.317  0.00  0.00    +0.000 A 
ATOM      5  N   UNL     1       2.303   5.584  20.073  0.00  0.00    +0.000 N 
ATOM      6  N   UNL     1       1.690   6.481  20.881  0.00  0.00    +0.000 NA
ATOM      7  C   UNL     1       1.670   7.631  20.186  0.00  0.00    +0.000 A 
ATOM      8  C   UNL     1       2.306   7.466  18.930  0.00  0.00    +0.000 A 
ATOM      9  C   UNL     1       2.694   6.154  18.873  0.00  0.00    +0.000 A 
ATOM     10  N   UNL     1       3.327   5.444  17.901  0.00  0.00    +0.000 NA
ATOM     11  H   UNL     1       4.345   2.437  17.349  0.00  0.00    +0.000 HD
ENDROOT
BRANCH   7  12
ATOM     12  C   UNL     1       1.042   8.848  20.719  0.00  0.00    +0.000 A 
ATOM     13  C   UNL     1       0.607   8.900  22.055  0.00  0.00    +0.000 A 
ATOM     14  C   UNL     1      -0.007  10.048  22.563  0.00  0.00    +0.000 A 
ATOM     15  C   UNL     1      -0.188  11.149  21.738  0.00  0.00    +0.000 A 
ATOM     16  F   UNL     1      -0.783  12.247  22.223  0.00  0.00    +0.000 F 
ATOM     17  C   UNL     1       0.233  11.127  20.415  0.00  0.00    +0.000 A 
ATOM     18  C   UNL     1       0.848   9.979  19.907  0.00  0.00    +0.000 A 
ENDBRANCH   7  12
BRANCH   1  21
ATOM     19  C   UNL     1       6.370   4.025  14.145  0.00  0.00    +0.000 A 
ATOM     20  C   UNL     1       5.460   3.409  15.018  0.00  0.00    +0.000 A 
ATOM     21  C   UNL     1       5.241   3.891  16.306  0.00  0.00    +0.000 A 
ATOM     22  C   UNL     1       6.047   4.935  16.755  0.00  0.00    +0.000 A 
ATOM     23  C   UNL     1       7.038   5.509  15.939  0.00  0.00    +0.000 A 
ATOM     24  C   UNL     1       7.201   5.068  14.607  0.00  0.00    +0.000 A 
BRANCH  19  26
ATOM     25  C   UNL     1       5.226   3.284  12.199  0.00  0.00    +0.000 C 
ATOM     26  O   UNL     1       6.463   3.597  12.843  0.00  0.00    +0.000 OA
ENDBRANCH  19  26
BRANCH  23  27
ATOM     27  O   UNL     1       7.715   6.502  16.607  0.00  0.00    +0.000 OA
ATOM     28  C   UNL     1       7.399   6.776  17.963  0.00  0.00    +0.000 C 
ENDBRANCH  23  27
BRANCH  24  29
ATOM     29  O   UNL     1       8.175   5.693  13.876  0.00  0.00    +0.000 OA
ATOM     30  C   UNL     1       8.081   5.762  12.462  0.00  0.00    +0.000 C 
ENDBRANCH  24  29
ENDBRANCH   1  21
TORSDOF 5
ENDMDL
MODEL 3
REMARK VINA RESULT:      -8.1      1.491      2.971
REMARK  Name = 
REMARK  8 active torsions:
REMARK  status: ('A' for Active; 'I' for Inactive)
REMARK    1  A    between atoms: C_1  and  O_2
REMARK    2  A    between atoms: O_2  and  C_3
REMARK    3  A    between atoms: C_5  and  N_6
REMARK    4  A    between atoms: C_12  and  C_13
REMARK    5  A    between atoms: C_24  and  O_25
REMARK    6  A    between atoms: O_25  and  C_26
REMARK    7  A    between atoms: C_27  and  O_28
REMARK    8  A    between atoms: O_28  and  C_29
REMARK                            x       y       z     vdW  Elec       q    Type
REMARK                         _______ _______ _______ _____ _____    ______ ____
ROOT
ATOM      1  N   UNL     1       4.008   4.236  17.603  0.00  0.00    +0.000 N 
ATOM      2  C   UNL     1       3.359   5.262  18.274  0.00  0.00    +0.000 A 
ATOM      3  C   UNL     1       2.889   5.005  19.689  0.00  0.00    +0.000 A 
ATOM      4  C   UNL     1       2.263   6.013  20.313  0.00  0.00    +0.000 A 
ATOM      5  N   UNL     1       2.052   7.219  19.660  0.00  0.00    +0.000 N 
ATOM      6  N   UNL     1       1.428   8.325  20.127  0.00  0.00    +0.000 NA
ATOM      7  C   UNL     1       1.459   9.207  19.113  0.00  0.00    +0.000 A 
ATOM      8  C   UNL     1       2.138   8.659  17.997  0.00  0.00    +0.000 A 
ATOM      9  C   UNL     1       2.500   7.390  18.361  0.00  0.00    +0.000 A 
ATOM     10  N   UNL     1       3.155   6.410  17.680  0.00  0.00    +0.000 NA
ATOM     11  H   UNL     1       4.129   3.371  18.119  0.00  0.00    +0.000 HD
ENDROOT
BRANCH   7  12
ATOM     12  C   UNL     1       0.837  10.534  19.221  0.00  0.00    +0.000 A 
ATOM     13  C   UNL     1      -0.415  10.686  19.844  0.00  0.00    +0.000 A 
ATOM     14  C   UNL     1      -1.020  11.944  19.934  0.00  0.00    +0.000 A 
ATOM     15  C   UNL     1      -0.377  13.052  19.402  0.00  0.00    +0.000 A 
ATOM     16  F   UNL     1      -0.960  14.255  19.482  0.00  0.00    +0.000 F 
ATOM     17  C   UNL     1       0.860  12.931  18.782  0.00  0.00    +0.000 A 
ATOM     18  C   UNL     1       1.466  11.675  18.693  0.00  0.00    +0.000 A 
ENDBRANCH   7  12
BRANCH   1  21
ATOM     19  C   UNL     1       6.211   4.031  14.585  0.00  0.00    +0.000 A 
ATOM     20  C   UNL     1       5.244   3.695  15.545  0.00  0.00    +0.000 A 
ATOM     21  C   UNL     1       5.095   4.427  16.720  0.00  0.00    +0.000 A 
ATOM     22  C   UNL     1       6.022   5.435  16.980  0.00  0.00    +0.000 A 
ATOM     23  C   UNL     1       7.065   5.730  16.085  0.00  0.00    +0.000 A 
ATOM     24  C   UNL     1       7.162   5.036  14.859  0.00  0.00    +0.000 A 
BRANCH  19  26
ATOM     25  C   UNL     1       5.074   3.491  12.570  0.00  0.00    +0.000 C 
ATOM     26  O   UNL     1       6.241   3.363  13.385  0.00  0.00    +0.000 OA
ENDBRANCH  19  26
BRANCH  23  27
ATOM     27  O   UNL     1       7.859   6.743  16.569  0.00  0.00    +0.000 OA
ATOM     28  C   UNL     1       7.367   7.593  17.593  0.00  0.00    +0.000 C 
ENDBRANCH  23  27
BRANCH  24  29
ATOM     29  O   UNL     1       8.196   5.399  14.037  0.00  0.00    +0.000 OA
ATOM     30  C   UNL     1       7.964   5.664  12.663  0.00  0.00    +0.000 C 
ENDBRANCH  24  29
ENDBRANCH   1  21
TORSDOF 5
ENDMDL
MODEL 4
REMARK VINA RESULT:      -8.1      4.460      9.144
REMARK  Name = 
REMARK  8 active torsions:
REMARK  status: ('A' for Active; 'I' for Inactive)
REMARK    1  A    between atoms: C_1  and  O_2
REMARK    2  A    between atoms: O_2  and  C_3
REMARK    3  A    between atoms: C_5  and  N_6
REMARK    4  A    between atoms: C_12  and  C_13
REMARK    5  A    between atoms: C_24  and  O_25
REMARK    6  A    between atoms: O_25  and  C_26
REMARK    7  A    between atoms: C_27  and  O_28
REMARK    8  A    between atoms: O_28  and  C_29
REMARK                            x       y       z     vdW  Elec       q    Type
REMARK                         _______ _______ _______ _____ _____    ______ ____
ROOT
ATOM      1  N   UNL     1       1.903   6.574  21.024  0.00  0.00    +0.000 N 
ATOM      2  C   UNL     1       2.425   5.830  19.976  0.00  0.00    +0.000 A 
ATOM      3  C   UNL     1       2.164   4.340  19.959  0.00  0.00    +0.000 A 
ATOM      4  C   UNL     1       2.681   3.645  18.936  0.00  0.00    +0.000 A 
ATOM      5  N   UNL     1       3.432   4.286  17.962  0.00  0.00    +0.000 N 
ATOM      6  N   UNL     1       4.038   3.742  16.880  0.00  0.00    +0.000 NA
ATOM      7  C   UNL     1       4.657   4.766  16.267  0.00  0.00    +0.000 A 
ATOM      8  C   UNL     1       4.415   5.980  16.955  0.00  0.00    +0.000 A 
ATOM      9  C   UNL     1       3.641   5.653  18.036  0.00  0.00    +0.000 A 
ATOM     10  N   UNL     1       3.130   6.415  19.041  0.00  0.00    +0.000 NA
ATOM     11  H   UNL     1       1.370   6.059  21.716  0.00  0.00    +0.000 HD
ENDROOT
BRANCH   7  12
ATOM     12  C   UNL     1       5.468   4.568  15.057  0.00  0.00    +0.000 A 
ATOM     13  C   UNL     1       6.715   5.204  14.923  0.00  0.00    +0.000 A 
ATOM     14  C   UNL     1       7.483   5.034  13.767  0.00  0.00    +0.000 A 
ATOM     15  C   UNL     1       7.010   4.227  12.743  0.00  0.00    +0.000 A 
ATOM     16  F   UNL     1       7.743   4.070  11.634  0.00  0.00    +0.000 F 
ATOM     17  C   UNL     1       5.783   3.585  12.849  0.00  0.00    +0.000 A 
ATOM     18  C   UNL     1       5.015   3.754  14.004  0.00  0.00    +0.000 A 
ENDBRANCH   7  12
BRANCH   1  21
ATOM     19  C   UNL     1       0.528   9.954  21.855  0.00  0.00    +0.000 A 
ATOM     20  C   UNL     1       0.856   8.594  21.963  0.00  0.00    +0.000 A 
ATOM     21  C   UNL     1       1.381   7.881  20.888  0.00  0.00    +0.000 A 
ATOM     22  C   UNL     1       1.458   8.526  19.655  0.00  0.00    +0.000 A 
ATOM     23  C   UNL     1       1.043   9.860  19.490  0.00  0.00    +0.000 A 
ATOM     24  C   UNL     1       0.585  10.600  20.602  0.00  0.00    +0.000 A 
BRANCH  19  26
ATOM     25  C   UNL     1      -1.278  10.711  23.201  0.00  0.00    +0.000 C 
ATOM     26  O   UNL     1       0.132  10.651  22.971  0.00  0.00    +0.000 OA
ENDBRANCH  19  26
BRANCH  23  27
ATOM     27  O   UNL     1       1.194  10.266  18.185  0.00  0.00    +0.000 OA
ATOM     28  C   UNL     1       2.306  11.070  17.824  0.00  0.00    +0.000 C 
ENDBRANCH  23  27
BRANCH  24  29
ATOM     29  O   UNL     1       0.219  11.897  20.357  0.00  0.00    +0.000 OA
ATOM     30  C   UNL     1      -1.059  12.195  19.820  0.00  0.00    +0.000 C 
ENDBRANCH  24  29
ENDBRANCH   1  21
TORSDOF 5
ENDMDL
MODEL 5
REMARK VINA RESULT:      -8.1      1.926      3.394
REMARK  Name = 
REMARK  8 active torsions:
REMARK  status: ('A' for Active; 'I' for Inactive)
REMARK    1  A    between atoms: C_1  and  O_2
REMARK    2  A    between atoms: O_2  and  C_3
REMARK    3  A    between atoms: C_5  and  N_6
REMARK    4  A    between atoms: C_12  and  C_13
REMARK    5  A    between atoms: C_24  and  O_25
REMARK    6  A    between atoms: O_25  and  C_26
REMARK    7  A    between atoms: C_27  and  O_28
REMARK    8  A    between atoms: O_28  and  C_29
REMARK                            x       y       z     vdW  Elec       q    Type
REMARK                         _______ _______ _______ _____ _____    ______ ____
ROOT
ATOM      1  N   UNL     1       3.776   4.616  17.732  0.00  0.00    +0.000 N 
ATOM      2  C   UNL     1       3.159   5.723  18.297  0.00  0.00    +0.000 A 
ATOM      3  C   UNL     1       2.635   5.604  19.711  0.00  0.00    +0.000 A 
ATOM      4  C   UNL     1       2.042   6.687  20.232  0.00  0.00    +0.000 A 
ATOM      5  N   UNL     1       1.912   7.845  19.478  0.00  0.00    +0.000 N 
ATOM      6  N   UNL     1       1.331   9.015  19.835  0.00  0.00    +0.000 NA
ATOM      7  C   UNL     1       1.437   9.809  18.756  0.00  0.00    +0.000 A 
ATOM      8  C   UNL     1       2.121   9.141  17.710  0.00  0.00    +0.000 A 
ATOM      9  C   UNL     1       2.407   7.889  18.186  0.00  0.00    +0.000 A 
ATOM     10  N   UNL     1       3.032   6.828  17.608  0.00  0.00    +0.000 NA
ATOM     11  H   UNL     1       3.838   3.791  18.319  0.00  0.00    +0.000 HD
ENDROOT
BRANCH   7  12
ATOM     12  C   UNL     1       0.879  11.169  18.736  0.00  0.00    +0.000 A 
ATOM     13  C   UNL     1       1.730  12.288  18.699  0.00  0.00    +0.000 A 
ATOM     14  C   UNL     1       1.206  13.584  18.698  0.00  0.00    +0.000 A 
ATOM     15  C   UNL     1      -0.168  13.767  18.734  0.00  0.00    +0.000 A 
ATOM     16  F   UNL     1      -0.669  15.008  18.741  0.00  0.00    +0.000 F 
ATOM     17  C   UNL     1      -1.032  12.680  18.771  0.00  0.00    +0.000 A 
ATOM     18  C   UNL     1      -0.510  11.384  18.771  0.00  0.00    +0.000 A 
ENDBRANCH   7  12
BRANCH   1  21
ATOM     19  C   UNL     1       6.042   4.090  14.801  0.00  0.00    +0.000 A 
ATOM     20  C   UNL     1       5.029   3.875  15.748  0.00  0.00    +0.000 A 
ATOM     21  C   UNL     1       4.898   4.683  16.875  0.00  0.00    +0.000 A 
ATOM     22  C   UNL     1       5.883   5.640  17.106  0.00  0.00    +0.000 A 
ATOM     23  C   UNL     1       6.969   5.813  16.229  0.00  0.00    +0.000 A 
ATOM     24  C   UNL     1       7.052   5.044  15.048  0.00  0.00    +0.000 A 
BRANCH  19  26
ATOM     25  C   UNL     1       4.979   3.588  12.737  0.00  0.00    +0.000 C 
ATOM     26  O   UNL     1       6.060   3.353  13.642  0.00  0.00    +0.000 OA
ENDBRANCH  19  26
BRANCH  23  27
ATOM     27  O   UNL     1       7.816   6.797  16.680  0.00  0.00    +0.000 OA
ATOM     28  C   UNL     1       7.320   7.812  17.539  0.00  0.00    +0.000 C 
ENDBRANCH  23  27
BRANCH  24  29
ATOM     29  O   UNL     1       8.130   5.289  14.240  0.00  0.00    +0.000 OA
ATOM     30  C   UNL     1       7.944   5.662  12.884  0.00  0.00    +0.000 C 
ENDBRANCH  24  29
ENDBRANCH   1  21
TORSDOF 5
ENDMDL
MODEL 6
REMARK VINA RESULT:      -8.0      4.590      9.502
REMARK  Name = 
REMARK  8 active torsions:
REMARK  status: ('A' for Active; 'I' for Inactive)
REMARK    1  A    between atoms: C_1  and  O_2
REMARK    2  A    between atoms: O_2  and  C_3
REMARK    3  A    between atoms: C_5  and  N_6
REMARK    4  A    between atoms: C_12  and  C_13
REMARK    5  A    between atoms: C_24  and  O_25
REMARK    6  A    between atoms: O_25  and  C_26
REMARK    7  A    between atoms: C_27  and  O_28
REMARK    8  A    between atoms: O_28  and  C_29
REMARK                            x       y       z     vdW  Elec       q    Type
REMARK                         _______ _______ _______ _____ _____    ______ ____
ROOT
ATOM      1  N   UNL     1       1.971   6.847  20.858  0.00  0.00    +0.000 N 
ATOM      2  C   UNL     1       2.485   6.061  19.837  0.00  0.00    +0.000 A 
ATOM      3  C   UNL     1       2.221   4.572  19.881  0.00  0.00    +0.000 A 
ATOM      4  C   UNL     1       2.731   3.836  18.883  0.00  0.00    +0.000 A 
ATOM      5  N   UNL     1       3.478   4.438  17.880  0.00  0.00    +0.000 N 
ATOM      6  N   UNL     1       4.077   3.850  16.817  0.00  0.00    +0.000 NA
ATOM      7  C   UNL     1       4.694   4.848  16.160  0.00  0.00    +0.000 A 
ATOM      8  C   UNL     1       4.458   6.089  16.802  0.00  0.00    +0.000 A 
ATOM      9  C   UNL     1       3.690   5.806  17.900  0.00  0.00    +0.000 A 
ATOM     10  N   UNL     1       3.186   6.607  18.877  0.00  0.00    +0.000 NA
ATOM     11  H   UNL     1       1.441   6.360  21.574  0.00  0.00    +0.000 HD
ENDROOT
BRANCH   7  12
ATOM     12  C   UNL     1       5.498   4.601  14.955  0.00  0.00    +0.000 A 
ATOM     13  C   UNL     1       6.782   5.160  14.827  0.00  0.00    +0.000 A 
ATOM     14  C   UNL     1       7.544   4.943  13.676  0.00  0.00    +0.000 A 
ATOM     15  C   UNL     1       7.028   4.168  12.648  0.00  0.00    +0.000 A 
ATOM     16  F   UNL     1       7.755   3.966  11.542  0.00  0.00    +0.000 F 
ATOM     17  C   UNL     1       5.763   3.603  12.747  0.00  0.00    +0.000 A 
ATOM     18  C   UNL     1       5.000   3.818  13.899  0.00  0.00    +0.000 A 
ENDBRANCH   7  12
BRANCH   1  21
ATOM     19  C   UNL     1       0.550   9.910  19.244  0.00  0.00    +0.000 A 
ATOM     20  C   UNL     1       1.248   8.704  19.414  0.00  0.00    +0.000 A 
ATOM     21  C   UNL     1       1.451   8.148  20.675  0.00  0.00    +0.000 A 
ATOM     22  C   UNL     1       1.049   8.889  21.784  0.00  0.00    +0.000 A 
ATOM     23  C   UNL     1       0.436  10.148  21.652  0.00  0.00    +0.000 A 
ATOM     24  C   UNL     1       0.163  10.669  20.368  0.00  0.00    +0.000 A 
BRANCH  19  26
ATOM     25  C   UNL     1      -0.970   9.898  17.418  0.00  0.00    +0.000 C 
ATOM     26  O   UNL     1       0.262  10.358  17.978  0.00  0.00    +0.000 OA
ENDBRANCH  19  26
BRANCH  23  27
ATOM     27  O   UNL     1       0.152  10.691  22.883  0.00  0.00    +0.000 OA
ATOM     28  C   UNL     1      -1.192  10.737  23.336  0.00  0.00    +0.000 C 
ENDBRANCH  23  27
BRANCH  24  29
ATOM     29  O   UNL     1      -0.453  11.892  20.329  0.00  0.00    +0.000 OA
ATOM     30  C   UNL     1      -1.851  11.987  20.110  0.00  0.00    +0.000 C 
ENDBRANCH  24  29
ENDBRANCH   1  21
TORSDOF 5
ENDMDL
MODEL 7
REMARK VINA RESULT:      -7.9      5.817     10.201
REMARK  Name = 
REMARK  8 active torsions:
REMARK  status: ('A' for Active; 'I' for Inactive)
REMARK    1  A    between atoms: C_1  and  O_2
REMARK    2  A    between atoms: O_2  and  C_3
REMARK    3  A    between atoms: C_5  and  N_6
REMARK    4  A    between atoms: C_12  and  C_13
REMARK    5  A    between atoms: C_24  and  O_25
REMARK    6  A    between atoms: O_25  and  C_26
REMARK    7  A    between atoms: C_27  and  O_28
REMARK    8  A    between atoms: O_28  and  C_29
REMARK                            x       y       z     vdW  Elec       q    Type
REMARK                         _______ _______ _______ _____ _____    ______ ____
ROOT
ATOM      1  N   UNL     1      -0.476  10.805  20.542  0.00  0.00    +0.000 N 
ATOM      2  C   UNL     1       0.396   9.751  20.311  0.00  0.00    +0.000 A 
ATOM      3  C   UNL     1       0.900   8.967  21.502  0.00  0.00    +0.000 A 
ATOM      4  C   UNL     1       1.743   7.955  21.250  0.00  0.00    +0.000 A 
ATOM      5  N   UNL     1       2.132   7.675  19.948  0.00  0.00    +0.000 N 
ATOM      6  N   UNL     1       2.981   6.712  19.518  0.00  0.00    +0.000 NA
ATOM      7  C   UNL     1       3.049   6.867  18.185  0.00  0.00    +0.000 A 
ATOM      8  C   UNL     1       2.208   7.926  17.762  0.00  0.00    +0.000 A 
ATOM      9  C   UNL     1       1.641   8.434  18.900  0.00  0.00    +0.000 A 
ATOM     10  N   UNL     1       0.771   9.464  19.090  0.00  0.00    +0.000 NA
ATOM     11  H   UNL     1      -0.722  10.977  21.511  0.00  0.00    +0.000 HD
ENDROOT
BRANCH   7  12
ATOM     12  C   UNL     1       3.913   6.022  17.349  0.00  0.00    +0.000 A 
ATOM     13  C   UNL     1       4.811   6.603  16.436  0.00  0.00    +0.000 A 
ATOM     14  C   UNL     1       5.623   5.804  15.626  0.00  0.00    +0.000 A 
ATOM     15  C   UNL     1       5.542   4.423  15.726  0.00  0.00    +0.000 A 
ATOM     16  F   UNL     1       6.315   3.657  14.945  0.00  0.00    +0.000 F 
ATOM     17  C   UNL     1       4.666   3.822  16.620  0.00  0.00    +0.000 A 
ATOM     18  C   UNL     1       3.854   4.620  17.430  0.00  0.00    +0.000 A 
ENDBRANCH   7  12
BRANCH   1  21
ATOM     19  C   UNL     1      -2.953  10.719  17.739  0.00  0.00    +0.000 A 
ATOM     20  C   UNL     1      -1.769  10.526  18.467  0.00  0.00    +0.000 A 
ATOM     21  C   UNL     1      -1.563  11.136  19.702  0.00  0.00    +0.000 A 
ATOM     22  C   UNL     1      -2.517  12.050  20.143  0.00  0.00    +0.000 A 
ATOM     23  C   UNL     1      -3.668  12.342  19.389  0.00  0.00    +0.000 A 
ATOM     24  C   UNL     1      -3.909  11.661  18.175  0.00  0.00    +0.000 A 
BRANCH  19  26
ATOM     25  C   UNL     1      -2.929  10.698  15.363  0.00  0.00    +0.000 C 
ATOM     26  O   UNL     1      -3.171  10.001  16.588  0.00  0.00    +0.000 OA
ENDBRANCH  19  26
BRANCH  23  27
ATOM     27  O   UNL     1      -4.444  13.287  20.017  0.00  0.00    +0.000 OA
ATOM     28  C   UNL     1      -5.137  12.947  21.208  0.00  0.00    +0.000 C 
ENDBRANCH  23  27
BRANCH  24  29
ATOM     29  O   UNL     1      -5.062  11.990  17.514  0.00  0.00    +0.000 OA
ATOM     30  C   UNL     1      -6.302  11.424  17.904  0.00  0.00    +0.000 C 
ENDBRANCH  24  29
ENDBRANCH   1  21
TORSDOF 5
ENDMDL
MODEL 8
REMARK VINA RESULT:      -7.9      3.341      5.688
REMARK  Name = 
REMARK  8 active torsions:
REMARK  status: ('A' for Active; 'I' for Inactive)
REMARK    1  A    between atoms: C_1  and  O_2
REMARK    2  A    between atoms: O_2  and  C_3
REMARK    3  A    between atoms: C_5  and  N_6
REMARK    4  A    between atoms: C_12  and  C_13
REMARK    5  A    between atoms: C_24  and  O_25
REMARK    6  A    between atoms: O_25  and  C_26
REMARK    7  A    between atoms: C_27  and  O_28
REMARK    8  A    between atoms: O_28  and  C_29
REMARK                            x       y       z     vdW  Elec       q    Type
REMARK                         _______ _______ _______ _____ _____    ______ ____
ROOT
ATOM      1  N   UNL     1       1.685   8.801  17.636  0.00  0.00    +0.000 N 
ATOM      2  C   UNL     1       0.744   9.572  18.303  0.00  0.00    +0.000 A 
ATOM      3  C   UNL     1      -0.511   9.970  17.558  0.00  0.00    +0.000 A 
ATOM      4  C   UNL     1      -1.402  10.716  18.226  0.00  0.00    +0.000 A 
ATOM      5  N   UNL     1      -1.149  11.106  19.534  0.00  0.00    +0.000 N 
ATOM      6  N   UNL     1      -1.922  11.868  20.343  0.00  0.00    +0.000 NA
ATOM      7  C   UNL     1      -1.231  11.982  21.491  0.00  0.00    +0.000 A 
ATOM      8  C   UNL     1      -0.016  11.258  21.415  0.00  0.00    +0.000 A 
ATOM      9  C   UNL     1       0.023  10.716  20.159  0.00  0.00    +0.000 A 
ATOM     10  N   UNL     1       0.958   9.946  19.539  0.00  0.00    +0.000 NA
ATOM     11  H   UNL     1       1.460   8.550  16.679  0.00  0.00    +0.000 HD
ENDROOT
BRANCH   7  12
ATOM     12  C   UNL     1      -1.730  12.780  22.620  0.00  0.00    +0.000 A 
ATOM     13  C   UNL     1      -2.978  12.491  23.201  0.00  0.00    +0.000 A 
ATOM     14  C   UNL     1      -3.466  13.258  24.263  0.00  0.00    +0.000 A 
ATOM     15  C   UNL     1      -2.710  14.314  24.749  0.00  0.00    +0.000 A 
ATOM     16  F   UNL     1      -3.181  15.053  25.762  0.00  0.00    +0.000 F 
ATOM     17  C   UNL     1      -1.474  14.622  24.195  0.00  0.00    +0.000 A 
ATOM     18  C   UNL     1      -0.985  13.855  23.134  0.00  0.00    +0.000 A 
ENDBRANCH   7  12
BRANCH   1  21
ATOM     19  C   UNL     1       2.670   5.944  19.843  0.00  0.00    +0.000 A 
ATOM     20  C   UNL     1       2.009   7.090  19.375  0.00  0.00    +0.000 A 
ATOM     21  C   UNL     1       2.441   7.771  18.239  0.00  0.00    +0.000 A 
ATOM     22  C   UNL     1       3.631   7.355  17.645  0.00  0.00    +0.000 A 
ATOM     23  C   UNL     1       4.371   6.270  18.149  0.00  0.00    +0.000 A 
ATOM     24  C   UNL     1       3.886   5.536  19.254  0.00  0.00    +0.000 A 
BRANCH  19  26
ATOM     25  C   UNL     1       1.134   4.274  20.547  0.00  0.00    +0.000 C 
ATOM     26  O   UNL     1       2.139   5.230  20.890  0.00  0.00    +0.000 OA
ENDBRANCH  19  26
BRANCH  23  27
ATOM     27  O   UNL     1       5.513   6.066  17.412  0.00  0.00    +0.000 OA
ATOM     28  C   UNL     1       5.415   5.530  16.102  0.00  0.00    +0.000 C 
ENDBRANCH  23  27
BRANCH  24  29
ATOM     29  O   UNL     1       4.658   4.485  19.669  0.00  0.00    +0.000 OA
ATOM     30  C   UNL     1       4.425   3.178  19.168  0.00  0.00    +0.000 C 
ENDBRANCH  24  29
ENDBRANCH   1  21
TORSDOF 5
ENDMDL
MODEL 9
REMARK VINA RESULT:      -7.8      1.853      2.514
REMARK  Name = 
REMARK  8 active torsions:
REMARK  status: ('A' for Active; 'I' for Inactive)
REMARK    1  A    between atoms: C_1  and  O_2
REMARK    2  A    between atoms: O_2  and  C_3
REMARK    3  A    between atoms: C_5  and  N_6
REMARK    4  A    between atoms: C_12  and  C_13
REMARK    5  A    between atoms: C_24  and  O_25
REMARK    6  A    between atoms: O_25  and  C_26
REMARK    7  A    between atoms: C_27  and  O_28
REMARK    8  A    between atoms: O_28  and  C_29
REMARK                            x       y       z     vdW  Elec       q    Type
REMARK                         _______ _______ _______ _____ _____    ______ ____
ROOT
ATOM      1  N   UNL     1       3.593   5.061  17.776  0.00  0.00    +0.000 N 
ATOM      2  C   UNL     1       2.969   6.137  18.391  0.00  0.00    +0.000 A 
ATOM      3  C   UNL     1       2.473   5.959  19.809  0.00  0.00    +0.000 A 
ATOM      4  C   UNL     1       1.872   7.014  20.378  0.00  0.00    +0.000 A 
ATOM      5  N   UNL     1       1.710   8.195  19.669  0.00  0.00    +0.000 N 
ATOM      6  N   UNL     1       1.116   9.342  20.077  0.00  0.00    +0.000 NA
ATOM      7  C   UNL     1       1.190  10.175  19.025  0.00  0.00    +0.000 A 
ATOM      8  C   UNL     1       1.866   9.556  17.945  0.00  0.00    +0.000 A 
ATOM      9  C   UNL     1       2.180   8.294  18.370  0.00  0.00    +0.000 A 
ATOM     10  N   UNL     1       2.812   7.263  17.744  0.00  0.00    +0.000 NA
ATOM     11  H   UNL     1       3.678   4.217  18.331  0.00  0.00    +0.000 HD
ENDROOT
BRANCH   7  12
ATOM     12  C   UNL     1       0.611  11.525  19.065  0.00  0.00    +0.000 A 
ATOM     13  C   UNL     1       1.370  12.639  18.663  0.00  0.00    +0.000 A 
ATOM     14  C   UNL     1       0.830  13.928  18.715  0.00  0.00    +0.000 A 
ATOM     15  C   UNL     1      -0.469  14.108  19.167  0.00  0.00    +0.000 A 
ATOM     16  F   UNL     1      -0.983  15.343  19.223  0.00  0.00    +0.000 F 
ATOM     17  C   UNL     1      -1.242  13.027  19.569  0.00  0.00    +0.000 A 
ATOM     18  C   UNL     1      -0.704  11.738  19.516  0.00  0.00    +0.000 A 
ENDBRANCH   7  12
BRANCH   1  21
ATOM     19  C   UNL     1       6.899   6.072  16.343  0.00  0.00    +0.000 A 
ATOM     20  C   UNL     1       5.718   6.103  17.100  0.00  0.00    +0.000 A 
ATOM     21  C   UNL     1       4.697   5.177  16.901  0.00  0.00    +0.000 A 
ATOM     22  C   UNL     1       4.825   4.287  15.837  0.00  0.00    +0.000 A 
ATOM     23  C   UNL     1       5.952   4.296  14.995  0.00  0.00    +0.000 A 
ATOM     24  C   UNL     1       7.018   5.186  15.252  0.00  0.00    +0.000 A 
BRANCH  19  26
ATOM     25  C   UNL     1       7.599   8.024  17.502  0.00  0.00    +0.000 C 
ATOM     26  O   UNL     1       7.932   6.922  16.655  0.00  0.00    +0.000 OA
ENDBRANCH  19  26
BRANCH  23  27
ATOM     27  O   UNL     1       5.839   3.346  14.008  0.00  0.00    +0.000 OA
ATOM     28  C   UNL     1       5.168   3.666  12.800  0.00  0.00    +0.000 C 
ENDBRANCH  23  27
BRANCH  24  29
ATOM     29  O   UNL     1       8.085   5.115  14.396  0.00  0.00    +0.000 OA
ATOM     30  C   UNL     1       8.009   5.691  13.102  0.00  0.00    +0.000 C 
ENDBRANCH  24  29
ENDBRANCH   1  21
TORSDOF 5
ENDMDL
