MODEL 1
REMARK VINA RESULT:      -7.8      0.000      0.000
REMARK  Name = 
REMARK  10 active torsions:
REMARK  status: ('A' for Active; 'I' for Inactive)
REMARK    1  A    between atoms: C_1  and  C_2
REMARK    2  A    between atoms: C_2  and  C_3
REMARK    3  A    between atoms: C_3  and  C_4
REMARK    4  A    between atoms: C_4  and  N_5
REMARK    5  A    between atoms: C_6  and  C_7
REMARK    6  A    between atoms: C_7  and  C_8
REMARK    7  A    between atoms: C_7  and  C_9
REMARK    8  A    between atoms: N_15  and  C_16
REMARK    9  A    between atoms: C_19  and  O_20
REMARK   10  A    between atoms: O_20  and  C_21
REMARK                            x       y       z     vdW  Elec       q    Type
REMARK                         _______ _______ _______ _____ _____    ______ ____
ROOT
ATOM      1  N   UNL     1       4.417   4.842  18.324  0.00  0.00    +0.000 N 
ATOM      2  C   UNL     1       4.856   5.183  17.046  0.00  0.00    +0.000 A 
ATOM      3  N   UNL     1       4.461   6.399  16.727  0.00  0.00    +0.000 NA
ATOM      4  C   UNL     1       3.679   6.825  17.753  0.00  0.00    +0.000 A 
ATOM      5  C   UNL     1       2.974   8.025  17.873  0.00  0.00    +0.000 A 
ATOM      6  C   UNL     1       2.123   8.223  18.989  0.00  0.00    +0.000 A 
ATOM      7  C   UNL     1       1.332   9.358  19.186  0.00  0.00    +0.000 A 
ATOM      8  N   UNL     1       1.363  10.384  18.208  0.00  0.00    +0.000 N 
ATOM      9  N   UNL     1       0.532   9.504  20.262  0.00  0.00    +0.000 NA
ATOM     10  C   UNL     1       0.526   8.506  21.147  0.00  0.00    +0.000 A 
ATOM     11  N   UNL     1       1.255   7.392  21.068  0.00  0.00    +0.000 NA
ATOM     12  C   UNL     1       2.042   7.264  19.997  0.00  0.00    +0.000 A 
ATOM     13  C   UNL     1       2.799   6.109  19.892  0.00  0.00    +0.000 A 
ATOM     14  C   UNL     1       3.601   5.873  18.762  0.00  0.00    +0.000 A 
ATOM     15  H   UNL     1       0.998  10.022  17.334  0.00  0.00    +0.000 HD
ENDROOT
BRANCH   8  16
ATOM     16  C   UNL     1       1.043  11.738  18.436  0.00  0.00    +0.000 A 
ATOM     17  C   UNL     1      -0.281  12.173  18.486  0.00  0.00    +0.000 A 
ATOM     18  C   UNL     1      -0.584  13.516  18.707  0.00  0.00    +0.000 A 
ATOM     19  C   UNL     1       0.438  14.436  18.927  0.00  0.00    +0.000 A 
ATOM     20  C   UNL     1       1.763  14.002  18.939  0.00  0.00    +0.000 A 
ATOM     21  C   UNL     1       2.064  12.656  18.707  0.00  0.00    +0.000 A 
BRANCH  19  22
ATOM     22  O   UNL     1       0.021  15.731  19.055  0.00  0.00    +0.000 OA
ATOM     23  C   UNL     1       0.884  16.723  18.523  0.00  0.00    +0.000 C 
ENDBRANCH  19  22
ENDBRANCH   8  16
BRANCH   2  24
ATOM     24  C   UNL     1       5.614   4.289  16.099  0.00  0.00    +0.000 C 
ATOM     25  C   UNL     1       5.244   4.642  14.655  0.00  0.00    +0.000 C 
ATOM     26  C   UNL     1       7.130   4.445  16.281  0.00  0.00    +0.000 C 
ENDBRANCH   2  24
BRANCH   1  27
ATOM     27  C   UNL     1       4.809   3.639  19.058  0.00  0.00    +0.000 C 
BRANCH  27  28
ATOM     28  C   UNL     1       3.694   2.632  19.339  0.00  0.00    +0.000 C 
BRANCH  28  30
ATOM     29  C   UNL     1       1.383   2.647  18.417  0.00  0.00    +0.000 C 
ATOM     30  C   UNL     1       2.833   2.256  18.139  0.00  0.00    +0.000 C 
ENDBRANCH  28  30
ENDBRANCH  27  28
ENDBRANCH   1  27
TORSDOF 6
ENDMDL
MODEL 2
REMARK VINA RESULT:      -7.6      0.727      1.220
REMARK  Name = 
REMARK  10 active torsions:
REMARK  status: ('A' for Active; 'I' for Inactive)
REMARK    1  A    between atoms: C_1  and  C_2
REMARK    2  A    between atoms: C_2  and  C_3
REMARK    3  A    between atoms: C_3  and  C_4
REMARK    4  A    between atoms: C_4  and  N_5
REMARK    5  A    between atoms: C_6  and  C_7
REMARK    6  A    between atoms: C_7  and  C_8
REMARK    7  A    between atoms: C_7  and  C_9
REMARK    8  A    between atoms: N_15  and  C_16
REMARK    9  A    between atoms: C_19  and  O_20
REMARK   10  A    between atoms: O_20  and  C_21
REMARK                            x       y       z     vdW  Elec       q    Type
REMARK                         _______ _______ _______ _____ _____    ______ ____
ROOT
ATOM      1  N   UNL     1       4.222   4.926  18.413  0.00  0.00    +0.000 N 
ATOM      2  C   UNL     1       4.733   5.250  17.158  0.00  0.00    +0.000 A 
ATOM      3  N   UNL     1       4.416   6.487  16.832  0.00  0.00    +0.000 NA
ATOM      4  C   UNL     1       3.613   6.948  17.827  0.00  0.00    +0.000 A 
ATOM      5  C   UNL     1       2.967   8.182  17.925  0.00  0.00    +0.000 A 
ATOM      6  C   UNL     1       2.079   8.417  19.005  0.00  0.00    +0.000 A 
ATOM      7  C   UNL     1       1.340   9.591  19.177  0.00  0.00    +0.000 A 
ATOM      8  N   UNL     1       1.466  10.619  18.210  0.00  0.00    +0.000 N 
ATOM      9  N   UNL     1       0.502   9.772  20.219  0.00  0.00    +0.000 NA
ATOM     10  C   UNL     1       0.406   8.770  21.095  0.00  0.00    +0.000 A 
ATOM     11  N   UNL     1       1.079   7.620  21.038  0.00  0.00    +0.000 NA
ATOM     12  C   UNL     1       1.904   7.458  20.001  0.00  0.00    +0.000 A 
ATOM     13  C   UNL     1       2.605   6.266  19.920  0.00  0.00    +0.000 A 
ATOM     14  C   UNL     1       3.442   5.995  18.823  0.00  0.00    +0.000 A 
ATOM     15  H   UNL     1       1.122  10.282  17.318  0.00  0.00    +0.000 HD
ENDROOT
BRANCH   8  16
ATOM     16  C   UNL     1       1.207  11.987  18.434  0.00  0.00    +0.000 A 
ATOM     17  C   UNL     1       2.245  12.905  18.599  0.00  0.00    +0.000 A 
ATOM     18  C   UNL     1       1.975  14.254  18.825  0.00  0.00    +0.000 A 
ATOM     19  C   UNL     1       0.659  14.710  18.842  0.00  0.00    +0.000 A 
ATOM     20  C   UNL     1      -0.383  13.813  18.618  0.00  0.00    +0.000 A 
ATOM     21  C   UNL     1      -0.110  12.458  18.402  0.00  0.00    +0.000 A 
BRANCH  19  22
ATOM     22  O   UNL     1       0.521  16.035  19.148  0.00  0.00    +0.000 OA
ATOM     23  C   UNL     1      -0.808  16.501  19.325  0.00  0.00    +0.000 C 
ENDBRANCH  19  22
ENDBRANCH   8  16
BRANCH   2  24
ATOM     24  C   UNL     1       5.485   4.324  16.238  0.00  0.00    +0.000 C 
ATOM     25  C   UNL     1       5.212   4.717  14.782  0.00  0.00    +0.000 C 
ATOM     26  C   UNL     1       6.996   4.386  16.499  0.00  0.00    +0.000 C 
ENDBRANCH   2  24
BRANCH   1  27
ATOM     27  C   UNL     1       4.519   3.700  19.153  0.00  0.00    +0.000 C 
BRANCH  27  28
ATOM     28  C   UNL     1       3.331   2.777  19.428  0.00  0.00    +0.000 C 
BRANCH  28  30
ATOM     29  C   UNL     1       1.384   2.855  20.974  0.00  0.00    +0.000 C 
ATOM     30  C   UNL     1       2.899   2.683  20.886  0.00  0.00    +0.000 C 
ENDBRANCH  28  30
ENDBRANCH  27  28
ENDBRANCH   1  27
TORSDOF 6
ENDMDL
MODEL 3
REMARK VINA RESULT:      -7.5      3.566      8.869
REMARK  Name = 
REMARK  10 active torsions:
REMARK  status: ('A' for Active; 'I' for Inactive)
REMARK    1  A    between atoms: C_1  and  C_2
REMARK    2  A    between atoms: C_2  and  C_3
REMARK    3  A    between atoms: C_3  and  C_4
REMARK    4  A    between atoms: C_4  and  N_5
REMARK    5  A    between atoms: C_6  and  C_7
REMARK    6  A    between atoms: C_7  and  C_8
REMARK    7  A    between atoms: C_7  and  C_9
REMARK    8  A    between atoms: N_15  and  C_16
REMARK    9  A    between atoms: C_19  and  O_20
REMARK   10  A    between atoms: O_20  and  C_21
REMARK                            x       y       z     vdW  Elec       q    Type
REMARK                         _______ _______ _______ _____ _____    ______ ____
ROOT
ATOM      1  N   UNL     1       1.368   8.409  19.977  0.00  0.00    +0.000 N 
ATOM      2  C   UNL     1       1.292   9.494  19.105  0.00  0.00    +0.000 A 
ATOM      3  N   UNL     1       1.956   9.246  17.995  0.00  0.00    +0.000 NA
ATOM      4  C   UNL     1       2.554   8.038  18.172  0.00  0.00    +0.000 A 
ATOM      5  C   UNL     1       3.415   7.356  17.309  0.00  0.00    +0.000 A 
ATOM      6  C   UNL     1       4.017   6.147  17.741  0.00  0.00    +0.000 A 
ATOM      7  C   UNL     1       4.932   5.408  16.987  0.00  0.00    +0.000 A 
ATOM      8  N   UNL     1       5.302   5.892  15.706  0.00  0.00    +0.000 N 
ATOM      9  N   UNL     1       5.485   4.264  17.439  0.00  0.00    +0.000 NA
ATOM     10  C   UNL     1       5.117   3.857  18.654  0.00  0.00    +0.000 A 
ATOM     11  N   UNL     1       4.239   4.472  19.448  0.00  0.00    +0.000 NA
ATOM     12  C   UNL     1       3.701   5.603  18.985  0.00  0.00    +0.000 A 
ATOM     13  C   UNL     1       2.794   6.261  19.798  0.00  0.00    +0.000 A 
ATOM     14  C   UNL     1       2.235   7.490  19.408  0.00  0.00    +0.000 A 
ATOM     15  H   UNL     1       5.782   6.779  15.812  0.00  0.00    +0.000 HD
ENDROOT
BRANCH   8  16
ATOM     16  C   UNL     1       5.797   5.103  14.648  0.00  0.00    +0.000 A 
ATOM     17  C   UNL     1       4.986   4.180  13.990  0.00  0.00    +0.000 A 
ATOM     18  C   UNL     1       5.490   3.403  12.947  0.00  0.00    +0.000 A 
ATOM     19  C   UNL     1       6.803   3.575  12.519  0.00  0.00    +0.000 A 
ATOM     20  C   UNL     1       7.605   4.538  13.128  0.00  0.00    +0.000 A 
ATOM     21  C   UNL     1       7.100   5.308  14.181  0.00  0.00    +0.000 A 
BRANCH  19  22
ATOM     22  O   UNL     1       7.202   2.705  11.543  0.00  0.00    +0.000 OA
ATOM     23  C   UNL     1       6.337   1.609  11.289  0.00  0.00    +0.000 C 
ENDBRANCH  19  22
ENDBRANCH   8  16
BRANCH   2  24
ATOM     24  C   UNL     1       0.618  10.813  19.384  0.00  0.00    +0.000 C 
ATOM     25  C   UNL     1       1.499  11.956  18.871  0.00  0.00    +0.000 C 
ATOM     26  C   UNL     1      -0.754  10.891  18.699  0.00  0.00    +0.000 C 
ENDBRANCH   2  24
BRANCH   1  27
ATOM     27  C   UNL     1       0.616   8.276  21.224  0.00  0.00    +0.000 C 
BRANCH  27  28
ATOM     28  C   UNL     1       0.848   9.369  22.268  0.00  0.00    +0.000 C 
BRANCH  28  30
ATOM     29  C   UNL     1      -0.827  11.151  22.724  0.00  0.00    +0.000 C 
ATOM     30  C   UNL     1      -0.369   9.745  23.104  0.00  0.00    +0.000 C 
ENDBRANCH  28  30
ENDBRANCH  27  28
ENDBRANCH   1  27
TORSDOF 6
ENDMDL
MODEL 4
REMARK VINA RESULT:      -7.3      1.368      2.042
REMARK  Name = 
REMARK  10 active torsions:
REMARK  status: ('A' for Active; 'I' for Inactive)
REMARK    1  A    between atoms: C_1  and  C_2
REMARK    2  A    between atoms: C_2  and  C_3
REMARK    3  A    between atoms: C_3  and  C_4
REMARK    4  A    between atoms: C_4  and  N_5
REMARK    5  A    between atoms: C_6  and  C_7
REMARK    6  A    between atoms: C_7  and  C_8
REMARK    7  A    between atoms: C_7  and  C_9
REMARK    8  A    between atoms: N_15  and  C_16
REMARK    9  A    between atoms: C_19  and  O_20
REMARK   10  A    between atoms: O_20  and  C_21
REMARK                            x       y       z     vdW  Elec       q    Type
REMARK                         _______ _______ _______ _____ _____    ______ ____
ROOT
ATOM      1  N   UNL     1       2.906   5.446  19.532  0.00  0.00    +0.000 N 
ATOM      2  C   UNL     1       3.431   5.533  18.244  0.00  0.00    +0.000 A 
ATOM      3  N   UNL     1       3.292   6.754  17.768  0.00  0.00    +0.000 NA
ATOM      4  C   UNL     1       2.589   7.449  18.701  0.00  0.00    +0.000 A 
ATOM      5  C   UNL     1       2.135   8.768  18.647  0.00  0.00    +0.000 A 
ATOM      6  C   UNL     1       1.317   9.265  19.693  0.00  0.00    +0.000 A 
ATOM      7  C   UNL     1       0.764  10.548  19.720  0.00  0.00    +0.000 A 
ATOM      8  N   UNL     1       1.019  11.419  18.631  0.00  0.00    +0.000 N 
ATOM      9  N   UNL     1      -0.013  10.979  20.735  0.00  0.00    +0.000 NA
ATOM     10  C   UNL     1      -0.235  10.118  21.729  0.00  0.00    +0.000 A 
ATOM     11  N   UNL     1       0.258   8.883  21.814  0.00  0.00    +0.000 NA
ATOM     12  C   UNL     1       1.026   8.472  20.802  0.00  0.00    +0.000 A 
ATOM     13  C   UNL     1       1.541   7.188  20.867  0.00  0.00    +0.000 A 
ATOM     14  C   UNL     1       2.303   6.662  19.809  0.00  0.00    +0.000 A 
ATOM     15  H   UNL     1       0.608  11.029  17.790  0.00  0.00    +0.000 HD
ENDROOT
BRANCH   8  16
ATOM     16  C   UNL     1       0.971  12.827  18.684  0.00  0.00    +0.000 A 
ATOM     17  C   UNL     1       2.133  13.590  18.788  0.00  0.00    +0.000 A 
ATOM     18  C   UNL     1       2.071  14.982  18.844  0.00  0.00    +0.000 A 
ATOM     19  C   UNL     1       0.843  15.631  18.749  0.00  0.00    +0.000 A 
ATOM     20  C   UNL     1      -0.320  14.882  18.583  0.00  0.00    +0.000 A 
ATOM     21  C   UNL     1      -0.255  13.485  18.538  0.00  0.00    +0.000 A 
BRANCH  19  22
ATOM     22  O   UNL     1       0.905  16.989  18.892  0.00  0.00    +0.000 OA
ATOM     23  C   UNL     1       2.075  17.501  19.511  0.00  0.00    +0.000 C 
ENDBRANCH  19  22
ENDBRANCH   8  16
BRANCH   2  24
ATOM     24  C   UNL     1       4.015   4.398  17.443  0.00  0.00    +0.000 C 
ATOM     25  C   UNL     1       2.883   3.588  16.803  0.00  0.00    +0.000 C 
ATOM     26  C   UNL     1       4.946   4.919  16.340  0.00  0.00    +0.000 C 
ENDBRANCH   2  24
BRANCH   1  27
ATOM     27  C   UNL     1       3.035   4.290  20.419  0.00  0.00    +0.000 C 
BRANCH  27  28
ATOM     28  C   UNL     1       1.727   3.685  20.928  0.00  0.00    +0.000 C 
BRANCH  28  30
ATOM     29  C   UNL     1       0.942   2.152  19.132  0.00  0.00    +0.000 C 
ATOM     30  C   UNL     1       0.655   3.458  19.869  0.00  0.00    +0.000 C 
ENDBRANCH  28  30
ENDBRANCH  27  28
ENDBRANCH   1  27
TORSDOF 6
ENDMDL
MODEL 5
REMARK VINA RESULT:      -7.2      1.214      1.566
REMARK  Name = 
REMARK  10 active torsions:
REMARK  status: ('A' for Active; 'I' for Inactive)
REMARK    1  A    between atoms: C_1  and  C_2
REMARK    2  A    between atoms: C_2  and  C_3
REMARK    3  A    between atoms: C_3  and  C_4
REMARK    4  A    between atoms: C_4  and  N_5
REMARK    5  A    between atoms: C_6  and  C_7
REMARK    6  A    between atoms: C_7  and  C_8
REMARK    7  A    between atoms: C_7  and  C_9
REMARK    8  A    between atoms: N_15  and  C_16
REMARK    9  A    between atoms: C_19  and  O_20
REMARK   10  A    between atoms: O_20  and  C_21
REMARK                            x       y       z     vdW  Elec       q    Type
REMARK                         _______ _______ _______ _____ _____    ______ ____
ROOT
ATOM      1  N   UNL     1       3.206   5.382  19.249  0.00  0.00    +0.000 N 
ATOM      2  C   UNL     1       3.765   5.530  17.982  0.00  0.00    +0.000 A 
ATOM      3  N   UNL     1       3.599   6.761  17.541  0.00  0.00    +0.000 NA
ATOM      4  C   UNL     1       2.846   7.400  18.474  0.00  0.00    +0.000 A 
ATOM      5  C   UNL     1       2.348   8.705  18.450  0.00  0.00    +0.000 A 
ATOM      6  C   UNL     1       1.483   9.138  19.487  0.00  0.00    +0.000 A 
ATOM      7  C   UNL     1       0.886  10.400  19.539  0.00  0.00    +0.000 A 
ATOM      8  N   UNL     1       1.143  11.316  18.488  0.00  0.00    +0.000 N 
ATOM      9  N   UNL     1       0.065  10.770  20.544  0.00  0.00    +0.000 NA
ATOM     10  C   UNL     1      -0.156   9.870  21.502  0.00  0.00    +0.000 A 
ATOM     11  N   UNL     1       0.377   8.649  21.561  0.00  0.00    +0.000 NA
ATOM     12  C   UNL     1       1.188   8.299  20.560  0.00  0.00    +0.000 A 
ATOM     13  C   UNL     1       1.744   7.031  20.599  0.00  0.00    +0.000 A 
ATOM     14  C   UNL     1       2.554   6.567  19.547  0.00  0.00    +0.000 A 
ATOM     15  H   UNL     1       0.770  10.941  17.623  0.00  0.00    +0.000 HD
ENDROOT
BRANCH   8  16
ATOM     16  C   UNL     1       1.044  12.719  18.585  0.00  0.00    +0.000 A 
ATOM     17  C   UNL     1      -0.193  13.362  18.570  0.00  0.00    +0.000 A 
ATOM     18  C   UNL     1      -0.276  14.752  18.662  0.00  0.00    +0.000 A 
ATOM     19  C   UNL     1       0.880  15.512  18.817  0.00  0.00    +0.000 A 
ATOM     20  C   UNL     1       2.117  14.875  18.895  0.00  0.00    +0.000 A 
ATOM     21  C   UNL     1       2.198  13.483  18.792  0.00  0.00    +0.000 A 
BRANCH  19  22
ATOM     22  O   UNL     1       0.675  16.863  18.820  0.00  0.00    +0.000 OA
ATOM     23  C   UNL     1       1.395  17.607  17.848  0.00  0.00    +0.000 C 
ENDBRANCH  19  22
ENDBRANCH   8  16
BRANCH   2  24
ATOM     24  C   UNL     1       4.412   4.443  17.162  0.00  0.00    +0.000 C 
ATOM     25  C   UNL     1       3.343   3.446  16.701  0.00  0.00    +0.000 C 
ATOM     26  C   UNL     1       5.121   5.024  15.931  0.00  0.00    +0.000 C 
ENDBRANCH   2  24
BRANCH   1  27
ATOM     27  C   UNL     1       3.350   4.201  20.101  0.00  0.00    +0.000 C 
BRANCH  27  28
ATOM     28  C   UNL     1       2.056   3.638  20.689  0.00  0.00    +0.000 C 
BRANCH  28  30
ATOM     29  C   UNL     1       0.913   2.209  19.004  0.00  0.00    +0.000 C 
ATOM     30  C   UNL     1       0.880   3.555  19.724  0.00  0.00    +0.000 C 
ENDBRANCH  28  30
ENDBRANCH  27  28
ENDBRANCH   1  27
TORSDOF 6
ENDMDL
MODEL 6
REMARK VINA RESULT:      -7.1      1.692      2.603
REMARK  Name = 
REMARK  10 active torsions:
REMARK  status: ('A' for Active; 'I' for Inactive)
REMARK    1  A    between atoms: C_1  and  C_2
REMARK    2  A    between atoms: C_2  and  C_3
REMARK    3  A    between atoms: C_3  and  C_4
REMARK    4  A    between atoms: C_4  and  N_5
REMARK    5  A    between atoms: C_6  and  C_7
REMARK    6  A    between atoms: C_7  and  C_8
REMARK    7  A    between atoms: C_7  and  C_9
REMARK    8  A    between atoms: N_15  and  C_16
REMARK    9  A    between atoms: C_19  and  O_20
REMARK   10  A    between atoms: O_20  and  C_21
REMARK                            x       y       z     vdW  Elec       q    Type
REMARK                         _______ _______ _______ _____ _____    ______ ____
ROOT
ATOM      1  N   UNL     1       2.270   6.188  19.935  0.00  0.00    +0.000 N 
ATOM      2  C   UNL     1       2.812   6.150  18.652  0.00  0.00    +0.000 A 
ATOM      3  N   UNL     1       2.775   7.344  18.096  0.00  0.00    +0.000 NA
ATOM      4  C   UNL     1       2.121   8.151  18.973  0.00  0.00    +0.000 A 
ATOM      5  C   UNL     1       1.773   9.496  18.829  0.00  0.00    +0.000 A 
ATOM      6  C   UNL     1       0.988  10.122  19.829  0.00  0.00    +0.000 A 
ATOM      7  C   UNL     1       0.538  11.443  19.767  0.00  0.00    +0.000 A 
ATOM      8  N   UNL     1       0.871  12.219  18.629  0.00  0.00    +0.000 N 
ATOM      9  N   UNL     1      -0.212  11.999  20.742  0.00  0.00    +0.000 NA
ATOM     10  C   UNL     1      -0.510  11.224  21.786  0.00  0.00    +0.000 A 
ATOM     11  N   UNL     1      -0.117   9.962  21.956  0.00  0.00    +0.000 NA
ATOM     12  C   UNL     1       0.625   9.428  20.983  0.00  0.00    +0.000 A 
ATOM     13  C   UNL     1       1.036   8.114  21.137  0.00  0.00    +0.000 A 
ATOM     14  C   UNL     1       1.763   7.463  20.125  0.00  0.00    +0.000 A 
ATOM     15  H   UNL     1       0.437  11.810  17.809  0.00  0.00    +0.000 HD
ENDROOT
BRANCH   8  16
ATOM     16  C   UNL     1       0.933  13.628  18.591  0.00  0.00    +0.000 A 
ATOM     17  C   UNL     1      -0.220  14.408  18.666  0.00  0.00    +0.000 A 
ATOM     18  C   UNL     1      -0.145  15.800  18.623  0.00  0.00    +0.000 A 
ATOM     19  C   UNL     1       1.094  16.430  18.549  0.00  0.00    +0.000 A 
ATOM     20  C   UNL     1       2.258  15.662  18.534  0.00  0.00    +0.000 A 
ATOM     21  C   UNL     1       2.178  14.266  18.568  0.00  0.00    +0.000 A 
BRANCH  19  22
ATOM     22  O   UNL     1       1.034  17.791  18.436  0.00  0.00    +0.000 OA
ATOM     23  C   UNL     1       0.908  18.305  17.119  0.00  0.00    +0.000 C 
ENDBRANCH  19  22
ENDBRANCH   8  16
BRANCH   2  24
ATOM     24  C   UNL     1       3.312   4.924  17.933  0.00  0.00    +0.000 C 
ATOM     25  C   UNL     1       2.148   4.252  17.197  0.00  0.00    +0.000 C 
ATOM     26  C   UNL     1       4.407   5.282  16.920  0.00  0.00    +0.000 C 
ENDBRANCH   2  24
BRANCH   1  27
ATOM     27  C   UNL     1       2.300   5.085  20.895  0.00  0.00    +0.000 C 
BRANCH  27  28
ATOM     28  C   UNL     1       1.177   4.055  20.769  0.00  0.00    +0.000 C 
BRANCH  28  30
ATOM     29  C   UNL     1       1.094   1.989  19.386  0.00  0.00    +0.000 C 
ATOM     30  C   UNL     1       1.628   2.602  20.678  0.00  0.00    +0.000 C 
ENDBRANCH  28  30
ENDBRANCH  27  28
ENDBRANCH   1  27
TORSDOF 6
ENDMDL
MODEL 7
REMARK VINA RESULT:      -7.1      1.692      2.698
REMARK  Name = 
REMARK  10 active torsions:
REMARK  status: ('A' for Active; 'I' for Inactive)
REMARK    1  A    between atoms: C_1  and  C_2
REMARK    2  A    between atoms: C_2  and  C_3
REMARK    3  A    between atoms: C_3  and  C_4
REMARK    4  A    between atoms: C_4  and  N_5
REMARK    5  A    between atoms: C_6  and  C_7
REMARK    6  A    between atoms: C_7  and  C_8
REMARK    7  A    between atoms: C_7  and  C_9
REMARK    8  A    between atoms: N_15  and  C_16
REMARK    9  A    between atoms: C_19  and  O_20
REMARK   10  A    between atoms: O_20  and  C_21
REMARK                            x       y       z     vdW  Elec       q    Type
REMARK                         _______ _______ _______ _____ _____    ______ ____
ROOT
ATOM      1  N   UNL     1       2.490   5.977  19.583  0.00  0.00    +0.000 N 
ATOM      2  C   UNL     1       2.968   6.007  18.274  0.00  0.00    +0.000 A 
ATOM      3  N   UNL     1       2.885   7.224  17.776  0.00  0.00    +0.000 NA
ATOM      4  C   UNL     1       2.262   7.978  18.720  0.00  0.00    +0.000 A 
ATOM      5  C   UNL     1       1.887   9.322  18.655  0.00  0.00    +0.000 A 
ATOM      6  C   UNL     1       1.143   9.888  19.720  0.00  0.00    +0.000 A 
ATOM      7  C   UNL     1       0.669  11.202  19.741  0.00  0.00    +0.000 A 
ATOM      8  N   UNL     1       0.933  12.035  18.625  0.00  0.00    +0.000 N 
ATOM      9  N   UNL     1      -0.039  11.700  20.776  0.00  0.00    +0.000 NA
ATOM     10  C   UNL     1      -0.273  10.874  21.796  0.00  0.00    +0.000 A 
ATOM     11  N   UNL     1       0.148   9.613  21.889  0.00  0.00    +0.000 NA
ATOM     12  C   UNL     1       0.849   9.136  20.857  0.00  0.00    +0.000 A 
ATOM     13  C   UNL     1       1.287   7.825  20.931  0.00  0.00    +0.000 A 
ATOM     14  C   UNL     1       1.974   7.233  19.856  0.00  0.00    +0.000 A 
ATOM     15  H   UNL     1       0.466  11.655  17.809  0.00  0.00    +0.000 HD
ENDROOT
BRANCH   8  16
ATOM     16  C   UNL     1       0.972  13.444  18.648  0.00  0.00    +0.000 A 
ATOM     17  C   UNL     1       2.179  14.138  18.582  0.00  0.00    +0.000 A 
ATOM     18  C   UNL     1       2.204  15.533  18.611  0.00  0.00    +0.000 A 
ATOM     19  C   UNL     1       1.013  16.252  18.660  0.00  0.00    +0.000 A 
ATOM     20  C   UNL     1      -0.203  15.570  18.664  0.00  0.00    +0.000 A 
ATOM     21  C   UNL     1      -0.224  14.171  18.646  0.00  0.00    +0.000 A 
BRANCH  19  22
ATOM     22  O   UNL     1       1.169  17.606  18.760  0.00  0.00    +0.000 OA
ATOM     23  C   UNL     1       0.102  18.316  19.367  0.00  0.00    +0.000 C 
ENDBRANCH  19  22
ENDBRANCH   8  16
BRANCH   2  24
ATOM     24  C   UNL     1       3.451   4.823  17.476  0.00  0.00    +0.000 C 
ATOM     25  C   UNL     1       4.701   4.235  18.138  0.00  0.00    +0.000 C 
ATOM     26  C   UNL     1       2.371   3.735  17.388  0.00  0.00    +0.000 C 
ENDBRANCH   2  24
BRANCH   1  27
ATOM     27  C   UNL     1       2.585   4.832  20.489  0.00  0.00    +0.000 C 
BRANCH  27  28
ATOM     28  C   UNL     1       1.283   4.077  20.754  0.00  0.00    +0.000 C 
BRANCH  28  30
ATOM     29  C   UNL     1       2.910   2.358  21.519  0.00  0.00    +0.000 C 
ATOM     30  C   UNL     1       1.434   2.746  21.479  0.00  0.00    +0.000 C 
ENDBRANCH  28  30
ENDBRANCH  27  28
ENDBRANCH   1  27
TORSDOF 6
ENDMDL
MODEL 8
REMARK VINA RESULT:      -7.0      1.396      1.957
REMARK  Name = 
REMARK  10 active torsions:
REMARK  status: ('A' for Active; 'I' for Inactive)
REMARK    1  A    between atoms: C_1  and  C_2
REMARK    2  A    between atoms: C_2  and  C_3
REMARK    3  A    between atoms: C_3  and  C_4
REMARK    4  A    between atoms: C_4  and  N_5
REMARK    5  A    between atoms: C_6  and  C_7
REMARK    6  A    between atoms: C_7  and  C_8
REMARK    7  A    between atoms: C_7  and  C_9
REMARK    8  A    between atoms: N_15  and  C_16
REMARK    9  A    between atoms: C_19  and  O_20
REMARK   10  A    between atoms: O_20  and  C_21
REMARK                            x       y       z     vdW  Elec       q    Type
REMARK                         _______ _______ _______ _____ _____    ______ ____
ROOT
ATOM      1  N   UNL     1       3.255   5.816  18.900  0.00  0.00    +0.000 N 
ATOM      2  C   UNL     1       3.879   6.045  17.675  0.00  0.00    +0.000 A 
ATOM      3  N   UNL     1       3.720   7.299  17.300  0.00  0.00    +0.000 NA
ATOM      4  C   UNL     1       2.910   7.873  18.227  0.00  0.00    +0.000 A 
ATOM      5  C   UNL     1       2.397   9.171  18.253  0.00  0.00    +0.000 A 
ATOM      6  C   UNL     1       1.472   9.533  19.265  0.00  0.00    +0.000 A 
ATOM      7  C   UNL     1       0.856  10.783  19.360  0.00  0.00    +0.000 A 
ATOM      8  N   UNL     1       1.156  11.763  18.380  0.00  0.00    +0.000 N 
ATOM      9  N   UNL     1      -0.023  11.084  20.339  0.00  0.00    +0.000 NA
ATOM     10  C   UNL     1      -0.283  10.126  21.229  0.00  0.00    +0.000 A 
ATOM     11  N   UNL     1       0.263   8.909  21.244  0.00  0.00    +0.000 NA
ATOM     12  C   UNL     1       1.130   8.628  20.269  0.00  0.00    +0.000 A 
ATOM     13  C   UNL     1       1.701   7.366  20.263  0.00  0.00    +0.000 A 
ATOM     14  C   UNL     1       2.573   6.974  19.232  0.00  0.00    +0.000 A 
ATOM     15  H   UNL     1       0.835  11.437  17.475  0.00  0.00    +0.000 HD
ENDROOT
BRANCH   8  16
ATOM     16  C   UNL     1       1.033  13.157  18.555  0.00  0.00    +0.000 A 
ATOM     17  C   UNL     1       2.155  13.969  18.721  0.00  0.00    +0.000 A 
ATOM     18  C   UNL     1       2.020  15.346  18.897  0.00  0.00    +0.000 A 
ATOM     19  C   UNL     1       0.759  15.934  18.864  0.00  0.00    +0.000 A 
ATOM     20  C   UNL     1      -0.365  15.140  18.638  0.00  0.00    +0.000 A 
ATOM     21  C   UNL     1      -0.227  13.758  18.471  0.00  0.00    +0.000 A 
BRANCH  19  22
ATOM     22  O   UNL     1       0.750  17.275  19.124  0.00  0.00    +0.000 OA
ATOM     23  C   UNL     1      -0.471  17.810  19.611  0.00  0.00    +0.000 C 
ENDBRANCH  19  22
ENDBRANCH   8  16
BRANCH   2  24
ATOM     24  C   UNL     1       4.583   5.016  16.829  0.00  0.00    +0.000 C 
ATOM     25  C   UNL     1       5.143   5.686  15.569  0.00  0.00    +0.000 C 
ATOM     26  C   UNL     1       5.734   4.356  17.600  0.00  0.00    +0.000 C 
ENDBRANCH   2  24
BRANCH   1  27
ATOM     27  C   UNL     1       3.369   4.588  19.686  0.00  0.00    +0.000 C 
BRANCH  27  28
ATOM     28  C   UNL     1       2.319   3.513  19.407  0.00  0.00    +0.000 C 
BRANCH  28  30
ATOM     29  C   UNL     1       1.545   2.753  21.646  0.00  0.00    +0.000 C 
ATOM     30  C   UNL     1       1.138   3.486  20.370  0.00  0.00    +0.000 C 
ENDBRANCH  28  30
ENDBRANCH  27  28
ENDBRANCH   1  27
TORSDOF 6
ENDMDL
MODEL 9
REMARK VINA RESULT:      -7.0      2.640      4.279
REMARK  Name = 
REMARK  10 active torsions:
REMARK  status: ('A' for Active; 'I' for Inactive)
REMARK    1  A    between atoms: C_1  and  C_2
REMARK    2  A    between atoms: C_2  and  C_3
REMARK    3  A    between atoms: C_3  and  C_4
REMARK    4  A    between atoms: C_4  and  N_5
REMARK    5  A    between atoms: C_6  and  C_7
REMARK    6  A    between atoms: C_7  and  C_8
REMARK    7  A    between atoms: C_7  and  C_9
REMARK    8  A    between atoms: N_15  and  C_16
REMARK    9  A    between atoms: C_19  and  O_20
REMARK   10  A    between atoms: O_20  and  C_21
REMARK                            x       y       z     vdW  Elec       q    Type
REMARK                         _______ _______ _______ _____ _____    ______ ____
ROOT
ATOM      1  N   UNL     1       2.708   5.026  18.634  0.00  0.00    +0.000 N 
ATOM      2  C   UNL     1       2.525   4.376  19.853  0.00  0.00    +0.000 A 
ATOM      3  N   UNL     1       1.959   5.182  20.730  0.00  0.00    +0.000 NA
ATOM      4  C   UNL     1       1.857   6.393  20.121  0.00  0.00    +0.000 A 
ATOM      5  C   UNL     1       1.378   7.595  20.646  0.00  0.00    +0.000 A 
ATOM      6  C   UNL     1       1.463   8.776  19.867  0.00  0.00    +0.000 A 
ATOM      7  C   UNL     1       1.065  10.042  20.306  0.00  0.00    +0.000 A 
ATOM      8  N   UNL     1       0.550  10.171  21.621  0.00  0.00    +0.000 N 
ATOM      9  N   UNL     1       1.167  11.142  19.532  0.00  0.00    +0.000 NA
ATOM     10  C   UNL     1       1.670  10.971  18.309  0.00  0.00    +0.000 A 
ATOM     11  N   UNL     1       2.060   9.810  17.783  0.00  0.00    +0.000 NA
ATOM     12  C   UNL     1       1.951   8.731  18.562  0.00  0.00    +0.000 A 
ATOM     13  C   UNL     1       2.360   7.517  18.037  0.00  0.00    +0.000 A 
ATOM     14  C   UNL     1       2.338   6.348  18.819  0.00  0.00    +0.000 A 
ATOM     15  H   UNL     1       1.277   9.935  22.287  0.00  0.00    +0.000 HD
ENDROOT
BRANCH   8  16
ATOM     16  C   UNL     1      -0.310  11.197  22.063  0.00  0.00    +0.000 A 
ATOM     17  C   UNL     1      -1.367  10.933  22.933  0.00  0.00    +0.000 A 
ATOM     18  C   UNL     1      -2.214  11.956  23.360  0.00  0.00    +0.000 A 
ATOM     19  C   UNL     1      -1.984  13.268  22.955  0.00  0.00    +0.000 A 
ATOM     20  C   UNL     1      -0.894  13.553  22.134  0.00  0.00    +0.000 A 
ATOM     21  C   UNL     1      -0.053  12.523  21.700  0.00  0.00    +0.000 A 
BRANCH  19  22
ATOM     22  O   UNL     1      -2.923  14.166  23.376  0.00  0.00    +0.000 OA
ATOM     23  C   UNL     1      -3.101  14.275  24.780  0.00  0.00    +0.000 C 
ENDBRANCH  19  22
ENDBRANCH   8  16
BRANCH   2  24
ATOM     24  C   UNL     1       2.966   2.975  20.189  0.00  0.00    +0.000 C 
ATOM     25  C   UNL     1       2.630   2.670  21.653  0.00  0.00    +0.000 C 
ATOM     26  C   UNL     1       2.272   1.944  19.289  0.00  0.00    +0.000 C 
ENDBRANCH   2  24
BRANCH   1  27
ATOM     27  C   UNL     1       3.155   4.387  17.397  0.00  0.00    +0.000 C 
BRANCH  27  28
ATOM     28  C   UNL     1       4.649   4.494  17.090  0.00  0.00    +0.000 C 
BRANCH  28  30
ATOM     29  C   UNL     1       5.805   5.133  14.981  0.00  0.00    +0.000 C 
ATOM     30  C   UNL     1       5.052   5.663  16.200  0.00  0.00    +0.000 C 
ENDBRANCH  28  30
ENDBRANCH  27  28
ENDBRANCH   1  27
TORSDOF 6
ENDMDL
