MODEL 1
REMARK VINA RESULT:      -8.6      0.000      0.000
REMARK  Name = 
REMARK  4 active torsions:
REMARK  status: ('A' for Active; 'I' for Inactive)
REMARK    1  A    between atoms: C_1  and  C_2
REMARK    2  A    between atoms: C_4  and  N_5
REMARK    3  A    between atoms: C_13  and  N_14
REMARK    4  A    between atoms: N_25  and  C_26
REMARK                            x       y       z     vdW  Elec       q    Type
REMARK                         _______ _______ _______ _____ _____    ______ ____
ROOT
ATOM      1  N   UNL     1       1.477   7.383  21.174  0.00  0.00    +0.000 N 
ATOM      2  C   UNL     1       0.867   8.631  21.304  0.00  0.00    +0.000 A 
ATOM      3  N   UNL     1       0.880   9.167  22.544  0.00  0.00    +0.000 NA
ATOM      4  C   UNL     1       0.145  10.282  22.790  0.00  0.00    +0.000 A 
ATOM      5  C   UNL     1      -0.651  10.819  21.786  0.00  0.00    +0.000 A 
ATOM      6  C   UNL     1      -1.616  11.861  21.663  0.00  0.00    +0.000 A 
ATOM      7  C   UNL     1      -2.177  12.779  22.566  0.00  0.00    +0.000 A 
ATOM      8  C   UNL     1      -3.144  13.634  22.062  0.00  0.00    +0.000 A 
ATOM      9  N   UNL     1      -3.567  13.644  20.783  0.00  0.00    +0.000 NA
ATOM     10  C   UNL     1      -3.034  12.766  19.903  0.00  0.00    +0.000 A 
ATOM     11  C   UNL     1      -2.062  11.865  20.337  0.00  0.00    +0.000 A 
ATOM     12  N   UNL     1      -1.378  10.862  19.670  0.00  0.00    +0.000 N 
ATOM     13  C   UNL     1      -0.557  10.205  20.554  0.00  0.00    +0.000 A 
ATOM     14  N   UNL     1       0.188   9.130  20.267  0.00  0.00    +0.000 NA
ATOM     15  H   UNL     1       1.941   7.154  22.039  0.00  0.00    +0.000 HD
ENDROOT
BRANCH   1  22
ATOM     16  C   UNL     1       2.118   4.561  21.048  0.00  0.00    +0.000 C 
ATOM     17  C   UNL     1       2.477   5.540  19.970  0.00  0.00    +0.000 A 
ATOM     18  C   UNL     1       3.205   5.085  18.858  0.00  0.00    +0.000 A 
ATOM     19  C   UNL     1       3.613   5.947  17.842  0.00  0.00    +0.000 A 
ATOM     20  C   UNL     1       3.217   7.269  18.015  0.00  0.00    +0.000 A 
ATOM     21  N   UNL     1       2.502   7.754  19.064  0.00  0.00    +0.000 NA
ATOM     22  C   UNL     1       2.142   6.898  20.043  0.00  0.00    +0.000 A 
BRANCH  19  23
ATOM     23  N   UNL     1       4.409   5.500  16.810  0.00  0.00    +0.000 N 
ATOM     24  C   UNL     1       5.135   6.422  15.929  0.00  0.00    +0.000 C 
ATOM     25  C   UNL     1       6.547   5.847  15.659  0.00  0.00    +0.000 C 
ATOM     26  N   UNL     1       6.531   4.477  15.106  0.00  0.00    +0.000 NA
ATOM     27  C   UNL     1       5.749   3.594  15.996  0.00  0.00    +0.000 C 
ATOM     28  C   UNL     1       4.327   4.120  16.306  0.00  0.00    +0.000 C 
ATOM     29  H   UNL     1       7.489   4.132  15.060  0.00  0.00    +0.000 HD
ENDBRANCH  19  23
ENDBRANCH   1  22
BRANCH  12  30
ATOM     30  C   UNL     1      -1.510  10.526  18.262  0.00  0.00    +0.000 C 
ATOM     31  C   UNL     1      -2.685   9.603  17.943  0.00  0.00    +0.000 C 
ATOM     32  C   UNL     1      -2.901   9.772  16.448  0.00  0.00    +0.000 C 
ATOM     33  C   UNL     1      -2.418  11.177  16.099  0.00  0.00    +0.000 C 
ATOM     34  C   UNL     1      -1.706  11.727  17.329  0.00  0.00    +0.000 C 
ENDBRANCH  12  30
TORSDOF 3
ENDMDL
MODEL 2
REMARK VINA RESULT:      -7.9      2.439      3.196
REMARK  Name = 
REMARK  4 active torsions:
REMARK  status: ('A' for Active; 'I' for Inactive)
REMARK    1  A    between atoms: C_1  and  C_2
REMARK    2  A    between atoms: C_4  and  N_5
REMARK    3  A    between atoms: C_13  and  N_14
REMARK    4  A    between atoms: N_25  and  C_26
REMARK                            x       y       z     vdW  Elec       q    Type
REMARK                         _______ _______ _______ _____ _____    ______ ____
ROOT
ATOM      1  N   UNL     1       0.869   7.539  20.176  0.00  0.00    +0.000 N 
ATOM      2  C   UNL     1       0.616   8.691  20.920  0.00  0.00    +0.000 A 
ATOM      3  N   UNL     1      -0.267   8.556  21.933  0.00  0.00    +0.000 NA
ATOM      4  C   UNL     1      -0.707   9.666  22.579  0.00  0.00    +0.000 A 
ATOM      5  C   UNL     1      -0.292  10.922  22.155  0.00  0.00    +0.000 A 
ATOM      6  C   UNL     1      -0.588  12.281  22.466  0.00  0.00    +0.000 A 
ATOM      7  C   UNL     1      -1.479  12.904  23.357  0.00  0.00    +0.000 A 
ATOM      8  C   UNL     1      -1.506  14.289  23.341  0.00  0.00    +0.000 A 
ATOM      9  N   UNL     1      -0.741  15.062  22.545  0.00  0.00    +0.000 NA
ATOM     10  C   UNL     1       0.121  14.475  21.685  0.00  0.00    +0.000 A 
ATOM     11  C   UNL     1       0.199  13.083  21.634  0.00  0.00    +0.000 A 
ATOM     12  N   UNL     1       0.962  12.236  20.847  0.00  0.00    +0.000 N 
ATOM     13  C   UNL     1       0.635  10.932  21.133  0.00  0.00    +0.000 A 
ATOM     14  N   UNL     1       1.121   9.856  20.501  0.00  0.00    +0.000 NA
ATOM     15  H   UNL     1       0.420   6.755  20.622  0.00  0.00    +0.000 HD
ENDROOT
BRANCH   1  22
ATOM     16  C   UNL     1       1.558   8.870  17.696  0.00  0.00    +0.000 C 
ATOM     17  C   UNL     1       2.417   7.822  18.340  0.00  0.00    +0.000 A 
ATOM     18  C   UNL     1       3.597   7.422  17.691  0.00  0.00    +0.000 A 
ATOM     19  C   UNL     1       4.419   6.422  18.206  0.00  0.00    +0.000 A 
ATOM     20  C   UNL     1       3.985   5.886  19.414  0.00  0.00    +0.000 A 
ATOM     21  N   UNL     1       2.861   6.249  20.086  0.00  0.00    +0.000 NA
ATOM     22  C   UNL     1       2.074   7.204  19.548  0.00  0.00    +0.000 A 
BRANCH  19  23
ATOM     23  N   UNL     1       5.518   5.977  17.506  0.00  0.00    +0.000 N 
ATOM     24  C   UNL     1       6.873   6.026  18.067  0.00  0.00    +0.000 C 
ATOM     25  C   UNL     1       7.617   4.720  17.694  0.00  0.00    +0.000 C 
ATOM     26  N   UNL     1       7.647   4.452  16.241  0.00  0.00    +0.000 NA
ATOM     27  C   UNL     1       6.269   4.462  15.708  0.00  0.00    +0.000 C 
ATOM     28  C   UNL     1       5.474   5.743  16.053  0.00  0.00    +0.000 C 
ATOM     29  H   UNL     1       8.053   3.530  16.087  0.00  0.00    +0.000 HD
ENDBRANCH  19  23
ENDBRANCH   1  22
BRANCH  12  30
ATOM     30  C   UNL     1       1.941  12.641  19.852  0.00  0.00    +0.000 C 
ATOM     31  C   UNL     1       1.339  13.250  18.587  0.00  0.00    +0.000 C 
ATOM     32  C   UNL     1       2.495  13.997  17.942  0.00  0.00    +0.000 C 
ATOM     33  C   UNL     1       3.434  14.400  19.075  0.00  0.00    +0.000 C 
ATOM     34  C   UNL     1       2.953  13.687  20.334  0.00  0.00    +0.000 C 
ENDBRANCH  12  30
TORSDOF 3
ENDMDL
MODEL 3
REMARK VINA RESULT:      -7.6      2.239      2.733
REMARK  Name = 
REMARK  4 active torsions:
REMARK  status: ('A' for Active; 'I' for Inactive)
REMARK    1  A    between atoms: C_1  and  C_2
REMARK    2  A    between atoms: C_4  and  N_5
REMARK    3  A    between atoms: C_13  and  N_14
REMARK    4  A    between atoms: N_25  and  C_26
REMARK                            x       y       z     vdW  Elec       q    Type
REMARK                         _______ _______ _______ _____ _____    ______ ____
ROOT
ATOM      1  N   UNL     1       0.721   7.293  20.464  0.00  0.00    +0.000 N 
ATOM      2  C   UNL     1       0.514   8.493  21.144  0.00  0.00    +0.000 A 
ATOM      3  N   UNL     1      -0.235   8.413  22.265  0.00  0.00    +0.000 NA
ATOM      4  C   UNL     1      -0.637   9.558  22.874  0.00  0.00    +0.000 A 
ATOM      5  C   UNL     1      -0.326  10.788  22.308  0.00  0.00    +0.000 A 
ATOM      6  C   UNL     1      -0.637  12.158  22.549  0.00  0.00    +0.000 A 
ATOM      7  C   UNL     1      -1.438  12.823  23.492  0.00  0.00    +0.000 A 
ATOM      8  C   UNL     1      -1.522  14.201  23.374  0.00  0.00    +0.000 A 
ATOM      9  N   UNL     1      -0.890  14.930  22.434  0.00  0.00    +0.000 NA
ATOM     10  C   UNL     1      -0.114  14.302  21.521  0.00  0.00    +0.000 A 
ATOM     11  C   UNL     1       0.012  12.914  21.567  0.00  0.00    +0.000 A 
ATOM     12  N   UNL     1       0.707  12.029  20.759  0.00  0.00    +0.000 N 
ATOM     13  C   UNL     1       0.470  10.744  21.182  0.00  0.00    +0.000 A 
ATOM     14  N   UNL     1       0.918   9.635  20.579  0.00  0.00    +0.000 NA
ATOM     15  H   UNL     1       0.361   6.534  21.020  0.00  0.00    +0.000 HD
ENDROOT
BRANCH   1  22
ATOM     16  C   UNL     1       2.057   4.793  21.063  0.00  0.00    +0.000 C 
ATOM     17  C   UNL     1       2.525   5.750  20.007  0.00  0.00    +0.000 A 
ATOM     18  C   UNL     1       3.700   5.451  19.296  0.00  0.00    +0.000 A 
ATOM     19  C   UNL     1       4.220   6.315  18.334  0.00  0.00    +0.000 A 
ATOM     20  C   UNL     1       3.467   7.466  18.128  0.00  0.00    +0.000 A 
ATOM     21  N   UNL     1       2.319   7.792  18.778  0.00  0.00    +0.000 NA
ATOM     22  C   UNL     1       1.855   6.945  19.720  0.00  0.00    +0.000 A 
BRANCH  19  23
ATOM     23  N   UNL     1       5.423   6.050  17.720  0.00  0.00    +0.000 N 
ATOM     24  C   UNL     1       6.654   5.814  18.484  0.00  0.00    +0.000 C 
ATOM     25  C   UNL     1       7.440   4.655  17.821  0.00  0.00    +0.000 C 
ATOM     26  N   UNL     1       7.731   4.882  16.391  0.00  0.00    +0.000 NA
ATOM     27  C   UNL     1       6.474   5.166  15.669  0.00  0.00    +0.000 C 
ATOM     28  C   UNL     1       5.642   6.314  16.288  0.00  0.00    +0.000 C 
ATOM     29  H   UNL     1       8.149   4.037  16.004  0.00  0.00    +0.000 HD
ENDBRANCH  19  23
ENDBRANCH   1  22
BRANCH  12  30
ATOM     30  C   UNL     1       1.543  12.382  19.623  0.00  0.00    +0.000 C 
ATOM     31  C   UNL     1       0.794  13.057  18.476  0.00  0.00    +0.000 C 
ATOM     32  C   UNL     1       1.884  13.732  17.660  0.00  0.00    +0.000 C 
ATOM     33  C   UNL     1       3.019  14.045  18.631  0.00  0.00    +0.000 C 
ATOM     34  C   UNL     1       2.693  13.344  19.945  0.00  0.00    +0.000 C 
ENDBRANCH  12  30
TORSDOF 3
ENDMDL
MODEL 4
REMARK VINA RESULT:      -7.4      2.524      3.323
REMARK  Name = 
REMARK  4 active torsions:
REMARK  status: ('A' for Active; 'I' for Inactive)
REMARK    1  A    between atoms: C_1  and  C_2
REMARK    2  A    between atoms: C_4  and  N_5
REMARK    3  A    between atoms: C_13  and  N_14
REMARK    4  A    between atoms: N_25  and  C_26
REMARK                            x       y       z     vdW  Elec       q    Type
REMARK                         _______ _______ _______ _____ _____    ______ ____
ROOT
ATOM      1  N   UNL     1       0.562   7.859  20.380  0.00  0.00    +0.000 N 
ATOM      2  C   UNL     1       0.390   9.040  21.101  0.00  0.00    +0.000 A 
ATOM      3  N   UNL     1      -0.470   8.977  22.141  0.00  0.00    +0.000 NA
ATOM      4  C   UNL     1      -0.833  10.124  22.770  0.00  0.00    +0.000 A 
ATOM      5  C   UNL     1      -0.366  11.346  22.302  0.00  0.00    +0.000 A 
ATOM      6  C   UNL     1      -0.583  12.726  22.586  0.00  0.00    +0.000 A 
ATOM      7  C   UNL     1      -1.414  13.415  23.484  0.00  0.00    +0.000 A 
ATOM      8  C   UNL     1      -1.370  14.799  23.433  0.00  0.00    +0.000 A 
ATOM      9  N   UNL     1      -0.590  15.511  22.597  0.00  0.00    +0.000 NA
ATOM     10  C   UNL     1       0.216  14.859  21.729  0.00  0.00    +0.000 A 
ATOM     11  C   UNL     1       0.221  13.465  21.711  0.00  0.00    +0.000 A 
ATOM     12  N   UNL     1       0.915  12.560  20.926  0.00  0.00    +0.000 N 
ATOM     13  C   UNL     1       0.531  11.282  21.255  0.00  0.00    +0.000 A 
ATOM     14  N   UNL     1       0.942  10.166  20.638  0.00  0.00    +0.000 NA
ATOM     15  H   UNL     1       0.086   7.111  20.859  0.00  0.00    +0.000 HD
ENDROOT
BRANCH   1  22
ATOM     16  C   UNL     1       1.256   9.105  17.858  0.00  0.00    +0.000 C 
ATOM     17  C   UNL     1       2.073   8.022  18.500  0.00  0.00    +0.000 A 
ATOM     18  C   UNL     1       3.212   7.546  17.828  0.00  0.00    +0.000 A 
ATOM     19  C   UNL     1       3.991   6.511  18.342  0.00  0.00    +0.000 A 
ATOM     20  C   UNL     1       3.560   6.022  19.570  0.00  0.00    +0.000 A 
ATOM     21  N   UNL     1       2.477   6.458  20.264  0.00  0.00    +0.000 NA
ATOM     22  C   UNL     1       1.729   7.446  19.729  0.00  0.00    +0.000 A 
BRANCH  19  23
ATOM     23  N   UNL     1       5.045   5.993  17.622  0.00  0.00    +0.000 N 
ATOM     24  C   UNL     1       4.845   5.052  16.514  0.00  0.00    +0.000 C 
ATOM     25  C   UNL     1       5.816   5.420  15.365  0.00  0.00    +0.000 C 
ATOM     26  N   UNL     1       7.233   5.466  15.781  0.00  0.00    +0.000 NA
ATOM     27  C   UNL     1       7.381   6.384  16.929  0.00  0.00    +0.000 C 
ATOM     28  C   UNL     1       6.432   6.069  18.109  0.00  0.00    +0.000 C 
ATOM     29  H   UNL     1       7.791   5.818  15.004  0.00  0.00    +0.000 HD
ENDBRANCH  19  23
ENDBRANCH   1  22
BRANCH  12  30
ATOM     30  C   UNL     1       1.885  12.888  19.895  0.00  0.00    +0.000 C 
ATOM     31  C   UNL     1       1.291  13.579  18.669  0.00  0.00    +0.000 C 
ATOM     32  C   UNL     1       2.485  14.224  17.984  0.00  0.00    +0.000 C 
ATOM     33  C   UNL     1       3.507  14.511  19.080  0.00  0.00    +0.000 C 
ATOM     34  C   UNL     1       3.014  13.821  20.347  0.00  0.00    +0.000 C 
ENDBRANCH  12  30
TORSDOF 3
ENDMDL
MODEL 5
REMARK VINA RESULT:      -7.3      7.968     10.744
REMARK  Name = 
REMARK  4 active torsions:
REMARK  status: ('A' for Active; 'I' for Inactive)
REMARK    1  A    between atoms: C_1  and  C_2
REMARK    2  A    between atoms: C_4  and  N_5
REMARK    3  A    between atoms: C_13  and  N_14
REMARK    4  A    between atoms: N_25  and  C_26
REMARK                            x       y       z     vdW  Elec       q    Type
REMARK                         _______ _______ _______ _____ _____    ______ ____
ROOT
ATOM      1  N   UNL     1       4.377  16.023  18.355  0.00  0.00    +0.000 N 
ATOM      2  C   UNL     1       5.689  16.178  18.802  0.00  0.00    +0.000 A 
ATOM      3  N   UNL     1       6.117  17.451  18.945  0.00  0.00    +0.000 NA
ATOM      4  C   UNL     1       7.432  17.683  19.191  0.00  0.00    +0.000 A 
ATOM      5  C   UNL     1       8.325  16.620  19.232  0.00  0.00    +0.000 A 
ATOM      6  C   UNL     1       9.735  16.443  19.343  0.00  0.00    +0.000 A 
ATOM      7  C   UNL     1      10.822  17.328  19.436  0.00  0.00    +0.000 A 
ATOM      8  C   UNL     1      12.084  16.757  19.488  0.00  0.00    +0.000 A 
ATOM      9  N   UNL     1      12.328  15.433  19.463  0.00  0.00    +0.000 NA
ATOM     10  C   UNL     1      11.290  14.570  19.375  0.00  0.00    +0.000 A 
ATOM     11  C   UNL     1       9.989  15.068  19.307  0.00  0.00    +0.000 A 
ATOM     12  N   UNL     1       8.767  14.426  19.191  0.00  0.00    +0.000 N 
ATOM     13  C   UNL     1       7.767  15.365  19.105  0.00  0.00    +0.000 A 
ATOM     14  N   UNL     1       6.470  15.098  18.902  0.00  0.00    +0.000 NA
ATOM     15  H   UNL     1       3.929  16.926  18.335  0.00  0.00    +0.000 HD
ENDROOT
BRANCH   1  22
ATOM     16  C   UNL     1       2.938  16.161  20.866  0.00  0.00    +0.000 C 
ATOM     17  C   UNL     1       2.815  15.017  19.902  0.00  0.00    +0.000 A 
ATOM     18  C   UNL     1       1.997  13.928  20.246  0.00  0.00    +0.000 A 
ATOM     19  C   UNL     1       1.871  12.812  19.422  0.00  0.00    +0.000 A 
ATOM     20  C   UNL     1       2.595  12.888  18.237  0.00  0.00    +0.000 A 
ATOM     21  N   UNL     1       3.386  13.923  17.854  0.00  0.00    +0.000 NA
ATOM     22  C   UNL     1       3.505  14.979  18.685  0.00  0.00    +0.000 A 
BRANCH  19  23
ATOM     23  N   UNL     1       1.143  11.714  19.822  0.00  0.00    +0.000 N 
ATOM     24  C   UNL     1       0.932  10.556  18.945  0.00  0.00    +0.000 C 
ATOM     25  C   UNL     1       1.066   9.261  19.786  0.00  0.00    +0.000 C 
ATOM     26  N   UNL     1       0.165   9.221  20.955  0.00  0.00    +0.000 NA
ATOM     27  C   UNL     1       0.373  10.427  21.782  0.00  0.00    +0.000 C 
ATOM     28  C   UNL     1       0.255  11.753  20.995  0.00  0.00    +0.000 C 
ATOM     29  H   UNL     1       0.389   8.397  21.512  0.00  0.00    +0.000 HD
ENDBRANCH  19  23
ENDBRANCH   1  22
BRANCH  12  30
ATOM     30  C   UNL     1       8.555  12.989  19.141  0.00  0.00    +0.000 C 
ATOM     31  C   UNL     1       9.019  12.329  17.845  0.00  0.00    +0.000 C 
ATOM     32  C   UNL     1       9.138  10.854  18.195  0.00  0.00    +0.000 C 
ATOM     33  C   UNL     1       9.443  10.789  19.688  0.00  0.00    +0.000 C 
ATOM     34  C   UNL     1       9.263  12.196  20.246  0.00  0.00    +0.000 C 
ENDBRANCH  12  30
TORSDOF 3
ENDMDL
MODEL 6
REMARK VINA RESULT:      -7.2      3.439      4.330
REMARK  Name = 
REMARK  4 active torsions:
REMARK  status: ('A' for Active; 'I' for Inactive)
REMARK    1  A    between atoms: C_1  and  C_2
REMARK    2  A    between atoms: C_4  and  N_5
REMARK    3  A    between atoms: C_13  and  N_14
REMARK    4  A    between atoms: N_25  and  C_26
REMARK                            x       y       z     vdW  Elec       q    Type
REMARK                         _______ _______ _______ _____ _____    ______ ____
ROOT
ATOM      1  N   UNL     1      -0.253   9.600  20.578  0.00  0.00    +0.000 N 
ATOM      2  C   UNL     1      -0.102  10.842  21.192  0.00  0.00    +0.000 A 
ATOM      3  N   UNL     1      -0.996  11.134  22.162  0.00  0.00    +0.000 NA
ATOM      4  C   UNL     1      -1.032  12.392  22.671  0.00  0.00    +0.000 A 
ATOM      5  C   UNL     1      -0.197  13.372  22.151  0.00  0.00    +0.000 A 
ATOM      6  C   UNL     1      -0.006  14.776  22.312  0.00  0.00    +0.000 A 
ATOM      7  C   UNL     1      -0.640  15.761  23.086  0.00  0.00    +0.000 A 
ATOM      8  C   UNL     1      -0.181  17.060  22.934  0.00  0.00    +0.000 A 
ATOM      9  N   UNL     1       0.820  17.429  22.112  0.00  0.00    +0.000 NA
ATOM     10  C   UNL     1       1.440  16.489  21.362  0.00  0.00    +0.000 A 
ATOM     11  C   UNL     1       1.028  15.159  21.451  0.00  0.00    +0.000 A 
ATOM     12  N   UNL     1       1.461  14.019  20.794  0.00  0.00    +0.000 N 
ATOM     13  C   UNL     1       0.695  12.949  21.187  0.00  0.00    +0.000 A 
ATOM     14  N   UNL     1       0.786  11.708  20.691  0.00  0.00    +0.000 NA
ATOM     15  H   UNL     1      -0.956   9.073  21.073  0.00  0.00    +0.000 HD
ENDROOT
BRANCH   1  22
ATOM     16  C   UNL     1       0.554  10.007  17.825  0.00  0.00    +0.000 C 
ATOM     17  C   UNL     1       1.163   8.970  18.722  0.00  0.00    +0.000 A 
ATOM     18  C   UNL     1       2.144   8.114  18.196  0.00  0.00    +0.000 A 
ATOM     19  C   UNL     1       2.720   7.098  18.956  0.00  0.00    +0.000 A 
ATOM     20  C   UNL     1       2.261   7.030  20.267  0.00  0.00    +0.000 A 
ATOM     21  N   UNL     1       1.326   7.842  20.825  0.00  0.00    +0.000 NA
ATOM     22  C   UNL     1       0.771   8.802  20.055  0.00  0.00    +0.000 A 
BRANCH  19  23
ATOM     23  N   UNL     1       3.608   6.208  18.393  0.00  0.00    +0.000 N 
ATOM     24  C   UNL     1       4.611   6.625  17.407  0.00  0.00    +0.000 C 
ATOM     25  C   UNL     1       5.944   5.897  17.711  0.00  0.00    +0.000 C 
ATOM     26  N   UNL     1       5.816   4.426  17.758  0.00  0.00    +0.000 NA
ATOM     27  C   UNL     1       4.763   4.052  18.723  0.00  0.00    +0.000 C 
ATOM     28  C   UNL     1       3.407   4.752  18.472  0.00  0.00    +0.000 C 
ATOM     29  H   UNL     1       6.703   4.031  18.068  0.00  0.00    +0.000 HD
ENDBRANCH  19  23
ENDBRANCH   1  22
BRANCH  12  30
ATOM     30  C   UNL     1       2.539  13.948  19.822  0.00  0.00    +0.000 C 
ATOM     31  C   UNL     1       2.256  14.684  18.514  0.00  0.00    +0.000 C 
ATOM     32  C   UNL     1       3.627  14.873  17.883  0.00  0.00    +0.000 C 
ATOM     33  C   UNL     1       4.627  14.923  19.035  0.00  0.00    +0.000 C 
ATOM     34  C   UNL     1       3.877  14.525  20.301  0.00  0.00    +0.000 C 
ENDBRANCH  12  30
TORSDOF 3
ENDMDL
MODEL 7
REMARK VINA RESULT:      -7.2      4.088      4.941
REMARK  Name = 
REMARK  4 active torsions:
REMARK  status: ('A' for Active; 'I' for Inactive)
REMARK    1  A    between atoms: C_1  and  C_2
REMARK    2  A    between atoms: C_4  and  N_5
REMARK    3  A    between atoms: C_13  and  N_14
REMARK    4  A    between atoms: N_25  and  C_26
REMARK                            x       y       z     vdW  Elec       q    Type
REMARK                         _______ _______ _______ _____ _____    ______ ____
ROOT
ATOM      1  N   UNL     1      -0.232  10.583  19.916  0.00  0.00    +0.000 N 
ATOM      2  C   UNL     1       0.092  11.743  20.618  0.00  0.00    +0.000 A 
ATOM      3  N   UNL     1      -0.844  12.189  21.485  0.00  0.00    +0.000 NA
ATOM      4  C   UNL     1      -0.684  13.408  22.061  0.00  0.00    +0.000 A 
ATOM      5  C   UNL     1       0.401  14.201  21.710  0.00  0.00    +0.000 A 
ATOM      6  C   UNL     1       0.859  15.524  21.979  0.00  0.00    +0.000 A 
ATOM      7  C   UNL     1       0.347  16.597  22.726  0.00  0.00    +0.000 A 
ATOM      8  C   UNL     1       1.084  17.771  22.712  0.00  0.00    +0.000 A 
ATOM      9  N   UNL     1       2.242  17.941  22.045  0.00  0.00    +0.000 NA
ATOM     10  C   UNL     1       2.746  16.915  21.323  0.00  0.00    +0.000 A 
ATOM     11  C   UNL     1       2.056  15.703  21.278  0.00  0.00    +0.000 A 
ATOM     12  N   UNL     1       2.325  14.519  20.613  0.00  0.00    +0.000 N 
ATOM     13  C   UNL     1       1.306  13.627  20.841  0.00  0.00    +0.000 A 
ATOM     14  N   UNL     1       1.200  12.412  20.286  0.00  0.00    +0.000 NA
ATOM     15  H   UNL     1      -1.090  10.205  20.286  0.00  0.00    +0.000 HD
ENDROOT
BRANCH   1  22
ATOM     16  C   UNL     1       0.683   8.596  21.815  0.00  0.00    +0.000 C 
ATOM     17  C   UNL     1       1.131   8.642  20.384  0.00  0.00    +0.000 A 
ATOM     18  C   UNL     1       2.081   7.706  19.943  0.00  0.00    +0.000 A 
ATOM     19  C   UNL     1       2.577   7.718  18.640  0.00  0.00    +0.000 A 
ATOM     20  C   UNL     1       2.035   8.707  17.827  0.00  0.00    +0.000 A 
ATOM     21  N   UNL     1       1.106   9.624  18.203  0.00  0.00    +0.000 NA
ATOM     22  C   UNL     1       0.662   9.600  19.477  0.00  0.00    +0.000 A 
BRANCH  19  23
ATOM     23  N   UNL     1       3.579   6.855  18.256  0.00  0.00    +0.000 N 
ATOM     24  C   UNL     1       4.307   7.018  16.992  0.00  0.00    +0.000 C 
ATOM     25  C   UNL     1       5.808   6.727  17.238  0.00  0.00    +0.000 C 
ATOM     26  N   UNL     1       6.062   5.400  17.837  0.00  0.00    +0.000 NA
ATOM     27  C   UNL     1       5.273   5.258  19.077  0.00  0.00    +0.000 C 
ATOM     28  C   UNL     1       3.763   5.541  18.894  0.00  0.00    +0.000 C 
ATOM     29  H   UNL     1       7.053   5.330  18.067  0.00  0.00    +0.000 HD
ENDBRANCH  19  23
ENDBRANCH   1  22
BRANCH  12  30
ATOM     30  C   UNL     1       3.486  14.249  19.780  0.00  0.00    +0.000 C 
ATOM     31  C   UNL     1       3.404  14.843  18.375  0.00  0.00    +0.000 C 
ATOM     32  C   UNL     1       4.843  14.848  17.885  0.00  0.00    +0.000 C 
ATOM     33  C   UNL     1       5.722  14.957  19.127  0.00  0.00    +0.000 C 
ATOM     34  C   UNL     1       4.814  14.772  20.338  0.00  0.00    +0.000 C 
ENDBRANCH  12  30
TORSDOF 3
ENDMDL
MODEL 8
REMARK VINA RESULT:      -7.2      3.386      4.398
REMARK  Name = 
REMARK  4 active torsions:
REMARK  status: ('A' for Active; 'I' for Inactive)
REMARK    1  A    between atoms: C_1  and  C_2
REMARK    2  A    between atoms: C_4  and  N_5
REMARK    3  A    between atoms: C_13  and  N_14
REMARK    4  A    between atoms: N_25  and  C_26
REMARK                            x       y       z     vdW  Elec       q    Type
REMARK                         _______ _______ _______ _____ _____    ______ ____
ROOT
ATOM      1  N   UNL     1      -0.273   9.640  20.591  0.00  0.00    +0.000 N 
ATOM      2  C   UNL     1      -0.130  10.868  21.236  0.00  0.00    +0.000 A 
ATOM      3  N   UNL     1      -1.012  11.119  22.228  0.00  0.00    +0.000 NA
ATOM      4  C   UNL     1      -1.058  12.362  22.773  0.00  0.00    +0.000 A 
ATOM      5  C   UNL     1      -0.246  13.368  22.267  0.00  0.00    +0.000 A 
ATOM      6  C   UNL     1      -0.073  14.770  22.463  0.00  0.00    +0.000 A 
ATOM      7  C   UNL     1      -0.708  15.724  23.275  0.00  0.00    +0.000 A 
ATOM      8  C   UNL     1      -0.272  17.033  23.152  0.00  0.00    +0.000 A 
ATOM      9  N   UNL     1       0.711  17.439  22.324  0.00  0.00    +0.000 NA
ATOM     10  C   UNL     1       1.331  16.530  21.538  0.00  0.00    +0.000 A 
ATOM     11  C   UNL     1       0.941  15.192  21.597  0.00  0.00    +0.000 A 
ATOM     12  N   UNL     1       1.379  14.077  20.901  0.00  0.00    +0.000 N 
ATOM     13  C   UNL     1       0.635  12.985  21.277  0.00  0.00    +0.000 A 
ATOM     14  N   UNL     1       0.736  11.760  20.745  0.00  0.00    +0.000 NA
ATOM     15  H   UNL     1      -0.960   9.090  21.082  0.00  0.00    +0.000 HD
ENDROOT
BRANCH   1  22
ATOM     16  C   UNL     1       0.443  10.097  17.820  0.00  0.00    +0.000 C 
ATOM     17  C   UNL     1       1.102   9.065  18.687  0.00  0.00    +0.000 A 
ATOM     18  C   UNL     1       2.088   8.238  18.122  0.00  0.00    +0.000 A 
ATOM     19  C   UNL     1       2.709   7.228  18.853  0.00  0.00    +0.000 A 
ATOM     20  C   UNL     1       2.290   7.134  20.176  0.00  0.00    +0.000 A 
ATOM     21  N   UNL     1       1.353   7.918  20.771  0.00  0.00    +0.000 NA
ATOM     22  C   UNL     1       0.754   8.873  20.029  0.00  0.00    +0.000 A 
BRANCH  19  23
ATOM     23  N   UNL     1       3.601   6.365  18.255  0.00  0.00    +0.000 N 
ATOM     24  C   UNL     1       3.692   4.950  18.634  0.00  0.00    +0.000 C 
ATOM     25  C   UNL     1       3.870   4.100  17.352  0.00  0.00    +0.000 C 
ATOM     26  N   UNL     1       5.025   4.510  16.527  0.00  0.00    +0.000 NA
ATOM     27  C   UNL     1       4.921   5.949  16.211  0.00  0.00    +0.000 C 
ATOM     28  C   UNL     1       4.736   6.851  17.455  0.00  0.00    +0.000 C 
ATOM     29  H   UNL     1       5.010   3.980  15.656  0.00  0.00    +0.000 HD
ENDBRANCH  19  23
ENDBRANCH   1  22
BRANCH  12  30
ATOM     30  C   UNL     1       2.441  14.050  19.910  0.00  0.00    +0.000 C 
ATOM     31  C   UNL     1       2.132  14.831  18.634  0.00  0.00    +0.000 C 
ATOM     32  C   UNL     1       3.491  15.053  17.989  0.00  0.00    +0.000 C 
ATOM     33  C   UNL     1       4.510  15.067  19.125  0.00  0.00    +0.000 C 
ATOM     34  C   UNL     1       3.783  14.618  20.388  0.00  0.00    +0.000 C 
ENDBRANCH  12  30
TORSDOF 3
ENDMDL
MODEL 9
REMARK VINA RESULT:      -7.1      2.066      2.538
REMARK  Name = 
REMARK  4 active torsions:
REMARK  status: ('A' for Active; 'I' for Inactive)
REMARK    1  A    between atoms: C_1  and  C_2
REMARK    2  A    between atoms: C_4  and  N_5
REMARK    3  A    between atoms: C_13  and  N_14
REMARK    4  A    between atoms: N_25  and  C_26
REMARK                            x       y       z     vdW  Elec       q    Type
REMARK                         _______ _______ _______ _____ _____    ______ ____
ROOT
ATOM      1  N   UNL     1       0.674   7.282  20.910  0.00  0.00    +0.000 N 
ATOM      2  C   UNL     1       0.463   8.551  21.448  0.00  0.00    +0.000 A 
ATOM      3  N   UNL     1      -0.105   8.585  22.673  0.00  0.00    +0.000 NA
ATOM      4  C   UNL     1      -0.514   9.777  23.180  0.00  0.00    +0.000 A 
ATOM      5  C   UNL     1      -0.398  10.929  22.413  0.00  0.00    +0.000 A 
ATOM      6  C   UNL     1      -0.790  12.296  22.515  0.00  0.00    +0.000 A 
ATOM      7  C   UNL     1      -1.500  13.036  23.474  0.00  0.00    +0.000 A 
ATOM      8  C   UNL     1      -1.722  14.373  23.189  0.00  0.00    +0.000 A 
ATOM      9  N   UNL     1      -1.300  14.999  22.073  0.00  0.00    +0.000 NA
ATOM     10  C   UNL     1      -0.613  14.299  21.142  0.00  0.00    +0.000 A 
ATOM     11  C   UNL     1      -0.359  12.943  21.352  0.00  0.00    +0.000 A 
ATOM     12  N   UNL     1       0.286  11.999  20.570  0.00  0.00    +0.000 N 
ATOM     13  C   UNL     1       0.227  10.776  21.192  0.00  0.00    +0.000 A 
ATOM     14  N   UNL     1       0.678   9.623  20.680  0.00  0.00    +0.000 NA
ATOM     15  H   UNL     1       0.466   6.590  21.612  0.00  0.00    +0.000 HD
ENDROOT
BRANCH   1  22
ATOM     16  C   UNL     1       1.836   4.646  21.213  0.00  0.00    +0.000 C 
ATOM     17  C   UNL     1       2.301   5.644  20.194  0.00  0.00    +0.000 A 
ATOM     18  C   UNL     1       3.388   5.311  19.368  0.00  0.00    +0.000 A 
ATOM     19  C   UNL     1       3.903   6.205  18.432  0.00  0.00    +0.000 A 
ATOM     20  C   UNL     1       3.236   7.424  18.373  0.00  0.00    +0.000 A 
ATOM     21  N   UNL     1       2.174   7.786  19.138  0.00  0.00    +0.000 NA
ATOM     22  C   UNL     1       1.713   6.906  20.052  0.00  0.00    +0.000 A 
BRANCH  19  23
ATOM     23  N   UNL     1       5.030   5.896  17.702  0.00  0.00    +0.000 N 
ATOM     24  C   UNL     1       4.978   5.037  16.514  0.00  0.00    +0.000 C 
ATOM     25  C   UNL     1       5.911   5.629  15.428  0.00  0.00    +0.000 C 
ATOM     26  N   UNL     1       7.301   5.827  15.888  0.00  0.00    +0.000 NA
ATOM     27  C   UNL     1       7.304   6.652  17.112  0.00  0.00    +0.000 C 
ATOM     28  C   UNL     1       6.385   6.112  18.233  0.00  0.00    +0.000 C 
ATOM     29  H   UNL     1       7.820   6.316  15.159  0.00  0.00    +0.000 HD
ENDBRANCH  19  23
ENDBRANCH   1  22
BRANCH  12  30
ATOM     30  C   UNL     1       0.914  12.239  19.281  0.00  0.00    +0.000 C 
ATOM     31  C   UNL     1       2.134  13.155  19.336  0.00  0.00    +0.000 C 
ATOM     32  C   UNL     1       2.867  12.886  18.031  0.00  0.00    +0.000 C 
ATOM     33  C   UNL     1       2.524  11.453  17.633  0.00  0.00    +0.000 C 
ATOM     34  C   UNL     1       1.416  10.979  18.566  0.00  0.00    +0.000 C 
ENDBRANCH  12  30
TORSDOF 3
ENDMDL
