MODEL 1
REMARK VINA RESULT:      -9.3      0.000      0.000
REMARK  Name = 
REMARK  8 active torsions:
REMARK  status: ('A' for Active; 'I' for Inactive)
REMARK    1  A    between atoms: C_1  and  C_2
REMARK    2  A    between atoms: N_4  and  C_5
REMARK    3  A    between atoms: C_9  and  N_10
REMARK    4  A    between atoms: N_13  and  C_14
REMARK    5  A    between atoms: C_14  and  C_15
REMARK    6  A    between atoms: C_15  and  C_16
REMARK    7  A    between atoms: C_16  and  N_17
REMARK    8  A    between atoms: N_26  and  C_27
REMARK                            x       y       z     vdW  Elec       q    Type
REMARK                         _______ _______ _______ _____ _____    ______ ____
ROOT
ATOM      1  C   UNL     1       0.985   9.420  17.646  0.00  0.00    +0.000 C 
ENDROOT
BRANCH   1   2
ATOM      2  C   UNL     1       0.367  10.557  18.459  0.00  0.00    +0.000 C 
BRANCH   2   6
ATOM      3  N   UNL     1      -0.946  12.231  21.319  0.00  0.00    +0.000 N 
ATOM      4  C   UNL     1      -0.067  11.064  21.478  0.00  0.00    +0.000 C 
ATOM      5  C   UNL     1      -0.558   9.861  20.644  0.00  0.00    +0.000 C 
ATOM      6  N   UNL     1      -0.834  10.168  19.220  0.00  0.00    +0.000 NA
ATOM      7  C   UNL     1      -1.836  11.261  19.195  0.00  0.00    +0.000 C 
ATOM      8  C   UNL     1      -1.406  12.540  19.950  0.00  0.00    +0.000 C 
BRANCH   3  13
ATOM      9  C   UNL     1      -3.701  13.027  23.711  0.00  0.00    +0.000 A 
ATOM     10  C   UNL     1      -3.087  14.044  24.446  0.00  0.00    +0.000 A 
ATOM     11  C   UNL     1      -1.779  14.422  24.171  0.00  0.00    +0.000 A 
ATOM     12  C   UNL     1      -1.082  13.798  23.140  0.00  0.00    +0.000 A 
ATOM     13  C   UNL     1      -1.664  12.778  22.370  0.00  0.00    +0.000 A 
ATOM     14  C   UNL     1      -2.969  12.381  22.699  0.00  0.00    +0.000 A 
BRANCH   9  18
ATOM     15  C   UNL     1      -7.440  12.601  23.950  0.00  0.00    +0.000 C 
ATOM     16  C   UNL     1      -6.168  13.244  23.462  0.00  0.00    +0.000 C 
ATOM     17  O   UNL     1      -6.216  14.223  22.721  0.00  0.00    +0.000 OA
ATOM     18  N   UNL     1      -5.031  12.616  23.939  0.00  0.00    +0.000 N 
ATOM     19  H   UNL     1      -5.154  11.729  24.407  0.00  0.00    +0.000 HD
ENDBRANCH   9  18
ENDBRANCH   3  13
ENDBRANCH   2   6
ENDBRANCH   1   2
BRANCH   1  20
ATOM     20  C   UNL     1       2.368   9.063  18.173  0.00  0.00    +0.000 C 
BRANCH  20  21
ATOM     21  N   UNL     1       2.374   7.681  18.631  0.00  0.00    +0.000 N 
ATOM     22  C   UNL     1       3.334   6.882  18.090  0.00  0.00    +0.000 A 
ATOM     23  N   UNL     1       4.266   7.279  17.261  0.00  0.00    +0.000 NA
ATOM     24  C   UNL     1       4.734   6.136  16.678  0.00  0.00    +0.000 A 
ATOM     25  C   UNL     1       5.652   6.046  15.628  0.00  0.00    +0.000 A 
ATOM     26  C   UNL     1       5.971   4.788  15.123  0.00  0.00    +0.000 A 
ATOM     27  C   UNL     1       5.399   3.645  15.679  0.00  0.00    +0.000 A 
ATOM     28  C   UNL     1       4.501   3.720  16.758  0.00  0.00    +0.000 A 
ATOM     29  C   UNL     1       4.154   4.996  17.238  0.00  0.00    +0.000 A 
ATOM     30  N   UNL     1       3.346   5.490  18.262  0.00  0.00    +0.000 N 
ATOM     31  H   UNL     1       1.445   7.271  18.684  0.00  0.00    +0.000 HD
BRANCH  30  32
ATOM     32  C   UNL     1       2.593   4.801  19.268  0.00  0.00    +0.000 A 
ATOM     33  C   UNL     1       1.510   3.991  18.865  0.00  0.00    +0.000 A 
ATOM     34  C   UNL     1       0.868   3.149  19.771  0.00  0.00    +0.000 A 
ATOM     35  C   UNL     1       1.287   3.135  21.090  0.00  0.00    +0.000 A 
ATOM     36  F   UNL     1       0.722   2.279  21.951  0.00  0.00    +0.000 F 
ATOM     37  C   UNL     1       2.301   3.983  21.525  0.00  0.00    +0.000 A 
ATOM     38  C   UNL     1       2.953   4.831  20.618  0.00  0.00    +0.000 A 
ENDBRANCH  30  32
ENDBRANCH  20  21
ENDBRANCH   1  20
TORSDOF 7
ENDMDL
MODEL 2
REMARK VINA RESULT:      -9.2      1.041      1.181
REMARK  Name = 
REMARK  8 active torsions:
REMARK  status: ('A' for Active; 'I' for Inactive)
REMARK    1  A    between atoms: C_1  and  C_2
REMARK    2  A    between atoms: N_4  and  C_5
REMARK    3  A    between atoms: C_9  and  N_10
REMARK    4  A    between atoms: N_13  and  C_14
REMARK    5  A    between atoms: C_14  and  C_15
REMARK    6  A    between atoms: C_15  and  C_16
REMARK    7  A    between atoms: C_16  and  N_17
REMARK    8  A    between atoms: N_26  and  C_27
REMARK                            x       y       z     vdW  Elec       q    Type
REMARK                         _______ _______ _______ _____ _____    ______ ____
ROOT
ATOM      1  C   UNL     1       0.925   9.764  18.469  0.00  0.00    +0.000 C 
ENDROOT
BRANCH   1   2
ATOM      2  C   UNL     1       1.339  11.162  18.930  0.00  0.00    +0.000 C 
BRANCH   2   6
ATOM      3  N   UNL     1      -0.604  12.582  21.560  0.00  0.00    +0.000 N 
ATOM      4  C   UNL     1      -1.125  11.455  20.774  0.00  0.00    +0.000 C 
ATOM      5  C   UNL     1      -1.046  11.730  19.258  0.00  0.00    +0.000 C 
ATOM      6  N   UNL     1       0.285  12.180  18.780  0.00  0.00    +0.000 NA
ATOM      7  C   UNL     1       0.634  13.400  19.549  0.00  0.00    +0.000 C 
ATOM      8  C   UNL     1       0.646  13.207  21.083  0.00  0.00    +0.000 C 
BRANCH   3  13
ATOM      9  C   UNL     1      -3.557  13.980  23.368  0.00  0.00    +0.000 A 
ATOM     10  C   UNL     1      -2.920  14.955  24.139  0.00  0.00    +0.000 A 
ATOM     11  C   UNL     1      -1.540  15.110  24.082  0.00  0.00    +0.000 A 
ATOM     12  C   UNL     1      -0.790  14.303  23.231  0.00  0.00    +0.000 A 
ATOM     13  C   UNL     1      -1.391  13.318  22.430  0.00  0.00    +0.000 A 
ATOM     14  C   UNL     1      -2.779  13.148  22.544  0.00  0.00    +0.000 A 
BRANCH   9  18
ATOM     15  C   UNL     1      -7.120  12.817  23.785  0.00  0.00    +0.000 C 
ATOM     16  C   UNL     1      -5.636  12.788  24.043  0.00  0.00    +0.000 C 
ATOM     17  O   UNL     1      -5.153  11.930  24.777  0.00  0.00    +0.000 OA
ATOM     18  N   UNL     1      -4.955  13.792  23.377  0.00  0.00    +0.000 N 
ATOM     19  H   UNL     1      -5.509  14.516  22.941  0.00  0.00    +0.000 HD
ENDBRANCH   9  18
ENDBRANCH   3  13
ENDBRANCH   2   6
ENDBRANCH   1   2
BRANCH   1  20
ATOM     20  C   UNL     1       2.098   9.032  17.832  0.00  0.00    +0.000 C 
BRANCH  20  21
ATOM     21  N   UNL     1       2.178   7.679  18.363  0.00  0.00    +0.000 N 
ATOM     22  C   UNL     1       3.214   6.923  17.906  0.00  0.00    +0.000 A 
ATOM     23  N   UNL     1       4.154   7.343  17.098  0.00  0.00    +0.000 NA
ATOM     24  C   UNL     1       4.725   6.207  16.598  0.00  0.00    +0.000 A 
ATOM     25  C   UNL     1       5.695   6.129  15.594  0.00  0.00    +0.000 A 
ATOM     26  C   UNL     1       6.121   4.874  15.170  0.00  0.00    +0.000 A 
ATOM     27  C   UNL     1       5.604   3.723  15.762  0.00  0.00    +0.000 A 
ATOM     28  C   UNL     1       4.654   3.789  16.796  0.00  0.00    +0.000 A 
ATOM     29  C   UNL     1       4.199   5.059  17.192  0.00  0.00    +0.000 A 
ATOM     30  N   UNL     1       3.312   5.547  18.153  0.00  0.00    +0.000 N 
ATOM     31  H   UNL     1       1.277   7.208  18.398  0.00  0.00    +0.000 HD
BRANCH  30  32
ATOM     32  C   UNL     1       2.563   4.857  19.161  0.00  0.00    +0.000 A 
ATOM     33  C   UNL     1       1.568   3.942  18.756  0.00  0.00    +0.000 A 
ATOM     34  C   UNL     1       0.945   3.104  19.679  0.00  0.00    +0.000 A 
ATOM     35  C   UNL     1       1.293   3.198  21.016  0.00  0.00    +0.000 A 
ATOM     36  F   UNL     1       0.751   2.350  21.899  0.00  0.00    +0.000 F 
ATOM     37  C   UNL     1       2.215   4.148  21.446  0.00  0.00    +0.000 A 
ATOM     38  C   UNL     1       2.847   4.993  20.523  0.00  0.00    +0.000 A 
ENDBRANCH  30  32
ENDBRANCH  20  21
ENDBRANCH   1  20
TORSDOF 7
ENDMDL
MODEL 3
REMARK VINA RESULT:      -9.2      0.733      1.071
REMARK  Name = 
REMARK  8 active torsions:
REMARK  status: ('A' for Active; 'I' for Inactive)
REMARK    1  A    between atoms: C_1  and  C_2
REMARK    2  A    between atoms: N_4  and  C_5
REMARK    3  A    between atoms: C_9  and  N_10
REMARK    4  A    between atoms: N_13  and  C_14
REMARK    5  A    between atoms: C_14  and  C_15
REMARK    6  A    between atoms: C_15  and  C_16
REMARK    7  A    between atoms: C_16  and  N_17
REMARK    8  A    between atoms: N_26  and  C_27
REMARK                            x       y       z     vdW  Elec       q    Type
REMARK                         _______ _______ _______ _____ _____    ______ ____
ROOT
ATOM      1  C   UNL     1       1.045   9.097  17.690  0.00  0.00    +0.000 C 
ENDROOT
BRANCH   1   2
ATOM      2  C   UNL     1       0.393  10.323  18.328  0.00  0.00    +0.000 C 
BRANCH   2   6
ATOM      3  N   UNL     1      -0.792  12.348  21.012  0.00  0.00    +0.000 N 
ATOM      4  C   UNL     1       0.149  11.249  21.268  0.00  0.00    +0.000 C 
ATOM      5  C   UNL     1      -0.344   9.921  20.654  0.00  0.00    +0.000 C 
ATOM      6  N   UNL     1      -0.732  10.007  19.225  0.00  0.00    +0.000 NA
ATOM      7  C   UNL     1      -1.783  11.049  19.121  0.00  0.00    +0.000 C 
ATOM      8  C   UNL     1      -1.360  12.439  19.651  0.00  0.00    +0.000 C 
BRANCH   3  13
ATOM      9  C   UNL     1      -3.502  13.733  23.176  0.00  0.00    +0.000 A 
ATOM     10  C   UNL     1      -2.734  14.517  24.041  0.00  0.00    +0.000 A 
ATOM     11  C   UNL     1      -1.350  14.548  23.924  0.00  0.00    +0.000 A 
ATOM     12  C   UNL     1      -0.725  13.809  22.922  0.00  0.00    +0.000 A 
ATOM     13  C   UNL     1      -1.460  13.017  22.025  0.00  0.00    +0.000 A 
ATOM     14  C   UNL     1      -2.851  12.964  22.195  0.00  0.00    +0.000 A 
BRANCH   9  18
ATOM     15  C   UNL     1      -7.138  12.951  23.797  0.00  0.00    +0.000 C 
ATOM     16  C   UNL     1      -5.655  12.805  24.014  0.00  0.00    +0.000 C 
ATOM     17  O   UNL     1      -5.226  11.974  24.810  0.00  0.00    +0.000 OA
ATOM     18  N   UNL     1      -4.910  13.679  23.241  0.00  0.00    +0.000 N 
ATOM     19  H   UNL     1      -5.411  14.411  22.757  0.00  0.00    +0.000 HD
ENDBRANCH   9  18
ENDBRANCH   3  13
ENDBRANCH   2   6
ENDBRANCH   1   2
BRANCH   1  20
ATOM     20  C   UNL     1       2.380   8.784  18.352  0.00  0.00    +0.000 C 
BRANCH  20  21
ATOM     21  N   UNL     1       2.454   7.362  18.655  0.00  0.00    +0.000 N 
ATOM     22  C   UNL     1       3.454   6.675  18.037  0.00  0.00    +0.000 A 
ATOM     23  N   UNL     1       4.367   7.207  17.265  0.00  0.00    +0.000 NA
ATOM     24  C   UNL     1       4.894   6.160  16.564  0.00  0.00    +0.000 A 
ATOM     25  C   UNL     1       5.819   6.232  15.518  0.00  0.00    +0.000 A 
ATOM     26  C   UNL     1       6.201   5.055  14.880  0.00  0.00    +0.000 A 
ATOM     27  C   UNL     1       5.685   3.831  15.302  0.00  0.00    +0.000 A 
ATOM     28  C   UNL     1       4.781   3.742  16.374  0.00  0.00    +0.000 A 
ATOM     29  C   UNL     1       4.369   4.938  16.989  0.00  0.00    +0.000 A 
ATOM     30  N   UNL     1       3.534   5.276  18.055  0.00  0.00    +0.000 N 
ATOM     31  H   UNL     1       1.545   6.903  18.654  0.00  0.00    +0.000 HD
BRANCH  30  32
ATOM     32  C   UNL     1       2.813   4.443  18.971  0.00  0.00    +0.000 A 
ATOM     33  C   UNL     1       3.401   4.146  20.219  0.00  0.00    +0.000 A 
ATOM     34  C   UNL     1       2.673   3.508  21.222  0.00  0.00    +0.000 A 
ATOM     35  C   UNL     1       1.363   3.137  20.970  0.00  0.00    +0.000 A 
ATOM     36  F   UNL     1       0.635   2.587  21.949  0.00  0.00    +0.000 F 
ATOM     37  C   UNL     1       0.790   3.351  19.720  0.00  0.00    +0.000 A 
ATOM     38  C   UNL     1       1.516   3.994  18.707  0.00  0.00    +0.000 A 
ENDBRANCH  30  32
ENDBRANCH  20  21
ENDBRANCH   1  20
TORSDOF 7
ENDMDL
MODEL 4
REMARK VINA RESULT:      -9.2      0.917      1.472
REMARK  Name = 
REMARK  8 active torsions:
REMARK  status: ('A' for Active; 'I' for Inactive)
REMARK    1  A    between atoms: C_1  and  C_2
REMARK    2  A    between atoms: N_4  and  C_5
REMARK    3  A    between atoms: C_9  and  N_10
REMARK    4  A    between atoms: N_13  and  C_14
REMARK    5  A    between atoms: C_14  and  C_15
REMARK    6  A    between atoms: C_15  and  C_16
REMARK    7  A    between atoms: C_16  and  N_17
REMARK    8  A    between atoms: N_26  and  C_27
REMARK                            x       y       z     vdW  Elec       q    Type
REMARK                         _______ _______ _______ _____ _____    ______ ____
ROOT
ATOM      1  C   UNL     1       1.469   9.319  19.165  0.00  0.00    +0.000 C 
ENDROOT
BRANCH   1   2
ATOM      2  C   UNL     1       0.341  10.242  18.705  0.00  0.00    +0.000 C 
BRANCH   2   6
ATOM      3  N   UNL     1      -1.479  11.930  21.264  0.00  0.00    +0.000 N 
ATOM      4  C   UNL     1      -1.892  12.043  19.859  0.00  0.00    +0.000 C 
ATOM      5  C   UNL     1      -0.717  12.464  18.950  0.00  0.00    +0.000 C 
ATOM      6  N   UNL     1       0.511  11.648  19.111  0.00  0.00    +0.000 NA
ATOM      7  C   UNL     1       0.904  11.729  20.539  0.00  0.00    +0.000 C 
ATOM      8  C   UNL     1      -0.187  11.263  21.530  0.00  0.00    +0.000 C 
BRANCH   3  13
ATOM      9  C   UNL     1      -3.861  13.779  23.467  0.00  0.00    +0.000 A 
ATOM     10  C   UNL     1      -2.951  14.496  24.248  0.00  0.00    +0.000 A 
ATOM     11  C   UNL     1      -1.583  14.333  24.065  0.00  0.00    +0.000 A 
ATOM     12  C   UNL     1      -1.116  13.466  23.081  0.00  0.00    +0.000 A 
ATOM     13  C   UNL     1      -1.996  12.734  22.266  0.00  0.00    +0.000 A 
ATOM     14  C   UNL     1      -3.372  12.879  22.504  0.00  0.00    +0.000 A 
BRANCH   9  18
ATOM     15  C   UNL     1      -7.573  13.385  24.002  0.00  0.00    +0.000 C 
ATOM     16  C   UNL     1      -6.133  12.947  24.055  0.00  0.00    +0.000 C 
ATOM     17  O   UNL     1      -5.842  11.828  24.469  0.00  0.00    +0.000 OA
ATOM     18  N   UNL     1      -5.258  13.919  23.600  0.00  0.00    +0.000 N 
ATOM     19  H   UNL     1      -5.634  14.843  23.444  0.00  0.00    +0.000 HD
ENDBRANCH   9  18
ENDBRANCH   3  13
ENDBRANCH   2   6
ENDBRANCH   1   2
BRANCH   1  20
ATOM     20  C   UNL     1       2.019   8.509  18.000  0.00  0.00    +0.000 C 
BRANCH  20  21
ATOM     21  N   UNL     1       2.205   7.125  18.411  0.00  0.00    +0.000 N 
ATOM     22  C   UNL     1       3.296   6.495  17.894  0.00  0.00    +0.000 A 
ATOM     23  N   UNL     1       4.198   7.056  17.129  0.00  0.00    +0.000 NA
ATOM     24  C   UNL     1       4.855   6.017  16.534  0.00  0.00    +0.000 A 
ATOM     25  C   UNL     1       5.825   6.103  15.531  0.00  0.00    +0.000 A 
ATOM     26  C   UNL     1       6.347   4.926  15.001  0.00  0.00    +0.000 A 
ATOM     27  C   UNL     1       5.923   3.691  15.488  0.00  0.00    +0.000 A 
ATOM     28  C   UNL     1       4.974   3.592  16.520  0.00  0.00    +0.000 A 
ATOM     29  C   UNL     1       4.422   4.783  17.024  0.00  0.00    +0.000 A 
ATOM     30  N   UNL     1       3.502   5.114  18.020  0.00  0.00    +0.000 N 
ATOM     31  H   UNL     1       1.344   6.583  18.401  0.00  0.00    +0.000 HD
BRANCH  30  32
ATOM     32  C   UNL     1       2.812   4.282  18.961  0.00  0.00    +0.000 A 
ATOM     33  C   UNL     1       3.515   3.813  20.090  0.00  0.00    +0.000 A 
ATOM     34  C   UNL     1       2.851   3.167  21.132  0.00  0.00    +0.000 A 
ATOM     35  C   UNL     1       1.485   2.962  21.034  0.00  0.00    +0.000 A 
ATOM     36  F   UNL     1       0.829   2.405  22.060  0.00  0.00    +0.000 F 
ATOM     37  C   UNL     1       0.787   3.348  19.894  0.00  0.00    +0.000 A 
ATOM     38  C   UNL     1       1.448   3.999  18.844  0.00  0.00    +0.000 A 
ENDBRANCH  30  32
ENDBRANCH  20  21
ENDBRANCH   1  20
TORSDOF 7
ENDMDL
MODEL 5
REMARK VINA RESULT:      -9.1      2.150      4.002
REMARK  Name = 
REMARK  8 active torsions:
REMARK  status: ('A' for Active; 'I' for Inactive)
REMARK    1  A    between atoms: C_1  and  C_2
REMARK    2  A    between atoms: N_4  and  C_5
REMARK    3  A    between atoms: C_9  and  N_10
REMARK    4  A    between atoms: N_13  and  C_14
REMARK    5  A    between atoms: C_14  and  C_15
REMARK    6  A    between atoms: C_15  and  C_16
REMARK    7  A    between atoms: C_16  and  N_17
REMARK    8  A    between atoms: N_26  and  C_27
REMARK                            x       y       z     vdW  Elec       q    Type
REMARK                         _______ _______ _______ _____ _____    ______ ____
ROOT
ATOM      1  C   UNL     1       1.727   9.472  17.956  0.00  0.00    +0.000 C 
ENDROOT
BRANCH   1   2
ATOM      2  C   UNL     1       0.369  10.112  18.243  0.00  0.00    +0.000 C 
BRANCH   2   6
ATOM      3  N   UNL     1      -1.326  11.752  20.916  0.00  0.00    +0.000 N 
ATOM      4  C   UNL     1      -1.898  11.747  19.562  0.00  0.00    +0.000 C 
ATOM      5  C   UNL     1      -0.878  12.230  18.509  0.00  0.00    +0.000 C 
ATOM      6  N   UNL     1       0.437  11.548  18.565  0.00  0.00    +0.000 NA
ATOM      7  C   UNL     1       0.972  11.744  19.934  0.00  0.00    +0.000 C 
ATOM      8  C   UNL     1       0.048  11.230  21.062  0.00  0.00    +0.000 C 
BRANCH   3  13
ATOM      9  C   UNL     1      -3.637  13.599  23.193  0.00  0.00    +0.000 A 
ATOM     10  C   UNL     1      -2.703  14.316  23.945  0.00  0.00    +0.000 A 
ATOM     11  C   UNL     1      -1.342  14.154  23.719  0.00  0.00    +0.000 A 
ATOM     12  C   UNL     1      -0.906  13.287  22.720  0.00  0.00    +0.000 A 
ATOM     13  C   UNL     1      -1.812  12.556  21.934  0.00  0.00    +0.000 A 
ATOM     14  C   UNL     1      -3.179  12.700  22.215  0.00  0.00    +0.000 A 
BRANCH   9  18
ATOM     15  C   UNL     1      -7.303  13.266  24.014  0.00  0.00    +0.000 C 
ATOM     16  C   UNL     1      -5.849  12.879  24.082  0.00  0.00    +0.000 C 
ATOM     17  O   UNL     1      -5.502  11.890  24.722  0.00  0.00    +0.000 OA
ATOM     18  N   UNL     1      -5.030  13.739  23.371  0.00  0.00    +0.000 N 
ATOM     19  H   UNL     1      -5.442  14.597  23.031  0.00  0.00    +0.000 HD
ENDBRANCH   9  18
ENDBRANCH   3  13
ENDBRANCH   2   6
ENDBRANCH   1   2
BRANCH   1  20
ATOM     20  C   UNL     1       2.035   8.372  18.962  0.00  0.00    +0.000 C 
BRANCH  20  21
ATOM     21  N   UNL     1       2.913   7.384  18.354  0.00  0.00    +0.000 N 
ATOM     22  C   UNL     1       2.789   6.111  18.822  0.00  0.00    +0.000 A 
ATOM     23  N   UNL     1       1.910   5.717  19.708  0.00  0.00    +0.000 NA
ATOM     24  C   UNL     1       2.381   4.521  20.169  0.00  0.00    +0.000 A 
ATOM     25  C   UNL     1       1.858   3.763  21.221  0.00  0.00    +0.000 A 
ATOM     26  C   UNL     1       2.510   2.590  21.589  0.00  0.00    +0.000 A 
ATOM     27  C   UNL     1       3.646   2.174  20.898  0.00  0.00    +0.000 A 
ATOM     28  C   UNL     1       4.162   2.909  19.817  0.00  0.00    +0.000 A 
ATOM     29  C   UNL     1       3.523   4.114  19.475  0.00  0.00    +0.000 A 
ATOM     30  N   UNL     1       3.696   5.093  18.497  0.00  0.00    +0.000 N 
ATOM     31  H   UNL     1       3.869   7.713  18.237  0.00  0.00    +0.000 HD
BRANCH  30  32
ATOM     32  C   UNL     1       4.623   5.164  17.406  0.00  0.00    +0.000 A 
ATOM     33  C   UNL     1       5.782   5.955  17.554  0.00  0.00    +0.000 A 
ATOM     34  C   UNL     1       6.808   5.910  16.612  0.00  0.00    +0.000 A 
ATOM     35  C   UNL     1       6.666   5.093  15.503  0.00  0.00    +0.000 A 
ATOM     36  F   UNL     1       7.675   4.990  14.628  0.00  0.00    +0.000 F 
ATOM     37  C   UNL     1       5.498   4.364  15.299  0.00  0.00    +0.000 A 
ATOM     38  C   UNL     1       4.463   4.405  16.243  0.00  0.00    +0.000 A 
ENDBRANCH  30  32
ENDBRANCH  20  21
ENDBRANCH   1  20
TORSDOF 7
ENDMDL
MODEL 6
REMARK VINA RESULT:      -9.0      0.971      1.584
REMARK  Name = 
REMARK  8 active torsions:
REMARK  status: ('A' for Active; 'I' for Inactive)
REMARK    1  A    between atoms: C_1  and  C_2
REMARK    2  A    between atoms: N_4  and  C_5
REMARK    3  A    between atoms: C_9  and  N_10
REMARK    4  A    between atoms: N_13  and  C_14
REMARK    5  A    between atoms: C_14  and  C_15
REMARK    6  A    between atoms: C_15  and  C_16
REMARK    7  A    between atoms: C_16  and  N_17
REMARK    8  A    between atoms: N_26  and  C_27
REMARK                            x       y       z     vdW  Elec       q    Type
REMARK                         _______ _______ _______ _____ _____    ______ ____
ROOT
ATOM      1  C   UNL     1       0.978   9.343  19.103  0.00  0.00    +0.000 C 
ENDROOT
BRANCH   1   2
ATOM      2  C   UNL     1       1.009   8.850  20.550  0.00  0.00    +0.000 C 
BRANCH   2   6
ATOM      3  N   UNL     1      -1.099  11.265  22.111  0.00  0.00    +0.000 N 
ATOM      4  C   UNL     1      -0.324  11.616  20.913  0.00  0.00    +0.000 C 
ATOM      5  C   UNL     1       1.169  11.262  21.075  0.00  0.00    +0.000 C 
ATOM      6  N   UNL     1       1.430   9.872  21.524  0.00  0.00    +0.000 NA
ATOM      7  C   UNL     1       0.710   9.688  22.808  0.00  0.00    +0.000 C 
ATOM      8  C   UNL     1      -0.811   9.956  22.733  0.00  0.00    +0.000 C 
BRANCH   3  13
ATOM      9  C   UNL     1      -3.735  13.098  24.017  0.00  0.00    +0.000 A 
ATOM     10  C   UNL     1      -3.020  14.248  24.360  0.00  0.00    +0.000 A 
ATOM     11  C   UNL     1      -1.686  14.384  23.995  0.00  0.00    +0.000 A 
ATOM     12  C   UNL     1      -1.064  13.377  23.263  0.00  0.00    +0.000 A 
ATOM     13  C   UNL     1      -1.749  12.209  22.888  0.00  0.00    +0.000 A 
ATOM     14  C   UNL     1      -3.080  12.074  23.311  0.00  0.00    +0.000 A 
BRANCH   9  18
ATOM     15  C   UNL     1      -7.497  13.087  24.286  0.00  0.00    +0.000 C 
ATOM     16  C   UNL     1      -6.177  13.378  23.620  0.00  0.00    +0.000 C 
ATOM     17  O   UNL     1      -6.145  13.969  22.544  0.00  0.00    +0.000 OA
ATOM     18  N   UNL     1      -5.094  12.916  24.349  0.00  0.00    +0.000 N 
ATOM     19  H   UNL     1      -5.288  12.310  25.133  0.00  0.00    +0.000 HD
ENDBRANCH   9  18
ENDBRANCH   3  13
ENDBRANCH   2   6
ENDBRANCH   1   2
BRANCH   1  20
ATOM     20  C   UNL     1       2.113   8.730  18.296  0.00  0.00    +0.000 C 
BRANCH  20  21
ATOM     21  N   UNL     1       2.263   7.326  18.649  0.00  0.00    +0.000 N 
ATOM     22  C   UNL     1       3.307   6.675  18.065  0.00  0.00    +0.000 A 
ATOM     23  N   UNL     1       4.198   7.231  17.284  0.00  0.00    +0.000 NA
ATOM     24  C   UNL     1       4.790   6.191  16.624  0.00  0.00    +0.000 A 
ATOM     25  C   UNL     1       5.721   6.279  15.585  0.00  0.00    +0.000 A 
ATOM     26  C   UNL     1       6.175   5.104  14.992  0.00  0.00    +0.000 A 
ATOM     27  C   UNL     1       5.724   3.868  15.452  0.00  0.00    +0.000 A 
ATOM     28  C   UNL     1       4.814   3.766  16.518  0.00  0.00    +0.000 A 
ATOM     29  C   UNL     1       4.329   4.957  17.087  0.00  0.00    +0.000 A 
ATOM     30  N   UNL     1       3.464   5.284  18.132  0.00  0.00    +0.000 N 
ATOM     31  H   UNL     1       1.381   6.817  18.655  0.00  0.00    +0.000 HD
BRANCH  30  32
ATOM     32  C   UNL     1       2.780   4.444  19.070  0.00  0.00    +0.000 A 
ATOM     33  C   UNL     1       3.498   3.943  20.176  0.00  0.00    +0.000 A 
ATOM     34  C   UNL     1       2.845   3.287  21.218  0.00  0.00    +0.000 A 
ATOM     35  C   UNL     1       1.475   3.102  21.143  0.00  0.00    +0.000 A 
ATOM     36  F   UNL     1       0.830   2.535  22.171  0.00  0.00    +0.000 F 
ATOM     37  C   UNL     1       0.760   3.519  20.024  0.00  0.00    +0.000 A 
ATOM     38  C   UNL     1       1.410   4.182  18.974  0.00  0.00    +0.000 A 
ENDBRANCH  30  32
ENDBRANCH  20  21
ENDBRANCH   1  20
TORSDOF 7
ENDMDL
MODEL 7
REMARK VINA RESULT:      -9.0      1.600      2.649
REMARK  Name = 
REMARK  8 active torsions:
REMARK  status: ('A' for Active; 'I' for Inactive)
REMARK    1  A    between atoms: C_1  and  C_2
REMARK    2  A    between atoms: N_4  and  C_5
REMARK    3  A    between atoms: C_9  and  N_10
REMARK    4  A    between atoms: N_13  and  C_14
REMARK    5  A    between atoms: C_14  and  C_15
REMARK    6  A    between atoms: C_15  and  C_16
REMARK    7  A    between atoms: C_16  and  N_17
REMARK    8  A    between atoms: N_26  and  C_27
REMARK                            x       y       z     vdW  Elec       q    Type
REMARK                         _______ _______ _______ _____ _____    ______ ____
ROOT
ATOM      1  C   UNL     1       0.744   9.607  18.002  0.00  0.00    +0.000 C 
ENDROOT
BRANCH   1   2
ATOM      2  C   UNL     1       0.370   9.810  19.470  0.00  0.00    +0.000 C 
BRANCH   2   6
ATOM      3  N   UNL     1      -1.549  11.769  21.748  0.00  0.00    +0.000 N 
ATOM      4  C   UNL     1      -1.629  12.017  20.302  0.00  0.00    +0.000 C 
ATOM      5  C   UNL     1      -0.230  12.200  19.675  0.00  0.00    +0.000 C 
ATOM      6  N   UNL     1       0.741  11.130  20.009  0.00  0.00    +0.000 NA
ATOM      7  C   UNL     1       0.838  11.075  21.487  0.00  0.00    +0.000 C 
ATOM      8  C   UNL     1      -0.508  10.827  22.208  0.00  0.00    +0.000 C 
BRANCH   3  13
ATOM      9  C   UNL     1      -1.899  14.457  24.317  0.00  0.00    +0.000 A 
ATOM     10  C   UNL     1      -3.231  14.256  24.686  0.00  0.00    +0.000 A 
ATOM     11  C   UNL     1      -3.996  13.276  24.065  0.00  0.00    +0.000 A 
ATOM     12  C   UNL     1      -3.423  12.473  23.083  0.00  0.00    +0.000 A 
ATOM     13  C   UNL     1      -2.084  12.634  22.689  0.00  0.00    +0.000 A 
ATOM     14  C   UNL     1      -1.348  13.662  23.296  0.00  0.00    +0.000 A 
BRANCH   9  18
ATOM     15  C   UNL     1       0.325  17.364  25.224  0.00  0.00    +0.000 C 
ATOM     16  C   UNL     1      -0.597  16.579  24.328  0.00  0.00    +0.000 C 
ATOM     17  O   UNL     1      -0.849  16.982  23.195  0.00  0.00    +0.000 OA
ATOM     18  N   UNL     1      -1.075  15.426  24.926  0.00  0.00    +0.000 N 
ATOM     19  H   UNL     1      -0.905  15.313  25.916  0.00  0.00    +0.000 HD
ENDBRANCH   9  18
ENDBRANCH   3  13
ENDBRANCH   2   6
ENDBRANCH   1   2
BRANCH   1  20
ATOM     20  C   UNL     1       2.164   9.075  17.871  0.00  0.00    +0.000 C 
BRANCH  20  21
ATOM     21  N   UNL     1       2.229   7.718  18.392  0.00  0.00    +0.000 N 
ATOM     22  C   UNL     1       3.250   6.950  17.922  0.00  0.00    +0.000 A 
ATOM     23  N   UNL     1       4.189   7.361  17.108  0.00  0.00    +0.000 NA
ATOM     24  C   UNL     1       4.739   6.221  16.596  0.00  0.00    +0.000 A 
ATOM     25  C   UNL     1       5.699   6.136  15.583  0.00  0.00    +0.000 A 
ATOM     26  C   UNL     1       6.103   4.877  15.147  0.00  0.00    +0.000 A 
ATOM     27  C   UNL     1       5.574   3.730  15.736  0.00  0.00    +0.000 A 
ATOM     28  C   UNL     1       4.634   3.803  16.778  0.00  0.00    +0.000 A 
ATOM     29  C   UNL     1       4.201   5.076  17.187  0.00  0.00    +0.000 A 
ATOM     30  N   UNL     1       3.330   5.570  18.158  0.00  0.00    +0.000 N 
ATOM     31  H   UNL     1       1.321   7.259  18.432  0.00  0.00    +0.000 HD
BRANCH  30  32
ATOM     32  C   UNL     1       2.579   4.885  19.168  0.00  0.00    +0.000 A 
ATOM     33  C   UNL     1       1.542   4.016  18.766  0.00  0.00    +0.000 A 
ATOM     34  C   UNL     1       0.910   3.180  19.685  0.00  0.00    +0.000 A 
ATOM     35  C   UNL     1       1.293   3.230  21.015  0.00  0.00    +0.000 A 
ATOM     36  F   UNL     1       0.740   2.382  21.891  0.00  0.00    +0.000 F 
ATOM     37  C   UNL     1       2.258   4.135  21.444  0.00  0.00    +0.000 A 
ATOM     38  C   UNL     1       2.899   4.978  20.526  0.00  0.00    +0.000 A 
ENDBRANCH  30  32
ENDBRANCH  20  21
ENDBRANCH   1  20
TORSDOF 7
ENDMDL
MODEL 8
REMARK VINA RESULT:      -8.8      1.548      2.364
REMARK  Name = 
REMARK  8 active torsions:
REMARK  status: ('A' for Active; 'I' for Inactive)
REMARK    1  A    between atoms: C_1  and  C_2
REMARK    2  A    between atoms: N_4  and  C_5
REMARK    3  A    between atoms: C_9  and  N_10
REMARK    4  A    between atoms: N_13  and  C_14
REMARK    5  A    between atoms: C_14  and  C_15
REMARK    6  A    between atoms: C_15  and  C_16
REMARK    7  A    between atoms: C_16  and  N_17
REMARK    8  A    between atoms: N_26  and  C_27
REMARK                            x       y       z     vdW  Elec       q    Type
REMARK                         _______ _______ _______ _____ _____    ______ ____
ROOT
ATOM      1  C   UNL     1       0.796   9.624  18.080  0.00  0.00    +0.000 C 
ENDROOT
BRANCH   1   2
ATOM      2  C   UNL     1       0.637  10.221  19.478  0.00  0.00    +0.000 C 
BRANCH   2   6
ATOM      3  N   UNL     1      -2.006  12.130  20.919  0.00  0.00    +0.000 N 
ATOM      4  C   UNL     1      -2.009  11.821  19.483  0.00  0.00    +0.000 C 
ATOM      5  C   UNL     1      -0.675  12.209  18.812  0.00  0.00    +0.000 C 
ATOM      6  N   UNL     1       0.535  11.691  19.496  0.00  0.00    +0.000 NA
ATOM      7  C   UNL     1       0.492  12.187  20.893  0.00  0.00    +0.000 C 
ATOM      8  C   UNL     1      -0.782  11.791  21.674  0.00  0.00    +0.000 C 
BRANCH   3  13
ATOM      9  C   UNL     1      -3.348  14.994  22.904  0.00  0.00    +0.000 A 
ATOM     10  C   UNL     1      -4.717  14.788  22.718  0.00  0.00    +0.000 A 
ATOM     11  C   UNL     1      -5.172  13.745  21.921  0.00  0.00    +0.000 A 
ATOM     12  C   UNL     1      -4.255  12.885  21.321  0.00  0.00    +0.000 A 
ATOM     13  C   UNL     1      -2.871  13.049  21.491  0.00  0.00    +0.000 A 
ATOM     14  C   UNL     1      -2.437  14.139  22.261  0.00  0.00    +0.000 A 
BRANCH   9  18
ATOM     15  C   UNL     1      -2.080  17.237  25.659  0.00  0.00    +0.000 C 
ATOM     16  C   UNL     1      -2.535  15.929  25.064  0.00  0.00    +0.000 C 
ATOM     17  O   UNL     1      -2.610  14.924  25.766  0.00  0.00    +0.000 OA
ATOM     18  N   UNL     1      -2.835  16.027  23.716  0.00  0.00    +0.000 N 
ATOM     19  H   UNL     1      -2.571  16.881  23.244  0.00  0.00    +0.000 HD
ENDBRANCH   9  18
ENDBRANCH   3  13
ENDBRANCH   2   6
ENDBRANCH   1   2
BRANCH   1  20
ATOM     20  C   UNL     1       2.197   9.061  17.885  0.00  0.00    +0.000 C 
BRANCH  20  21
ATOM     21  N   UNL     1       2.254   7.702  18.403  0.00  0.00    +0.000 N 
ATOM     22  C   UNL     1       3.271   6.929  17.931  0.00  0.00    +0.000 A 
ATOM     23  N   UNL     1       4.212   7.338  17.118  0.00  0.00    +0.000 NA
ATOM     24  C   UNL     1       4.757   6.196  16.602  0.00  0.00    +0.000 A 
ATOM     25  C   UNL     1       5.716   6.109  15.589  0.00  0.00    +0.000 A 
ATOM     26  C   UNL     1       6.114   4.849  15.150  0.00  0.00    +0.000 A 
ATOM     27  C   UNL     1       5.578   3.703  15.736  0.00  0.00    +0.000 A 
ATOM     28  C   UNL     1       4.639   3.778  16.778  0.00  0.00    +0.000 A 
ATOM     29  C   UNL     1       4.212   5.053  17.190  0.00  0.00    +0.000 A 
ATOM     30  N   UNL     1       3.343   5.549  18.163  0.00  0.00    +0.000 N 
ATOM     31  H   UNL     1       1.344   7.248  18.441  0.00  0.00    +0.000 HD
BRANCH  30  32
ATOM     32  C   UNL     1       2.589   4.865  19.171  0.00  0.00    +0.000 A 
ATOM     33  C   UNL     1       1.556   3.993  18.767  0.00  0.00    +0.000 A 
ATOM     34  C   UNL     1       0.921   3.158  19.684  0.00  0.00    +0.000 A 
ATOM     35  C   UNL     1       1.297   3.212  21.016  0.00  0.00    +0.000 A 
ATOM     36  F   UNL     1       0.741   2.366  21.891  0.00  0.00    +0.000 F 
ATOM     37  C   UNL     1       2.259   4.120  21.448  0.00  0.00    +0.000 A 
ATOM     38  C   UNL     1       2.902   4.962  20.530  0.00  0.00    +0.000 A 
ENDBRANCH  30  32
ENDBRANCH  20  21
ENDBRANCH   1  20
TORSDOF 7
ENDMDL
MODEL 9
REMARK VINA RESULT:      -8.7      1.260      1.554
REMARK  Name = 
REMARK  8 active torsions:
REMARK  status: ('A' for Active; 'I' for Inactive)
REMARK    1  A    between atoms: C_1  and  C_2
REMARK    2  A    between atoms: N_4  and  C_5
REMARK    3  A    between atoms: C_9  and  N_10
REMARK    4  A    between atoms: N_13  and  C_14
REMARK    5  A    between atoms: C_14  and  C_15
REMARK    6  A    between atoms: C_15  and  C_16
REMARK    7  A    between atoms: C_16  and  N_17
REMARK    8  A    between atoms: N_26  and  C_27
REMARK                            x       y       z     vdW  Elec       q    Type
REMARK                         _______ _______ _______ _____ _____    ______ ____
ROOT
ATOM      1  C   UNL     1       1.131   9.591  17.829  0.00  0.00    +0.000 C 
ENDROOT
BRANCH   1   2
ATOM      2  C   UNL     1       1.080  10.907  18.606  0.00  0.00    +0.000 C 
BRANCH   2   6
ATOM      3  N   UNL     1      -1.597  12.231  20.552  0.00  0.00    +0.000 N 
ATOM      4  C   UNL     1      -0.316  12.945  20.465  0.00  0.00    +0.000 C 
ATOM      5  C   UNL     1       0.875  12.024  20.803  0.00  0.00    +0.000 C 
ATOM      6  N   UNL     1       0.895  10.741  20.058  0.00  0.00    +0.000 NA
ATOM      7  C   UNL     1      -0.389  10.054  20.340  0.00  0.00    +0.000 C 
ATOM      8  C   UNL     1      -1.647  10.874  19.971  0.00  0.00    +0.000 C 
BRANCH   3  13
ATOM      9  C   UNL     1      -4.664  13.706  22.090  0.00  0.00    +0.000 A 
ATOM     10  C   UNL     1      -4.471  13.316  23.418  0.00  0.00    +0.000 A 
ATOM     11  C   UNL     1      -3.368  12.551  23.776  0.00  0.00    +0.000 A 
ATOM     12  C   UNL     1      -2.435  12.190  22.807  0.00  0.00    +0.000 A 
ATOM     13  C   UNL     1      -2.585  12.569  21.463  0.00  0.00    +0.000 A 
ATOM     14  C   UNL     1      -3.732  13.299  21.119  0.00  0.00    +0.000 A 
BRANCH   9  18
ATOM     15  C   UNL     1      -7.914  15.123  20.806  0.00  0.00    +0.000 C 
ATOM     16  C   UNL     1      -6.989  14.023  21.259  0.00  0.00    +0.000 C 
ATOM     17  O   UNL     1      -7.360  12.853  21.229  0.00  0.00    +0.000 OA
ATOM     18  N   UNL     1      -5.757  14.496  21.677  0.00  0.00    +0.000 N 
ATOM     19  H   UNL     1      -5.660  15.495  21.794  0.00  0.00    +0.000 HD
ENDBRANCH   9  18
ENDBRANCH   3  13
ENDBRANCH   2   6
ENDBRANCH   1   2
BRANCH   1  20
ATOM     20  C   UNL     1       2.541   9.018  17.823  0.00  0.00    +0.000 C 
BRANCH  20  21
ATOM     21  N   UNL     1       2.518   7.658  18.343  0.00  0.00    +0.000 N 
ATOM     22  C   UNL     1       3.485   6.826  17.869  0.00  0.00    +0.000 A 
ATOM     23  N   UNL     1       4.447   7.176  17.053  0.00  0.00    +0.000 NA
ATOM     24  C   UNL     1       4.920   6.003  16.538  0.00  0.00    +0.000 A 
ATOM     25  C   UNL     1       5.870   5.856  15.523  0.00  0.00    +0.000 A 
ATOM     26  C   UNL     1       6.190   4.574  15.085  0.00  0.00    +0.000 A 
ATOM     27  C   UNL     1       5.589   3.463  15.674  0.00  0.00    +0.000 A 
ATOM     28  C   UNL     1       4.659   3.596  16.719  0.00  0.00    +0.000 A 
ATOM     29  C   UNL     1       4.310   4.895  17.130  0.00  0.00    +0.000 A 
ATOM     30  N   UNL     1       3.475   5.444  18.104  0.00  0.00    +0.000 N 
ATOM     31  H   UNL     1       1.582   7.259  18.385  0.00  0.00    +0.000 HD
BRANCH  30  32
ATOM     32  C   UNL     1       2.684   4.808  19.115  0.00  0.00    +0.000 A 
ATOM     33  C   UNL     1       1.572   4.036  18.717  0.00  0.00    +0.000 A 
ATOM     34  C   UNL     1       0.885   3.240  19.633  0.00  0.00    +0.000 A 
ATOM     35  C   UNL     1       1.290   3.237  20.957  0.00  0.00    +0.000 A 
ATOM     36  F   UNL     1       0.680   2.424  21.830  0.00  0.00    +0.000 F 
ATOM     37  C   UNL     1       2.334   4.051  21.385  0.00  0.00    +0.000 A 
ATOM     38  C   UNL     1       3.030   4.852  20.469  0.00  0.00    +0.000 A 
ENDBRANCH  30  32
ENDBRANCH  20  21
ENDBRANCH   1  20
TORSDOF 7
ENDMDL
