MODEL 1
REMARK VINA RESULT:      -8.0      0.000      0.000
REMARK  Name = 
REMARK  15 active torsions:
REMARK  status: ('A' for Active; 'I' for Inactive)
REMARK    1  A    between atoms: C_2  and  C_3
REMARK    2  A    between atoms: C_2  and  C_11
REMARK    3  A    between atoms: C_3  and  C_4
REMARK    4  A    between atoms: C_4  and  C_5
REMARK    5  A    between atoms: C_16  and  O_17
REMARK    6  A    between atoms: O_17  and  C_18
REMARK    7  A    between atoms: C_18  and  C_19
REMARK    8  A    between atoms: C_19  and  O_20
REMARK    9  A    between atoms: C_19  and  C_21
REMARK   10  A    between atoms: C_21  and  N_22
REMARK   11  A    between atoms: N_22  and  C_23
REMARK   12  A    between atoms: C_23  and  C_24
REMARK   13  A    between atoms: C_24  and  C_25
REMARK   14  A    between atoms: C_25  and  C_26
REMARK   15  A    between atoms: C_25  and  C_32
REMARK                            x       y       z     vdW  Elec       q    Type
REMARK                         _______ _______ _______ _____ _____    ______ ____
ROOT
ATOM      1  C   UNL     1       2.343  12.246  18.510  0.00  0.00    +0.000 C 
ENDROOT
BRANCH   1   2
ATOM      2  O   UNL     1       2.403  12.641  17.135  0.00  0.00    +0.000 OA
ATOM      3  H   UNL     1       1.546  12.433  16.725  0.00  0.00    +0.000 HD
ENDBRANCH   1   2
BRANCH   1   4
ATOM      4  C   UNL     1       1.315  13.139  19.227  0.00  0.00    +0.000 C 
BRANCH   4   5
ATOM      5  O   UNL     1       0.568  12.401  20.209  0.00  0.00    +0.000 OA
BRANCH   5  11
ATOM      6  C   UNL     1      -1.799  12.196  19.816  0.00  0.00    +0.000 A 
ATOM      7  C   UNL     1      -3.096  12.711  20.034  0.00  0.00    +0.000 A 
ATOM      8  C   UNL     1      -3.317  13.814  20.858  0.00  0.00    +0.000 A 
ATOM      9  C   UNL     1      -2.249  14.400  21.516  0.00  0.00    +0.000 A 
ATOM     10  C   UNL     1      -0.962  13.902  21.325  0.00  0.00    +0.000 A 
ATOM     11  C   UNL     1      -0.712  12.838  20.438  0.00  0.00    +0.000 A 
BRANCH   6  13
ATOM     12  O   UNL     1      -1.302   9.937  19.384  0.00  0.00    +0.000 OA
ATOM     13  C   UNL     1      -1.739  10.991  18.915  0.00  0.00    +0.000 C 
BRANCH  13  14
ATOM     14  C   UNL     1      -2.190  11.061  17.471  0.00  0.00    +0.000 C 
BRANCH  14  15
ATOM     15  C   UNL     1      -3.405  10.151  17.237  0.00  0.00    +0.000 C 
BRANCH  15  16
ATOM     16  C   UNL     1      -4.707  10.847  17.547  0.00  0.00    +0.000 A 
ATOM     17  C   UNL     1      -5.044  12.044  16.902  0.00  0.00    +0.000 A 
ATOM     18  C   UNL     1      -6.239  12.698  17.207  0.00  0.00    +0.000 A 
ATOM     19  C   UNL     1      -7.106  12.163  18.157  0.00  0.00    +0.000 A 
ATOM     20  C   UNL     1      -6.782  10.969  18.801  0.00  0.00    +0.000 A 
ATOM     21  C   UNL     1      -5.587  10.314  18.497  0.00  0.00    +0.000 A 
ENDBRANCH  15  16
ENDBRANCH  14  15
ENDBRANCH  13  14
ENDBRANCH   6  13
ENDBRANCH   5  11
ENDBRANCH   4   5
ENDBRANCH   1   4
BRANCH   1  22
ATOM     22  C   UNL     1       1.938  10.762  18.675  0.00  0.00    +0.000 C 
BRANCH  22  23
ATOM     23  N   UNL     1       2.068   9.956  17.452  0.00  0.00    +0.000 NA
ATOM     24  H   UNL     1       3.038   9.953  17.136  0.00  0.00    +0.000 HD
BRANCH  23  25
ATOM     25  C   UNL     1       1.613   8.582  17.712  0.00  0.00    +0.000 C 
BRANCH  25  26
ATOM     26  C   UNL     1       2.650   7.811  18.536  0.00  0.00    +0.000 C 
BRANCH  26  27
ATOM     27  C   UNL     1       3.039   6.444  17.902  0.00  0.00    +0.000 C 
BRANCH  27  28
ATOM     28  C   UNL     1       4.556   6.236  17.856  0.00  0.00    +0.000 A 
ATOM     29  C   UNL     1       5.314   6.511  16.705  0.00  0.00    +0.000 A 
ATOM     30  C   UNL     1       6.653   6.119  16.609  0.00  0.00    +0.000 A 
ATOM     31  C   UNL     1       7.260   5.451  17.667  0.00  0.00    +0.000 A 
ATOM     32  C   UNL     1       6.546   5.222  18.840  0.00  0.00    +0.000 A 
ATOM     33  C   UNL     1       5.209   5.621  18.940  0.00  0.00    +0.000 A 
ENDBRANCH  27  28
BRANCH  27  34
ATOM     34  C   UNL     1       2.246   5.316  18.560  0.00  0.00    +0.000 A 
ATOM     35  C   UNL     1       1.908   5.392  19.921  0.00  0.00    +0.000 A 
ATOM     36  C   UNL     1       1.245   4.335  20.555  0.00  0.00    +0.000 A 
ATOM     37  C   UNL     1       0.893   3.193  19.838  0.00  0.00    +0.000 A 
ATOM     38  C   UNL     1       1.219   3.098  18.493  0.00  0.00    +0.000 A 
ATOM     39  C   UNL     1       1.903   4.139  17.865  0.00  0.00    +0.000 A 
ENDBRANCH  27  34
ENDBRANCH  26  27
ENDBRANCH  25  26
ENDBRANCH  23  25
ENDBRANCH  22  23
ENDBRANCH   1  22
TORSDOF 15
ENDMDL
MODEL 2
REMARK VINA RESULT:      -8.0      1.478      3.821
REMARK  Name = 
REMARK  15 active torsions:
REMARK  status: ('A' for Active; 'I' for Inactive)
REMARK    1  A    between atoms: C_2  and  C_3
REMARK    2  A    between atoms: C_2  and  C_11
REMARK    3  A    between atoms: C_3  and  C_4
REMARK    4  A    between atoms: C_4  and  C_5
REMARK    5  A    between atoms: C_16  and  O_17
REMARK    6  A    between atoms: O_17  and  C_18
REMARK    7  A    between atoms: C_18  and  C_19
REMARK    8  A    between atoms: C_19  and  O_20
REMARK    9  A    between atoms: C_19  and  C_21
REMARK   10  A    between atoms: C_21  and  N_22
REMARK   11  A    between atoms: N_22  and  C_23
REMARK   12  A    between atoms: C_23  and  C_24
REMARK   13  A    between atoms: C_24  and  C_25
REMARK   14  A    between atoms: C_25  and  C_26
REMARK   15  A    between atoms: C_25  and  C_32
REMARK                            x       y       z     vdW  Elec       q    Type
REMARK                         _______ _______ _______ _____ _____    ______ ____
ROOT
ATOM      1  C   UNL     1       2.224  12.063  18.501  0.00  0.00    +0.000 C 
ENDROOT
BRANCH   1   2
ATOM      2  O   UNL     1       2.490  12.498  17.163  0.00  0.00    +0.000 OA
ATOM      3  H   UNL     1       3.444  12.404  17.001  0.00  0.00    +0.000 HD
ENDBRANCH   1   2
BRANCH   1   4
ATOM      4  C   UNL     1       1.509  13.203  19.250  0.00  0.00    +0.000 C 
BRANCH   4   5
ATOM      5  O   UNL     1       0.324  13.628  18.557  0.00  0.00    +0.000 OA
BRANCH   5  11
ATOM      6  C   UNL     1      -1.233  14.703  20.047  0.00  0.00    +0.000 A 
ATOM      7  C   UNL     1      -1.855  15.901  20.465  0.00  0.00    +0.000 A 
ATOM      8  C   UNL     1      -1.517  17.134  19.911  0.00  0.00    +0.000 A 
ATOM      9  C   UNL     1      -0.518  17.203  18.954  0.00  0.00    +0.000 A 
ATOM     10  C   UNL     1       0.117  16.035  18.533  0.00  0.00    +0.000 A 
ATOM     11  C   UNL     1      -0.265  14.774  19.028  0.00  0.00    +0.000 A 
BRANCH   6  13
ATOM     12  O   UNL     1      -1.198  13.199  21.857  0.00  0.00    +0.000 OA
ATOM     13  C   UNL     1      -1.700  13.463  20.761  0.00  0.00    +0.000 C 
BRANCH  13  14
ATOM     14  C   UNL     1      -2.749  12.552  20.158  0.00  0.00    +0.000 C 
BRANCH  14  15
ATOM     15  C   UNL     1      -2.093  11.335  19.490  0.00  0.00    +0.000 C 
BRANCH  15  16
ATOM     16  C   UNL     1      -2.688  11.036  18.136  0.00  0.00    +0.000 A 
ATOM     17  C   UNL     1      -2.030  10.179  17.244  0.00  0.00    +0.000 A 
ATOM     18  C   UNL     1      -2.571   9.922  15.984  0.00  0.00    +0.000 A 
ATOM     19  C   UNL     1      -3.772  10.519  15.604  0.00  0.00    +0.000 A 
ATOM     20  C   UNL     1      -4.436  11.370  16.486  0.00  0.00    +0.000 A 
ATOM     21  C   UNL     1      -3.897  11.628  17.747  0.00  0.00    +0.000 A 
ENDBRANCH  15  16
ENDBRANCH  14  15
ENDBRANCH  13  14
ENDBRANCH   6  13
ENDBRANCH   5  11
ENDBRANCH   4   5
ENDBRANCH   1   4
BRANCH   1  22
ATOM     22  C   UNL     1       1.342  10.793  18.538  0.00  0.00    +0.000 C 
BRANCH  22  23
ATOM     23  N   UNL     1       1.755   9.737  17.601  0.00  0.00    +0.000 NA
ATOM     24  H   UNL     1       2.549  10.055  17.044  0.00  0.00    +0.000 HD
BRANCH  23  25
ATOM     25  C   UNL     1       2.113   8.522  18.349  0.00  0.00    +0.000 C 
BRANCH  25  26
ATOM     26  C   UNL     1       3.149   7.695  17.582  0.00  0.00    +0.000 C 
BRANCH  26  27
ATOM     27  C   UNL     1       3.713   6.504  18.409  0.00  0.00    +0.000 C 
BRANCH  27  28
ATOM     28  C   UNL     1       2.613   5.538  18.862  0.00  0.00    +0.000 A 
ATOM     29  C   UNL     1       2.260   5.388  20.213  0.00  0.00    +0.000 A 
ATOM     30  C   UNL     1       1.410   4.359  20.629  0.00  0.00    +0.000 A 
ATOM     31  C   UNL     1       0.892   3.464  19.699  0.00  0.00    +0.000 A 
ATOM     32  C   UNL     1       1.180   3.630  18.348  0.00  0.00    +0.000 A 
ATOM     33  C   UNL     1       2.023   4.665  17.929  0.00  0.00    +0.000 A 
ENDBRANCH  27  28
BRANCH  27  34
ATOM     34  C   UNL     1       4.883   5.858  17.667  0.00  0.00    +0.000 A 
ATOM     35  C   UNL     1       5.931   5.260  18.385  0.00  0.00    +0.000 A 
ATOM     36  C   UNL     1       7.043   4.729  17.723  0.00  0.00    +0.000 A 
ATOM     37  C   UNL     1       7.119   4.770  16.332  0.00  0.00    +0.000 A 
ATOM     38  C   UNL     1       6.095   5.358  15.604  0.00  0.00    +0.000 A 
ATOM     39  C   UNL     1       4.998   5.911  16.264  0.00  0.00    +0.000 A 
ENDBRANCH  27  34
ENDBRANCH  26  27
ENDBRANCH  25  26
ENDBRANCH  23  25
ENDBRANCH  22  23
ENDBRANCH   1  22
TORSDOF 15
ENDMDL
MODEL 3
REMARK VINA RESULT:      -8.0      3.281      6.227
REMARK  Name = 
REMARK  15 active torsions:
REMARK  status: ('A' for Active; 'I' for Inactive)
REMARK    1  A    between atoms: C_2  and  C_3
REMARK    2  A    between atoms: C_2  and  C_11
REMARK    3  A    between atoms: C_3  and  C_4
REMARK    4  A    between atoms: C_4  and  C_5
REMARK    5  A    between atoms: C_16  and  O_17
REMARK    6  A    between atoms: O_17  and  C_18
REMARK    7  A    between atoms: C_18  and  C_19
REMARK    8  A    between atoms: C_19  and  O_20
REMARK    9  A    between atoms: C_19  and  C_21
REMARK   10  A    between atoms: C_21  and  N_22
REMARK   11  A    between atoms: N_22  and  C_23
REMARK   12  A    between atoms: C_23  and  C_24
REMARK   13  A    between atoms: C_24  and  C_25
REMARK   14  A    between atoms: C_25  and  C_26
REMARK   15  A    between atoms: C_25  and  C_32
REMARK                            x       y       z     vdW  Elec       q    Type
REMARK                         _______ _______ _______ _____ _____    ______ ____
ROOT
ATOM      1  C   UNL     1       1.521   4.266  19.520  0.00  0.00    +0.000 C 
ENDROOT
BRANCH   1   2
ATOM      2  O   UNL     1       1.935   2.988  20.016  0.00  0.00    +0.000 OA
ATOM      3  H   UNL     1       1.594   2.306  19.413  0.00  0.00    +0.000 HD
ENDBRANCH   1   2
BRANCH   1   4
ATOM      4  C   UNL     1       2.570   5.312  19.936  0.00  0.00    +0.000 C 
BRANCH   4   5
ATOM      5  O   UNL     1       1.957   6.461  20.546  0.00  0.00    +0.000 OA
BRANCH   5  11
ATOM      6  C   UNL     1       1.396   8.791  20.302  0.00  0.00    +0.000 A 
ATOM      7  C   UNL     1       1.295   9.912  19.451  0.00  0.00    +0.000 A 
ATOM      8  C   UNL     1       1.694   9.858  18.116  0.00  0.00    +0.000 A 
ATOM      9  C   UNL     1       2.242   8.689  17.614  0.00  0.00    +0.000 A 
ATOM     10  C   UNL     1       2.361   7.572  18.439  0.00  0.00    +0.000 A 
ATOM     11  C   UNL     1       1.894   7.588  19.767  0.00  0.00    +0.000 A 
BRANCH   6  13
ATOM     12  O   UNL     1       1.802   9.175  22.588  0.00  0.00    +0.000 OA
ATOM     13  C   UNL     1       0.940   9.025  21.718  0.00  0.00    +0.000 C 
BRANCH  13  14
ATOM     14  C   UNL     1      -0.530   9.070  22.077  0.00  0.00    +0.000 C 
BRANCH  14  15
ATOM     15  C   UNL     1      -0.791  10.118  23.169  0.00  0.00    +0.000 C 
BRANCH  15  16
ATOM     16  C   UNL     1      -1.520  11.328  22.638  0.00  0.00    +0.000 A 
ATOM     17  C   UNL     1      -1.166  11.885  21.403  0.00  0.00    +0.000 A 
ATOM     18  C   UNL     1      -1.826  13.017  20.923  0.00  0.00    +0.000 A 
ATOM     19  C   UNL     1      -2.843  13.603  21.674  0.00  0.00    +0.000 A 
ATOM     20  C   UNL     1      -3.206  13.053  22.903  0.00  0.00    +0.000 A 
ATOM     21  C   UNL     1      -2.547  11.921  23.384  0.00  0.00    +0.000 A 
ENDBRANCH  15  16
ENDBRANCH  14  15
ENDBRANCH  13  14
ENDBRANCH   6  13
ENDBRANCH   5  11
ENDBRANCH   4   5
ENDBRANCH   1   4
BRANCH   1  22
ATOM     22  C   UNL     1       1.370   4.273  17.981  0.00  0.00    +0.000 C 
BRANCH  22  23
ATOM     23  N   UNL     1       2.379   3.478  17.265  0.00  0.00    +0.000 NA
ATOM     24  H   UNL     1       2.147   3.429  16.273  0.00  0.00    +0.000 HD
BRANCH  23  25
ATOM     25  C   UNL     1       3.708   4.082  17.447  0.00  0.00    +0.000 C 
BRANCH  25  26
ATOM     26  C   UNL     1       4.641   3.706  16.292  0.00  0.00    +0.000 C 
BRANCH  26  27
ATOM     27  C   UNL     1       5.407   4.926  15.704  0.00  0.00    +0.000 C 
BRANCH  27  28
ATOM     28  C   UNL     1       6.436   5.495  16.685  0.00  0.00    +0.000 A 
ATOM     29  C   UNL     1       7.107   4.686  17.617  0.00  0.00    +0.000 A 
ATOM     30  C   UNL     1       7.879   5.246  18.639  0.00  0.00    +0.000 A 
ATOM     31  C   UNL     1       7.999   6.627  18.744  0.00  0.00    +0.000 A 
ATOM     32  C   UNL     1       7.392   7.447  17.796  0.00  0.00    +0.000 A 
ATOM     33  C   UNL     1       6.627   6.887  16.767  0.00  0.00    +0.000 A 
ENDBRANCH  27  28
BRANCH  27  34
ATOM     34  C   UNL     1       5.949   4.584  14.316  0.00  0.00    +0.000 A 
ATOM     35  C   UNL     1       5.249   3.696  13.484  0.00  0.00    +0.000 A 
ATOM     36  C   UNL     1       5.769   3.317  12.241  0.00  0.00    +0.000 A 
ATOM     37  C   UNL     1       6.987   3.832  11.801  0.00  0.00    +0.000 A 
ATOM     38  C   UNL     1       7.695   4.709  12.609  0.00  0.00    +0.000 A 
ATOM     39  C   UNL     1       7.191   5.068  13.860  0.00  0.00    +0.000 A 
ENDBRANCH  27  34
ENDBRANCH  26  27
ENDBRANCH  25  26
ENDBRANCH  23  25
ENDBRANCH  22  23
ENDBRANCH   1  22
TORSDOF 15
ENDMDL
MODEL 4
REMARK VINA RESULT:      -7.9      3.073      6.374
REMARK  Name = 
REMARK  15 active torsions:
REMARK  status: ('A' for Active; 'I' for Inactive)
REMARK    1  A    between atoms: C_2  and  C_3
REMARK    2  A    between atoms: C_2  and  C_11
REMARK    3  A    between atoms: C_3  and  C_4
REMARK    4  A    between atoms: C_4  and  C_5
REMARK    5  A    between atoms: C_16  and  O_17
REMARK    6  A    between atoms: O_17  and  C_18
REMARK    7  A    between atoms: C_18  and  C_19
REMARK    8  A    between atoms: C_19  and  O_20
REMARK    9  A    between atoms: C_19  and  C_21
REMARK   10  A    between atoms: C_21  and  N_22
REMARK   11  A    between atoms: N_22  and  C_23
REMARK   12  A    between atoms: C_23  and  C_24
REMARK   13  A    between atoms: C_24  and  C_25
REMARK   14  A    between atoms: C_25  and  C_26
REMARK   15  A    between atoms: C_25  and  C_32
REMARK                            x       y       z     vdW  Elec       q    Type
REMARK                         _______ _______ _______ _____ _____    ______ ____
ROOT
ATOM      1  C   UNL     1       1.449   3.968  19.681  0.00  0.00    +0.000 C 
ENDROOT
BRANCH   1   2
ATOM      2  O   UNL     1       0.393   3.393  20.458  0.00  0.00    +0.000 OA
ATOM      3  H   UNL     1       0.783   3.026  21.271  0.00  0.00    +0.000 HD
ENDBRANCH   1   2
BRANCH   1   4
ATOM      4  C   UNL     1       2.361   4.777  20.621  0.00  0.00    +0.000 C 
BRANCH   4   5
ATOM      5  O   UNL     1       1.881   6.121  20.794  0.00  0.00    +0.000 OA
BRANCH   5  11
ATOM      6  C   UNL     1       1.646   8.300  19.795  0.00  0.00    +0.000 A 
ATOM      7  C   UNL     1       1.921   9.147  18.700  0.00  0.00    +0.000 A 
ATOM      8  C   UNL     1       2.706   8.728  17.627  0.00  0.00    +0.000 A 
ATOM      9  C   UNL     1       3.268   7.463  17.645  0.00  0.00    +0.000 A 
ATOM     10  C   UNL     1       3.020   6.612  18.721  0.00  0.00    +0.000 A 
ATOM     11  C   UNL     1       2.169   6.993  19.776  0.00  0.00    +0.000 A 
BRANCH   6  13
ATOM     12  O   UNL     1       1.091   8.671  22.052  0.00  0.00    +0.000 OA
ATOM     13  C   UNL     1       0.801   8.915  20.878  0.00  0.00    +0.000 C 
BRANCH  13  14
ATOM     14  C   UNL     1      -0.381   9.803  20.548  0.00  0.00    +0.000 C 
BRANCH  14  15
ATOM     15  C   UNL     1      -0.193  11.204  21.149  0.00  0.00    +0.000 C 
BRANCH  15  16
ATOM     16  C   UNL     1      -1.488  11.783  21.663  0.00  0.00    +0.000 A 
ATOM     17  C   UNL     1      -2.341  12.489  20.804  0.00  0.00    +0.000 A 
ATOM     18  C   UNL     1      -3.527  13.043  21.287  0.00  0.00    +0.000 A 
ATOM     19  C   UNL     1      -3.870  12.899  22.630  0.00  0.00    +0.000 A 
ATOM     20  C   UNL     1      -3.030  12.195  23.491  0.00  0.00    +0.000 A 
ATOM     21  C   UNL     1      -1.843  11.640  23.010  0.00  0.00    +0.000 A 
ENDBRANCH  15  16
ENDBRANCH  14  15
ENDBRANCH  13  14
ENDBRANCH   6  13
ENDBRANCH   5  11
ENDBRANCH   4   5
ENDBRANCH   1   4
BRANCH   1  22
ATOM     22  C   UNL     1       2.289   2.893  18.951  0.00  0.00    +0.000 C 
BRANCH  22  23
ATOM     23  N   UNL     1       2.786   3.302  17.629  0.00  0.00    +0.000 NA
ATOM     24  H   UNL     1       2.196   4.041  17.246  0.00  0.00    +0.000 HD
BRANCH  23  25
ATOM     25  C   UNL     1       4.176   3.769  17.743  0.00  0.00    +0.000 C 
BRANCH  25  26
ATOM     26  C   UNL     1       4.952   3.493  16.452  0.00  0.00    +0.000 C 
BRANCH  26  27
ATOM     27  C   UNL     1       5.582   4.774  15.833  0.00  0.00    +0.000 C 
BRANCH  27  28
ATOM     28  C   UNL     1       6.581   5.447  16.779  0.00  0.00    +0.000 A 
ATOM     29  C   UNL     1       7.297   4.723  17.747  0.00  0.00    +0.000 A 
ATOM     30  C   UNL     1       8.040   5.375  18.736  0.00  0.00    +0.000 A 
ATOM     31  C   UNL     1       8.085   6.764  18.770  0.00  0.00    +0.000 A 
ATOM     32  C   UNL     1       7.432   7.501  17.786  0.00  0.00    +0.000 A 
ATOM     33  C   UNL     1       6.696   6.849  16.790  0.00  0.00    +0.000 A 
ENDBRANCH  27  28
BRANCH  27  34
ATOM     34  C   UNL     1       6.114   4.472  14.432  0.00  0.00    +0.000 A 
ATOM     35  C   UNL     1       7.266   5.120  13.959  0.00  0.00    +0.000 A 
ATOM     36  C   UNL     1       7.723   4.909  12.654  0.00  0.00    +0.000 A 
ATOM     37  C   UNL     1       7.049   4.033  11.805  0.00  0.00    +0.000 A 
ATOM     38  C   UNL     1       5.907   3.385  12.252  0.00  0.00    +0.000 A 
ATOM     39  C   UNL     1       5.434   3.614  13.544  0.00  0.00    +0.000 A 
ENDBRANCH  27  34
ENDBRANCH  26  27
ENDBRANCH  25  26
ENDBRANCH  23  25
ENDBRANCH  22  23
ENDBRANCH   1  22
TORSDOF 15
ENDMDL
MODEL 5
REMARK VINA RESULT:      -7.8      3.251      6.341
REMARK  Name = 
REMARK  15 active torsions:
REMARK  status: ('A' for Active; 'I' for Inactive)
REMARK    1  A    between atoms: C_2  and  C_3
REMARK    2  A    between atoms: C_2  and  C_11
REMARK    3  A    between atoms: C_3  and  C_4
REMARK    4  A    between atoms: C_4  and  C_5
REMARK    5  A    between atoms: C_16  and  O_17
REMARK    6  A    between atoms: O_17  and  C_18
REMARK    7  A    between atoms: C_18  and  C_19
REMARK    8  A    between atoms: C_19  and  O_20
REMARK    9  A    between atoms: C_19  and  C_21
REMARK   10  A    between atoms: C_21  and  N_22
REMARK   11  A    between atoms: N_22  and  C_23
REMARK   12  A    between atoms: C_23  and  C_24
REMARK   13  A    between atoms: C_24  and  C_25
REMARK   14  A    between atoms: C_25  and  C_26
REMARK   15  A    between atoms: C_25  and  C_32
REMARK                            x       y       z     vdW  Elec       q    Type
REMARK                         _______ _______ _______ _____ _____    ______ ____
ROOT
ATOM      1  C   UNL     1       1.905   3.831  20.199  0.00  0.00    +0.000 C 
ENDROOT
BRANCH   1   2
ATOM      2  O   UNL     1       2.565   2.757  20.879  0.00  0.00    +0.000 OA
ATOM      3  H   UNL     1       3.146   2.309  20.240  0.00  0.00    +0.000 HD
ENDBRANCH   1   2
BRANCH   1   4
ATOM      4  C   UNL     1       2.580   5.152  20.607  0.00  0.00    +0.000 C 
BRANCH   4   5
ATOM      5  O   UNL     1       1.618   6.209  20.768  0.00  0.00    +0.000 OA
BRANCH   5  11
ATOM      6  C   UNL     1       1.068   8.474  20.161  0.00  0.00    +0.000 A 
ATOM      7  C   UNL     1       1.180   9.519  19.217  0.00  0.00    +0.000 A 
ATOM      8  C   UNL     1       1.951   9.386  18.064  0.00  0.00    +0.000 A 
ATOM      9  C   UNL     1       2.663   8.217  17.849  0.00  0.00    +0.000 A 
ATOM     10  C   UNL     1       2.577   7.176  18.772  0.00  0.00    +0.000 A 
ATOM     11  C   UNL     1       1.743   7.266  19.903  0.00  0.00    +0.000 A 
BRANCH   6  13
ATOM     12  O   UNL     1      -0.693   8.005  21.649  0.00  0.00    +0.000 OA
ATOM     13  C   UNL     1       0.213   8.789  21.359  0.00  0.00    +0.000 C 
BRANCH  13  14
ATOM     14  C   UNL     1       0.444  10.036  22.188  0.00  0.00    +0.000 C 
BRANCH  14  15
ATOM     15  C   UNL     1      -0.792  10.357  23.042  0.00  0.00    +0.000 C 
BRANCH  15  16
ATOM     16  C   UNL     1      -1.562  11.541  22.510  0.00  0.00    +0.000 A 
ATOM     17  C   UNL     1      -2.452  12.238  23.336  0.00  0.00    +0.000 A 
ATOM     18  C   UNL     1      -3.180  13.319  22.836  0.00  0.00    +0.000 A 
ATOM     19  C   UNL     1      -3.026  13.710  21.508  0.00  0.00    +0.000 A 
ATOM     20  C   UNL     1      -2.139  13.026  20.679  0.00  0.00    +0.000 A 
ATOM     21  C   UNL     1      -1.410  11.945  21.177  0.00  0.00    +0.000 A 
ENDBRANCH  15  16
ENDBRANCH  14  15
ENDBRANCH  13  14
ENDBRANCH   6  13
ENDBRANCH   5  11
ENDBRANCH   4   5
ENDBRANCH   1   4
BRANCH   1  22
ATOM     22  C   UNL     1       1.969   3.675  18.661  0.00  0.00    +0.000 C 
BRANCH  22  23
ATOM     23  N   UNL     1       3.182   3.006  18.167  0.00  0.00    +0.000 NA
ATOM     24  H   UNL     1       2.950   2.396  17.383  0.00  0.00    +0.000 HD
BRANCH  23  25
ATOM     25  C   UNL     1       4.170   4.013  17.752  0.00  0.00    +0.000 C 
BRANCH  25  26
ATOM     26  C   UNL     1       4.598   3.792  16.298  0.00  0.00    +0.000 C 
BRANCH  26  27
ATOM     27  C   UNL     1       5.411   4.982  15.713  0.00  0.00    +0.000 C 
BRANCH  27  28
ATOM     28  C   UNL     1       6.455   5.513  16.700  0.00  0.00    +0.000 A 
ATOM     29  C   UNL     1       7.181   4.662  17.550  0.00  0.00    +0.000 A 
ATOM     30  C   UNL     1       7.970   5.173  18.584  0.00  0.00    +0.000 A 
ATOM     31  C   UNL     1       8.054   6.547  18.783  0.00  0.00    +0.000 A 
ATOM     32  C   UNL     1       7.392   7.411  17.916  0.00  0.00    +0.000 A 
ATOM     33  C   UNL     1       6.609   6.901  16.874  0.00  0.00    +0.000 A 
ENDBRANCH  27  28
BRANCH  27  34
ATOM     34  C   UNL     1       5.948   4.620  14.328  0.00  0.00    +0.000 A 
ATOM     35  C   UNL     1       5.264   3.691  13.527  0.00  0.00    +0.000 A 
ATOM     36  C   UNL     1       5.781   3.295  12.289  0.00  0.00    +0.000 A 
ATOM     37  C   UNL     1       6.979   3.833  11.821  0.00  0.00    +0.000 A 
ATOM     38  C   UNL     1       7.670   4.750  12.598  0.00  0.00    +0.000 A 
ATOM     39  C   UNL     1       7.171   5.126  13.845  0.00  0.00    +0.000 A 
ENDBRANCH  27  34
ENDBRANCH  26  27
ENDBRANCH  25  26
ENDBRANCH  23  25
ENDBRANCH  22  23
ENDBRANCH   1  22
TORSDOF 15
ENDMDL
MODEL 6
REMARK VINA RESULT:      -7.7      2.228      9.821
REMARK  Name = 
REMARK  15 active torsions:
REMARK  status: ('A' for Active; 'I' for Inactive)
REMARK    1  A    between atoms: C_2  and  C_3
REMARK    2  A    between atoms: C_2  and  C_11
REMARK    3  A    between atoms: C_3  and  C_4
REMARK    4  A    between atoms: C_4  and  C_5
REMARK    5  A    between atoms: C_16  and  O_17
REMARK    6  A    between atoms: O_17  and  C_18
REMARK    7  A    between atoms: C_18  and  C_19
REMARK    8  A    between atoms: C_19  and  O_20
REMARK    9  A    between atoms: C_19  and  C_21
REMARK   10  A    between atoms: C_21  and  N_22
REMARK   11  A    between atoms: N_22  and  C_23
REMARK   12  A    between atoms: C_23  and  C_24
REMARK   13  A    between atoms: C_24  and  C_25
REMARK   14  A    between atoms: C_25  and  C_26
REMARK   15  A    between atoms: C_25  and  C_32
REMARK                            x       y       z     vdW  Elec       q    Type
REMARK                         _______ _______ _______ _____ _____    ______ ____
ROOT
ATOM      1  C   UNL     1       2.267   7.531  17.890  0.00  0.00    +0.000 C 
ENDROOT
BRANCH   1   2
ATOM      2  O   UNL     1       3.590   7.773  17.400  0.00  0.00    +0.000 OA
ATOM      3  H   UNL     1       3.580   7.652  16.434  0.00  0.00    +0.000 HD
ENDBRANCH   1   2
BRANCH   1   4
ATOM      4  C   UNL     1       2.370   7.024  19.339  0.00  0.00    +0.000 C 
BRANCH   4   5
ATOM      5  O   UNL     1       3.259   5.899  19.443  0.00  0.00    +0.000 OA
BRANCH   5  11
ATOM      6  C   UNL     1       2.540   3.646  18.989  0.00  0.00    +0.000 A 
ATOM      7  C   UNL     1       1.900   2.478  19.460  0.00  0.00    +0.000 A 
ATOM      8  C   UNL     1       1.443   2.371  20.773  0.00  0.00    +0.000 A 
ATOM      9  C   UNL     1       1.653   3.417  21.656  0.00  0.00    +0.000 A 
ATOM     10  C   UNL     1       2.292   4.575  21.217  0.00  0.00    +0.000 A 
ATOM     11  C   UNL     1       2.692   4.728  19.876  0.00  0.00    +0.000 A 
BRANCH   6  13
ATOM     12  O   UNL     1       2.131   3.676  16.672  0.00  0.00    +0.000 OA
ATOM     13  C   UNL     1       2.989   3.588  17.554  0.00  0.00    +0.000 C 
BRANCH  13  14
ATOM     14  C   UNL     1       4.450   3.419  17.190  0.00  0.00    +0.000 C 
BRANCH  14  15
ATOM     15  C   UNL     1       4.973   4.659  16.451  0.00  0.00    +0.000 C 
BRANCH  15  16
ATOM     16  C   UNL     1       6.041   5.382  17.233  0.00  0.00    +0.000 A 
ATOM     17  C   UNL     1       6.440   4.914  18.491  0.00  0.00    +0.000 A 
ATOM     18  C   UNL     1       7.412   5.596  19.223  0.00  0.00    +0.000 A 
ATOM     19  C   UNL     1       7.992   6.753  18.706  0.00  0.00    +0.000 A 
ATOM     20  C   UNL     1       7.605   7.225  17.453  0.00  0.00    +0.000 A 
ATOM     21  C   UNL     1       6.633   6.543  16.719  0.00  0.00    +0.000 A 
ENDBRANCH  15  16
ENDBRANCH  14  15
ENDBRANCH  13  14
ENDBRANCH   6  13
ENDBRANCH   5  11
ENDBRANCH   4   5
ENDBRANCH   1   4
BRANCH   1  22
ATOM     22  C   UNL     1       1.388   8.804  17.853  0.00  0.00    +0.000 C 
BRANCH  22  23
ATOM     23  N   UNL     1       2.064  10.025  18.318  0.00  0.00    +0.000 NA
ATOM     24  H   UNL     1       2.496  10.508  17.530  0.00  0.00    +0.000 HD
BRANCH  23  25
ATOM     25  C   UNL     1       1.094  10.906  18.985  0.00  0.00    +0.000 C 
BRANCH  25  26
ATOM     26  C   UNL     1      -0.224  10.170  19.245  0.00  0.00    +0.000 C 
BRANCH  26  27
ATOM     27  C   UNL     1      -1.459  11.116  19.261  0.00  0.00    +0.000 C 
BRANCH  27  28
ATOM     28  C   UNL     1      -1.070  12.575  19.517  0.00  0.00    +0.000 A 
ATOM     29  C   UNL     1      -0.575  13.406  18.498  0.00  0.00    +0.000 A 
ATOM     30  C   UNL     1      -0.030  14.661  18.788  0.00  0.00    +0.000 A 
ATOM     31  C   UNL     1       0.024  15.110  20.103  0.00  0.00    +0.000 A 
ATOM     32  C   UNL     1      -0.516  14.329  21.121  0.00  0.00    +0.000 A 
ATOM     33  C   UNL     1      -1.070  13.077  20.832  0.00  0.00    +0.000 A 
ENDBRANCH  27  28
BRANCH  27  34
ATOM     34  C   UNL     1      -2.316  10.878  18.018  0.00  0.00    +0.000 A 
ATOM     35  C   UNL     1      -1.862  10.026  16.999  0.00  0.00    +0.000 A 
ATOM     36  C   UNL     1      -2.602   9.855  15.824  0.00  0.00    +0.000 A 
ATOM     37  C   UNL     1      -3.816  10.517  15.654  0.00  0.00    +0.000 A 
ATOM     38  C   UNL     1      -4.282  11.365  16.648  0.00  0.00    +0.000 A 
ATOM     39  C   UNL     1      -3.533  11.558  17.809  0.00  0.00    +0.000 A 
ENDBRANCH  27  34
ENDBRANCH  26  27
ENDBRANCH  25  26
ENDBRANCH  23  25
ENDBRANCH  22  23
ENDBRANCH   1  22
TORSDOF 15
ENDMDL
MODEL 7
REMARK VINA RESULT:      -7.7      3.590      6.532
REMARK  Name = 
REMARK  15 active torsions:
REMARK  status: ('A' for Active; 'I' for Inactive)
REMARK    1  A    between atoms: C_2  and  C_3
REMARK    2  A    between atoms: C_2  and  C_11
REMARK    3  A    between atoms: C_3  and  C_4
REMARK    4  A    between atoms: C_4  and  C_5
REMARK    5  A    between atoms: C_16  and  O_17
REMARK    6  A    between atoms: O_17  and  C_18
REMARK    7  A    between atoms: C_18  and  C_19
REMARK    8  A    between atoms: C_19  and  O_20
REMARK    9  A    between atoms: C_19  and  C_21
REMARK   10  A    between atoms: C_21  and  N_22
REMARK   11  A    between atoms: N_22  and  C_23
REMARK   12  A    between atoms: C_23  and  C_24
REMARK   13  A    between atoms: C_24  and  C_25
REMARK   14  A    between atoms: C_25  and  C_26
REMARK   15  A    between atoms: C_25  and  C_32
REMARK                            x       y       z     vdW  Elec       q    Type
REMARK                         _______ _______ _______ _____ _____    ______ ____
ROOT
ATOM      1  C   UNL     1       1.642   3.782  19.913  0.00  0.00    +0.000 C 
ENDROOT
BRANCH   1   2
ATOM      2  O   UNL     1       0.577   3.261  20.715  0.00  0.00    +0.000 OA
ATOM      3  H   UNL     1      -0.251   3.682  20.425  0.00  0.00    +0.000 HD
ENDBRANCH   1   2
BRANCH   1   4
ATOM      4  C   UNL     1       2.386   4.854  20.730  0.00  0.00    +0.000 C 
BRANCH   4   5
ATOM      5  O   UNL     1       1.643   6.083  20.790  0.00  0.00    +0.000 OA
BRANCH   5  11
ATOM      6  C   UNL     1       1.396   8.300  19.881  0.00  0.00    +0.000 A 
ATOM      7  C   UNL     1       1.658   9.191  18.818  0.00  0.00    +0.000 A 
ATOM      8  C   UNL     1       2.432   8.816  17.721  0.00  0.00    +0.000 A 
ATOM      9  C   UNL     1       2.996   7.552  17.682  0.00  0.00    +0.000 A 
ATOM     10  C   UNL     1       2.760   6.658  18.726  0.00  0.00    +0.000 A 
ATOM     11  C   UNL     1       1.919   6.996  19.804  0.00  0.00    +0.000 A 
BRANCH   6  13
ATOM     12  O   UNL     1      -0.224   8.117  21.579  0.00  0.00    +0.000 OA
ATOM     13  C   UNL     1       0.561   8.870  20.996  0.00  0.00    +0.000 C 
BRANCH  13  14
ATOM     14  C   UNL     1       0.666  10.328  21.395  0.00  0.00    +0.000 C 
BRANCH  14  15
ATOM     15  C   UNL     1      -0.474  11.146  20.769  0.00  0.00    +0.000 C 
BRANCH  15  16
ATOM     16  C   UNL     1      -0.731  12.431  21.516  0.00  0.00    +0.000 A 
ATOM     17  C   UNL     1      -0.483  13.668  20.907  0.00  0.00    +0.000 A 
ATOM     18  C   UNL     1      -0.700  14.856  21.607  0.00  0.00    +0.000 A 
ATOM     19  C   UNL     1      -1.164  14.818  22.920  0.00  0.00    +0.000 A 
ATOM     20  C   UNL     1      -1.418  13.592  23.533  0.00  0.00    +0.000 A 
ATOM     21  C   UNL     1      -1.202  12.403  22.835  0.00  0.00    +0.000 A 
ENDBRANCH  15  16
ENDBRANCH  14  15
ENDBRANCH  13  14
ENDBRANCH   6  13
ENDBRANCH   5  11
ENDBRANCH   4   5
ENDBRANCH   1   4
BRANCH   1  22
ATOM     22  C   UNL     1       2.640   2.682  19.481  0.00  0.00    +0.000 C 
BRANCH  22  23
ATOM     23  N   UNL     1       3.857   3.185  18.826  0.00  0.00    +0.000 NA
ATOM     24  H   UNL     1       4.564   2.451  18.791  0.00  0.00    +0.000 HD
BRANCH  23  25
ATOM     25  C   UNL     1       3.535   3.648  17.468  0.00  0.00    +0.000 C 
BRANCH  25  26
ATOM     26  C   UNL     1       4.737   3.475  16.534  0.00  0.00    +0.000 C 
BRANCH  26  27
ATOM     27  C   UNL     1       5.251   4.821  15.946  0.00  0.00    +0.000 C 
BRANCH  27  28
ATOM     28  C   UNL     1       6.121   5.595  16.941  0.00  0.00    +0.000 A 
ATOM     29  C   UNL     1       6.327   6.981  16.834  0.00  0.00    +0.000 A 
ATOM     30  C   UNL     1       7.284   7.633  17.616  0.00  0.00    +0.000 A 
ATOM     31  C   UNL     1       8.050   6.912  18.526  0.00  0.00    +0.000 A 
ATOM     32  C   UNL     1       7.822   5.549  18.692  0.00  0.00    +0.000 A 
ATOM     33  C   UNL     1       6.857   4.896  17.916  0.00  0.00    +0.000 A 
ENDBRANCH  27  28
BRANCH  27  34
ATOM     34  C   UNL     1       5.882   4.586  14.574  0.00  0.00    +0.000 A 
ATOM     35  C   UNL     1       5.279   3.707  13.660  0.00  0.00    +0.000 A 
ATOM     36  C   UNL     1       5.882   3.426  12.429  0.00  0.00    +0.000 A 
ATOM     37  C   UNL     1       7.088   4.032  12.082  0.00  0.00    +0.000 A 
ATOM     38  C   UNL     1       7.702   4.902  12.971  0.00  0.00    +0.000 A 
ATOM     39  C   UNL     1       7.115   5.163  14.210  0.00  0.00    +0.000 A 
ENDBRANCH  27  34
ENDBRANCH  26  27
ENDBRANCH  25  26
ENDBRANCH  23  25
ENDBRANCH  22  23
ENDBRANCH   1  22
TORSDOF 15
ENDMDL
MODEL 8
REMARK VINA RESULT:      -7.7      3.550      6.644
REMARK  Name = 
REMARK  15 active torsions:
REMARK  status: ('A' for Active; 'I' for Inactive)
REMARK    1  A    between atoms: C_2  and  C_3
REMARK    2  A    between atoms: C_2  and  C_11
REMARK    3  A    between atoms: C_3  and  C_4
REMARK    4  A    between atoms: C_4  and  C_5
REMARK    5  A    between atoms: C_16  and  O_17
REMARK    6  A    between atoms: O_17  and  C_18
REMARK    7  A    between atoms: C_18  and  C_19
REMARK    8  A    between atoms: C_19  and  O_20
REMARK    9  A    between atoms: C_19  and  C_21
REMARK   10  A    between atoms: C_21  and  N_22
REMARK   11  A    between atoms: N_22  and  C_23
REMARK   12  A    between atoms: C_23  and  C_24
REMARK   13  A    between atoms: C_24  and  C_25
REMARK   14  A    between atoms: C_25  and  C_26
REMARK   15  A    between atoms: C_25  and  C_32
REMARK                            x       y       z     vdW  Elec       q    Type
REMARK                         _______ _______ _______ _____ _____    ______ ____
ROOT
ATOM      1  C   UNL     1       2.265   3.446  20.471  0.00  0.00    +0.000 C 
ENDROOT
BRANCH   1   2
ATOM      2  O   UNL     1       2.593   3.690  21.844  0.00  0.00    +0.000 OA
ATOM      3  H   UNL     1       1.896   3.293  22.394  0.00  0.00    +0.000 HD
ENDBRANCH   1   2
BRANCH   1   4
ATOM      4  C   UNL     1       1.453   4.644  19.946  0.00  0.00    +0.000 C 
BRANCH   4   5
ATOM      5  O   UNL     1       1.879   5.877  20.551  0.00  0.00    +0.000 OA
BRANCH   5  11
ATOM      6  C   UNL     1       1.709   8.223  20.036  0.00  0.00    +0.000 A 
ATOM      7  C   UNL     1       1.910   9.258  19.096  0.00  0.00    +0.000 A 
ATOM      8  C   UNL     1       2.505   9.018  17.858  0.00  0.00    +0.000 A 
ATOM      9  C   UNL     1       2.949   7.743  17.549  0.00  0.00    +0.000 A 
ATOM     10  C   UNL     1       2.772   6.708  18.465  0.00  0.00    +0.000 A 
ATOM     11  C   UNL     1       2.106   6.918  19.688  0.00  0.00    +0.000 A 
BRANCH   6  13
ATOM     12  O   UNL     1       1.800   8.794  22.317  0.00  0.00    +0.000 OA
ATOM     13  C   UNL     1       1.073   8.656  21.329  0.00  0.00    +0.000 C 
BRANCH  13  14
ATOM     14  C   UNL     1      -0.417   8.910  21.431  0.00  0.00    +0.000 C 
BRANCH  14  15
ATOM     15  C   UNL     1      -0.827  10.098  20.549  0.00  0.00    +0.000 C 
BRANCH  15  16
ATOM     16  C   UNL     1      -0.720  11.415  21.278  0.00  0.00    +0.000 A 
ATOM     17  C   UNL     1      -1.455  11.640  22.448  0.00  0.00    +0.000 A 
ATOM     18  C   UNL     1      -1.372  12.867  23.109  0.00  0.00    +0.000 A 
ATOM     19  C   UNL     1      -0.556  13.877  22.606  0.00  0.00    +0.000 A 
ATOM     20  C   UNL     1       0.184  13.661  21.444  0.00  0.00    +0.000 A 
ATOM     21  C   UNL     1       0.102  12.435  20.782  0.00  0.00    +0.000 A 
ENDBRANCH  15  16
ENDBRANCH  14  15
ENDBRANCH  13  14
ENDBRANCH   6  13
ENDBRANCH   5  11
ENDBRANCH   4   5
ENDBRANCH   1   4
BRANCH   1  22
ATOM     22  C   UNL     1       3.525   3.255  19.595  0.00  0.00    +0.000 C 
BRANCH  22  23
ATOM     23  N   UNL     1       3.253   2.764  18.236  0.00  0.00    +0.000 NA
ATOM     24  H   UNL     1       2.288   2.440  18.167  0.00  0.00    +0.000 HD
BRANCH  23  25
ATOM     25  C   UNL     1       3.499   3.837  17.261  0.00  0.00    +0.000 C 
BRANCH  25  26
ATOM     26  C   UNL     1       4.741   3.533  16.417  0.00  0.00    +0.000 C 
BRANCH  26  27
ATOM     27  C   UNL     1       5.398   4.810  15.817  0.00  0.00    +0.000 C 
BRANCH  27  28
ATOM     28  C   UNL     1       6.419   5.441  16.769  0.00  0.00    +0.000 A 
ATOM     29  C   UNL     1       7.091   4.691  17.748  0.00  0.00    +0.000 A 
ATOM     30  C   UNL     1       7.854   5.314  18.740  0.00  0.00    +0.000 A 
ATOM     31  C   UNL     1       7.965   6.700  18.766  0.00  0.00    +0.000 A 
ATOM     32  C   UNL     1       7.357   7.460  17.770  0.00  0.00    +0.000 A 
ATOM     33  C   UNL     1       6.601   6.837  16.771  0.00  0.00    +0.000 A 
ENDBRANCH  27  28
BRANCH  27  34
ATOM     34  C   UNL     1       5.914   4.519  14.407  0.00  0.00    +0.000 A 
ATOM     35  C   UNL     1       5.206   3.652  13.561  0.00  0.00    +0.000 A 
ATOM     36  C   UNL     1       5.702   3.320  12.296  0.00  0.00    +0.000 A 
ATOM     37  C   UNL     1       6.906   3.862  11.847  0.00  0.00    +0.000 A 
ATOM     38  C   UNL     1       7.622   4.719  12.669  0.00  0.00    +0.000 A 
ATOM     39  C   UNL     1       7.142   5.031  13.942  0.00  0.00    +0.000 A 
ENDBRANCH  27  34
ENDBRANCH  26  27
ENDBRANCH  25  26
ENDBRANCH  23  25
ENDBRANCH  22  23
ENDBRANCH   1  22
TORSDOF 15
ENDMDL
MODEL 9
REMARK VINA RESULT:      -7.7      1.717      2.935
REMARK  Name = 
REMARK  15 active torsions:
REMARK  status: ('A' for Active; 'I' for Inactive)
REMARK    1  A    between atoms: C_2  and  C_3
REMARK    2  A    between atoms: C_2  and  C_11
REMARK    3  A    between atoms: C_3  and  C_4
REMARK    4  A    between atoms: C_4  and  C_5
REMARK    5  A    between atoms: C_16  and  O_17
REMARK    6  A    between atoms: O_17  and  C_18
REMARK    7  A    between atoms: C_18  and  C_19
REMARK    8  A    between atoms: C_19  and  O_20
REMARK    9  A    between atoms: C_19  and  C_21
REMARK   10  A    between atoms: C_21  and  N_22
REMARK   11  A    between atoms: N_22  and  C_23
REMARK   12  A    between atoms: C_23  and  C_24
REMARK   13  A    between atoms: C_24  and  C_25
REMARK   14  A    between atoms: C_25  and  C_26
REMARK   15  A    between atoms: C_25  and  C_32
REMARK                            x       y       z     vdW  Elec       q    Type
REMARK                         _______ _______ _______ _____ _____    ______ ____
ROOT
ATOM      1  C   UNL     1      -0.244   9.249  21.381  0.00  0.00    +0.000 C 
ENDROOT
BRANCH   1   2
ATOM      2  O   UNL     1      -0.628   7.875  21.503  0.00  0.00    +0.000 OA
ATOM      3  H   UNL     1       0.169   7.329  21.392  0.00  0.00    +0.000 HD
ENDBRANCH   1   2
BRANCH   1   4
ATOM      4  C   UNL     1      -0.166   9.859  22.792  0.00  0.00    +0.000 C 
BRANCH   4   5
ATOM      5  O   UNL     1      -0.001  11.287  22.742  0.00  0.00    +0.000 OA
BRANCH   5  11
ATOM      6  C   UNL     1      -1.192  13.038  21.596  0.00  0.00    +0.000 A 
ATOM      7  C   UNL     1      -2.375  13.800  21.480  0.00  0.00    +0.000 A 
ATOM      8  C   UNL     1      -3.492  13.547  22.275  0.00  0.00    +0.000 A 
ATOM      9  C   UNL     1      -3.463  12.497  23.178  0.00  0.00    +0.000 A 
ATOM     10  C   UNL     1      -2.310  11.724  23.303  0.00  0.00    +0.000 A 
ATOM     11  C   UNL     1      -1.149  12.014  22.561  0.00  0.00    +0.000 A 
BRANCH   6  13
ATOM     12  O   UNL     1       0.562  14.446  20.903  0.00  0.00    +0.000 OA
ATOM     13  C   UNL     1      -0.090  13.430  20.649  0.00  0.00    +0.000 C 
BRANCH  13  14
ATOM     14  C   UNL     1       0.215  12.612  19.411  0.00  0.00    +0.000 C 
BRANCH  14  15
ATOM     15  C   UNL     1      -0.747  12.973  18.270  0.00  0.00    +0.000 C 
BRANCH  15  16
ATOM     16  C   UNL     1      -1.787  11.905  18.039  0.00  0.00    +0.000 A 
ATOM     17  C   UNL     1      -3.101  12.082  18.492  0.00  0.00    +0.000 A 
ATOM     18  C   UNL     1      -4.056  11.083  18.298  0.00  0.00    +0.000 A 
ATOM     19  C   UNL     1      -3.706   9.899  17.652  0.00  0.00    +0.000 A 
ATOM     20  C   UNL     1      -2.403   9.715  17.194  0.00  0.00    +0.000 A 
ATOM     21  C   UNL     1      -1.447  10.713  17.387  0.00  0.00    +0.000 A 
ENDBRANCH  15  16
ENDBRANCH  14  15
ENDBRANCH  13  14
ENDBRANCH   6  13
ENDBRANCH   5  11
ENDBRANCH   4   5
ENDBRANCH   1   4
BRANCH   1  22
ATOM     22  C   UNL     1       1.123   9.413  20.675  0.00  0.00    +0.000 C 
BRANCH  22  23
ATOM     23  N   UNL     1       1.102   9.123  19.233  0.00  0.00    +0.000 NA
ATOM     24  H   UNL     1       0.998   9.989  18.704  0.00  0.00    +0.000 HD
BRANCH  23  25
ATOM     25  C   UNL     1       2.343   8.436  18.846  0.00  0.00    +0.000 C 
BRANCH  25  26
ATOM     26  C   UNL     1       2.309   6.966  19.275  0.00  0.00    +0.000 C 
BRANCH  26  27
ATOM     27  C   UNL     1       2.926   6.007  18.215  0.00  0.00    +0.000 C 
BRANCH  27  28
ATOM     28  C   UNL     1       4.454   6.095  18.171  0.00  0.00    +0.000 A 
ATOM     29  C   UNL     1       5.139   6.643  17.074  0.00  0.00    +0.000 A 
ATOM     30  C   UNL     1       6.527   6.526  16.955  0.00  0.00    +0.000 A 
ATOM     31  C   UNL     1       7.257   5.862  17.936  0.00  0.00    +0.000 A 
ATOM     32  C   UNL     1       6.606   5.364  19.061  0.00  0.00    +0.000 A 
ATOM     33  C   UNL     1       5.218   5.490  19.186  0.00  0.00    +0.000 A 
ENDBRANCH  27  28
BRANCH  27  34
ATOM     34  C   UNL     1       2.359   4.598  18.391  0.00  0.00    +0.000 A 
ATOM     35  C   UNL     1       1.445   4.329  19.422  0.00  0.00    +0.000 A 
ATOM     36  C   UNL     1       0.973   3.030  19.641  0.00  0.00    +0.000 A 
ATOM     37  C   UNL     1       1.391   1.982  18.823  0.00  0.00    +0.000 A 
ATOM     38  C   UNL     1       2.295   2.227  17.800  0.00  0.00    +0.000 A 
ATOM     39  C   UNL     1       2.787   3.516  17.597  0.00  0.00    +0.000 A 
ENDBRANCH  27  34
ENDBRANCH  26  27
ENDBRANCH  25  26
ENDBRANCH  23  25
ENDBRANCH  22  23
ENDBRANCH   1  22
TORSDOF 15
ENDMDL
