MODEL 1
REMARK VINA RESULT:      -8.5      0.000      0.000
REMARK  Name = 
REMARK  5 active torsions:
REMARK  status: ('A' for Active; 'I' for Inactive)
REMARK    1  A    between atoms: N_12  and  C_13
REMARK    2  A    between atoms: C_13  and  C_14
REMARK    3  A    between atoms: C_14  and  C_15
REMARK    4  A    between atoms: C_15  and  C_16
REMARK    5  A    between atoms: C_16  and  N_17
REMARK                            x       y       z     vdW  Elec       q    Type
REMARK                         _______ _______ _______ _____ _____    ______ ____
ROOT
ATOM      1  C   UNL     1       2.071   9.991  18.048  0.00  0.00    +0.000 C 
ENDROOT
BRANCH   1   2
ATOM      2  C   UNL     1       1.824   8.482  17.947  0.00  0.00    +0.000 C 
BRANCH   2   3
ATOM      3  C   UNL     1       3.113   7.663  17.853  0.00  0.00    +0.000 C 
BRANCH   3  15
ATOM      4  O   UNL     1       3.887   4.942  17.085  0.00  0.00    +0.000 OA
ATOM      5  C   UNL     1       3.468   5.220  18.200  0.00  0.00    +0.000 C 
ATOM      6  C   UNL     1       3.291   4.211  19.317  0.00  0.00    +0.000 C 
ATOM      7  C   UNL     1       2.358   3.038  18.955  0.00  0.00    +0.000 C 
ATOM      8  C   UNL     1       2.104   2.205  20.202  0.00  0.00    +0.000 C 
ATOM      9  C   UNL     1       1.329   2.933  21.022  0.00  0.00    +0.000 C 
ATOM     10  C   UNL     1       1.107   4.266  20.348  0.00  0.00    +0.000 C 
ATOM     11  C   UNL     1       0.999   3.747  18.905  0.00  0.00    +0.000 C 
ATOM     12  C   UNL     1       2.470   4.987  20.375  0.00  0.00    +0.000 C 
ATOM     13  C   UNL     1       2.416   6.391  19.853  0.00  0.00    +0.000 C 
ATOM     14  O   UNL     1       1.844   7.313  20.421  0.00  0.00    +0.000 OA
ATOM     15  N   UNL     1       3.051   6.447  18.648  0.00  0.00    +0.000 N 
ENDBRANCH   3  15
ENDBRANCH   2   3
ENDBRANCH   1   2
BRANCH   1  16
ATOM     16  C   UNL     1       0.950  10.816  18.692  0.00  0.00    +0.000 C 
BRANCH  16  17
ATOM     17  N   UNL     1      -0.191  10.055  19.221  0.00  0.00    +0.000 NA
ATOM     18  C   UNL     1      -0.156   9.856  20.687  0.00  0.00    +0.000 C 
ATOM     19  C   UNL     1      -0.419  11.098  21.585  0.00  0.00    +0.000 C 
ATOM     20  N   UNL     1      -1.479  11.985  21.075  0.00  0.00    +0.000 N 
ATOM     21  C   UNL     1      -2.608  12.256  21.831  0.00  0.00    +0.000 A 
ATOM     22  C   UNL     1      -2.525  12.520  23.196  0.00  0.00    +0.000 A 
ATOM     23  C   UNL     1      -3.671  12.840  23.925  0.00  0.00    +0.000 A 
ATOM     24  C   UNL     1      -4.872  12.887  23.254  0.00  0.00    +0.000 A 
ATOM     25 CL   UNL     1      -6.340  13.254  24.050  0.00  0.00    +0.000 Cl
ATOM     26  N   UNL     1      -4.965  12.648  21.940  0.00  0.00    +0.000 NA
ATOM     27  N   UNL     1      -3.821  12.340  21.234  0.00  0.00    +0.000 NA
ATOM     28  C   UNL     1      -1.601  12.118  19.617  0.00  0.00    +0.000 C 
ATOM     29  C   UNL     1      -1.470  10.751  18.919  0.00  0.00    +0.000 C 
ENDBRANCH  16  17
ENDBRANCH   1  16
TORSDOF 5
ENDMDL
MODEL 2
REMARK VINA RESULT:      -8.5      7.753      9.855
REMARK  Name = 
REMARK  5 active torsions:
REMARK  status: ('A' for Active; 'I' for Inactive)
REMARK    1  A    between atoms: N_12  and  C_13
REMARK    2  A    between atoms: C_13  and  C_14
REMARK    3  A    between atoms: C_14  and  C_15
REMARK    4  A    between atoms: C_15  and  C_16
REMARK    5  A    between atoms: C_16  and  N_17
REMARK                            x       y       z     vdW  Elec       q    Type
REMARK                         _______ _______ _______ _____ _____    ______ ____
ROOT
ATOM      1  C   UNL     1       8.214   8.801  17.512  0.00  0.00    +0.000 C 
ENDROOT
BRANCH   1   2
ATOM      2  C   UNL     1       7.918   7.513  18.286  0.00  0.00    +0.000 C 
BRANCH   2   3
ATOM      3  C   UNL     1       7.293   6.416  17.421  0.00  0.00    +0.000 C 
BRANCH   3  15
ATOM      4  O   UNL     1       6.586   4.917  19.839  0.00  0.00    +0.000 OA
ATOM      5  C   UNL     1       5.747   5.348  19.059  0.00  0.00    +0.000 C 
ATOM      6  C   UNL     1       4.252   5.166  19.232  0.00  0.00    +0.000 C 
ATOM      7  C   UNL     1       3.812   3.691  19.325  0.00  0.00    +0.000 C 
ATOM      8  C   UNL     1       2.292   3.626  19.300  0.00  0.00    +0.000 C 
ATOM      9  C   UNL     1       1.895   3.957  18.061  0.00  0.00    +0.000 C 
ATOM     10  C   UNL     1       3.141   4.290  17.274  0.00  0.00    +0.000 C 
ATOM     11  C   UNL     1       4.057   3.219  17.887  0.00  0.00    +0.000 C 
ATOM     12  C   UNL     1       3.676   5.609  17.866  0.00  0.00    +0.000 C 
ATOM     13  C   UNL     1       4.854   6.165  17.124  0.00  0.00    +0.000 C 
ATOM     14  O   UNL     1       4.796   6.622  15.989  0.00  0.00    +0.000 OA
ATOM     15  N   UNL     1       5.973   6.030  17.891  0.00  0.00    +0.000 N 
ENDBRANCH   3  15
ENDBRANCH   2   3
ENDBRANCH   1   2
BRANCH   1  16
ATOM     16  C   UNL     1       8.354  10.076  18.353  0.00  0.00    +0.000 C 
BRANCH  16  17
ATOM     17  N   UNL     1       9.720  10.433  18.762  0.00  0.00    +0.000 NA
ATOM     18  C   UNL     1      10.463  11.227  17.758  0.00  0.00    +0.000 C 
ATOM     19  C   UNL     1      10.018  12.702  17.541  0.00  0.00    +0.000 C 
ATOM     20  N   UNL     1       9.656  13.402  18.785  0.00  0.00    +0.000 N 
ATOM     21  C   UNL     1      10.322  14.552  19.178  0.00  0.00    +0.000 A 
ATOM     22  C   UNL     1      10.646  15.553  18.265  0.00  0.00    +0.000 A 
ATOM     23  C   UNL     1      11.272  16.725  18.694  0.00  0.00    +0.000 A 
ATOM     24  C   UNL     1      11.554  16.853  20.035  0.00  0.00    +0.000 A 
ATOM     25 CL   UNL     1      12.333  18.237  20.669  0.00  0.00    +0.000 Cl
ATOM     26  N   UNL     1      11.238  15.904  20.925  0.00  0.00    +0.000 NA
ATOM     27  N   UNL     1      10.613  14.756  20.484  0.00  0.00    +0.000 NA
ATOM     28  C   UNL     1       9.010  12.609  19.840  0.00  0.00    +0.000 C 
ATOM     29  C   UNL     1       9.699  11.242  20.011  0.00  0.00    +0.000 C 
ENDBRANCH  16  17
ENDBRANCH   1  16
TORSDOF 5
ENDMDL
MODEL 3
REMARK VINA RESULT:      -8.5      0.835      1.026
REMARK  Name = 
REMARK  5 active torsions:
REMARK  status: ('A' for Active; 'I' for Inactive)
REMARK    1  A    between atoms: N_12  and  C_13
REMARK    2  A    between atoms: C_13  and  C_14
REMARK    3  A    between atoms: C_14  and  C_15
REMARK    4  A    between atoms: C_15  and  C_16
REMARK    5  A    between atoms: C_16  and  N_17
REMARK                            x       y       z     vdW  Elec       q    Type
REMARK                         _______ _______ _______ _____ _____    ______ ____
ROOT
ATOM      1  C   UNL     1       1.882   9.951  17.856  0.00  0.00    +0.000 C 
ENDROOT
BRANCH   1   2
ATOM      2  C   UNL     1       1.860   8.425  17.975  0.00  0.00    +0.000 C 
BRANCH   2   3
ATOM      3  C   UNL     1       2.561   7.905  19.231  0.00  0.00    +0.000 C 
BRANCH   3  15
ATOM      4  O   UNL     1       4.015   6.352  17.214  0.00  0.00    +0.000 OA
ATOM      5  C   UNL     1       3.507   5.840  18.201  0.00  0.00    +0.000 C 
ATOM      6  C   UNL     1       3.557   4.358  18.512  0.00  0.00    +0.000 C 
ATOM      7  C   UNL     1       2.959   3.470  17.401  0.00  0.00    +0.000 C 
ATOM      8  C   UNL     1       2.886   2.035  17.901  0.00  0.00    +0.000 C 
ATOM      9  C   UNL     1       1.929   1.985  18.843  0.00  0.00    +0.000 C 
ATOM     10  C   UNL     1       1.400   3.389  19.007  0.00  0.00    +0.000 C 
ATOM     11  C   UNL     1       1.467   3.804  17.528  0.00  0.00    +0.000 C 
ATOM     12  C   UNL     1       2.537   4.197  19.664  0.00  0.00    +0.000 C 
ATOM     13  C   UNL     1       2.148   5.600  20.020  0.00  0.00    +0.000 C 
ATOM     14  O   UNL     1       1.347   5.888  20.901  0.00  0.00    +0.000 OA
ATOM     15  N   UNL     1       2.784   6.468  19.183  0.00  0.00    +0.000 N 
ENDBRANCH   3  15
ENDBRANCH   2   3
ENDBRANCH   1   2
BRANCH   1  16
ATOM     16  C   UNL     1       0.986  10.717  18.839  0.00  0.00    +0.000 C 
BRANCH  16  17
ATOM     17  N   UNL     1      -0.277  10.062  19.206  0.00  0.00    +0.000 NA
ATOM     18  C   UNL     1      -0.381   9.714  20.641  0.00  0.00    +0.000 C 
ATOM     19  C   UNL     1      -0.559  10.883  21.651  0.00  0.00    +0.000 C 
ATOM     20  N   UNL     1      -1.458  11.948  21.174  0.00  0.00    +0.000 N 
ATOM     21  C   UNL     1      -2.601  12.287  21.881  0.00  0.00    +0.000 A 
ATOM     22  C   UNL     1      -2.592  12.399  23.269  0.00  0.00    +0.000 A 
ATOM     23  C   UNL     1      -3.743  12.791  23.954  0.00  0.00    +0.000 A 
ATOM     24  C   UNL     1      -4.873  13.062  23.217  0.00  0.00    +0.000 A 
ATOM     25 CL   UNL     1      -6.342  13.536  23.952  0.00  0.00    +0.000 Cl
ATOM     26  N   UNL     1      -4.893  12.971  21.881  0.00  0.00    +0.000 NA
ATOM     27  N   UNL     1      -3.744  12.588  21.220  0.00  0.00    +0.000 NA
ATOM     28  C   UNL     1      -1.449  12.242  19.735  0.00  0.00    +0.000 C 
ATOM     29  C   UNL     1      -1.434  10.947  18.901  0.00  0.00    +0.000 C 
ENDBRANCH  16  17
ENDBRANCH   1  16
TORSDOF 5
ENDMDL
MODEL 4
REMARK VINA RESULT:      -8.3      7.461     11.005
REMARK  Name = 
REMARK  5 active torsions:
REMARK  status: ('A' for Active; 'I' for Inactive)
REMARK    1  A    between atoms: N_12  and  C_13
REMARK    2  A    between atoms: C_13  and  C_14
REMARK    3  A    between atoms: C_14  and  C_15
REMARK    4  A    between atoms: C_15  and  C_16
REMARK    5  A    between atoms: C_16  and  N_17
REMARK                            x       y       z     vdW  Elec       q    Type
REMARK                         _______ _______ _______ _____ _____    ______ ____
ROOT
ATOM      1  C   UNL     1       7.849   9.010  17.767  0.00  0.00    +0.000 C 
ENDROOT
BRANCH   1   2
ATOM      2  C   UNL     1       8.801   9.806  18.665  0.00  0.00    +0.000 C 
BRANCH   2   3
ATOM      3  C   UNL     1       9.796  10.664  17.882  0.00  0.00    +0.000 C 
BRANCH   3  15
ATOM      4  O   UNL     1      11.673  11.636  19.913  0.00  0.00    +0.000 OA
ATOM      5  C   UNL     1      10.857  12.364  19.366  0.00  0.00    +0.000 C 
ATOM      6  C   UNL     1      10.705  13.843  19.659  0.00  0.00    +0.000 C 
ATOM      7  C   UNL     1      10.406  14.155  21.139  0.00  0.00    +0.000 C 
ATOM      8  C   UNL     1      10.083  15.635  21.277  0.00  0.00    +0.000 C 
ATOM      9  C   UNL     1       8.887  15.842  20.702  0.00  0.00    +0.000 C 
ATOM     10  C   UNL     1       8.435  14.517  20.139  0.00  0.00    +0.000 C 
ATOM     11  C   UNL     1       8.972  13.624  21.269  0.00  0.00    +0.000 C 
ATOM     12  C   UNL     1       9.378  14.214  18.956  0.00  0.00    +0.000 C 
ATOM     13  C   UNL     1       9.001  12.983  18.189  0.00  0.00    +0.000 C 
ATOM     14  O   UNL     1       7.995  12.887  17.496  0.00  0.00    +0.000 OA
ATOM     15  N   UNL     1       9.919  12.005  18.431  0.00  0.00    +0.000 N 
ENDBRANCH   3  15
ENDBRANCH   2   3
ENDBRANCH   1   2
BRANCH   1  16
ATOM     16  C   UNL     1       7.988   7.483  17.823  0.00  0.00    +0.000 C 
BRANCH  16  17
ATOM     17  N   UNL     1       7.203   6.727  16.837  0.00  0.00    +0.000 NA
ATOM     18  C   UNL     1       7.328   5.258  16.964  0.00  0.00    +0.000 C 
ATOM     19  C   UNL     1       6.652   4.585  18.192  0.00  0.00    +0.000 C 
ATOM     20  N   UNL     1       5.338   5.156  18.534  0.00  0.00    +0.000 N 
ATOM     21  C   UNL     1       4.198   4.369  18.544  0.00  0.00    +0.000 A 
ATOM     22  C   UNL     1       4.202   3.088  19.091  0.00  0.00    +0.000 A 
ATOM     23  C   UNL     1       3.028   2.334  19.135  0.00  0.00    +0.000 A 
ATOM     24  C   UNL     1       1.880   2.896  18.626  0.00  0.00    +0.000 A 
ATOM     25 CL   UNL     1       0.390   2.058  18.613  0.00  0.00    +0.000 Cl
ATOM     26  N   UNL     1       1.858   4.131  18.108  0.00  0.00    +0.000 NA
ATOM     27  N   UNL     1       3.026   4.864  18.079  0.00  0.00    +0.000 NA
ATOM     28  C   UNL     1       5.155   6.598  18.318  0.00  0.00    +0.000 C 
ATOM     29  C   UNL     1       5.754   7.041  16.970  0.00  0.00    +0.000 C 
ENDBRANCH  16  17
ENDBRANCH   1  16
TORSDOF 5
ENDMDL
MODEL 5
REMARK VINA RESULT:      -8.3      7.545      9.558
REMARK  Name = 
REMARK  5 active torsions:
REMARK  status: ('A' for Active; 'I' for Inactive)
REMARK    1  A    between atoms: N_12  and  C_13
REMARK    2  A    between atoms: C_13  and  C_14
REMARK    3  A    between atoms: C_14  and  C_15
REMARK    4  A    between atoms: C_15  and  C_16
REMARK    5  A    between atoms: C_16  and  N_17
REMARK                            x       y       z     vdW  Elec       q    Type
REMARK                         _______ _______ _______ _____ _____    ______ ____
ROOT
ATOM      1  C   UNL     1       8.286   8.655  18.504  0.00  0.00    +0.000 C 
ENDROOT
BRANCH   1   2
ATOM      2  C   UNL     1       7.432   7.995  17.417  0.00  0.00    +0.000 C 
BRANCH   2   3
ATOM      3  C   UNL     1       7.621   6.480  17.334  0.00  0.00    +0.000 C 
BRANCH   3  15
ATOM      4  O   UNL     1       5.239   6.047  15.681  0.00  0.00    +0.000 OA
ATOM      5  C   UNL     1       5.354   5.586  16.807  0.00  0.00    +0.000 C 
ATOM      6  C   UNL     1       4.297   4.744  17.493  0.00  0.00    +0.000 C 
ATOM      7  C   UNL     1       2.929   5.444  17.618  0.00  0.00    +0.000 C 
ATOM      8  C   UNL     1       2.014   4.592  18.486  0.00  0.00    +0.000 C 
ATOM      9  C   UNL     1       2.477   4.658  19.745  0.00  0.00    +0.000 C 
ATOM     10  C   UNL     1       3.723   5.510  19.712  0.00  0.00    +0.000 C 
ATOM     11  C   UNL     1       3.245   6.524  18.661  0.00  0.00    +0.000 C 
ATOM     12  C   UNL     1       4.784   4.680  18.960  0.00  0.00    +0.000 C 
ATOM     13  C   UNL     1       6.138   5.321  18.935  0.00  0.00    +0.000 C 
ATOM     14  O   UNL     1       6.851   5.459  19.922  0.00  0.00    +0.000 OA
ATOM     15  N   UNL     1       6.406   5.754  17.670  0.00  0.00    +0.000 N 
ENDBRANCH   3  15
ENDBRANCH   2   3
ENDBRANCH   1   2
BRANCH   1  16
ATOM     16  C   UNL     1       8.603  10.142  18.303  0.00  0.00    +0.000 C 
BRANCH  16  17
ATOM     17  N   UNL     1       9.918  10.592  18.779  0.00  0.00    +0.000 NA
ATOM     18  C   UNL     1      10.514  11.678  17.968  0.00  0.00    +0.000 C 
ATOM     19  C   UNL     1       9.866  13.087  18.072  0.00  0.00    +0.000 C 
ATOM     20  N   UNL     1       9.449  13.450  19.437  0.00  0.00    +0.000 N 
ATOM     21  C   UNL     1       9.963  14.572  20.067  0.00  0.00    +0.000 A 
ATOM     22  C   UNL     1      10.119  15.780  19.390  0.00  0.00    +0.000 A 
ATOM     23  C   UNL     1      10.592  16.909  20.060  0.00  0.00    +0.000 A 
ATOM     24  C   UNL     1      10.894  16.788  21.397  0.00  0.00    +0.000 A 
ATOM     25 CL   UNL     1      11.495  18.102  22.312  0.00  0.00    +0.000 Cl
ATOM     26  N   UNL     1      10.738  15.638  22.063  0.00  0.00    +0.000 NA
ATOM     27  N   UNL     1      10.263  14.533  21.387  0.00  0.00    +0.000 NA
ATOM     28  C   UNL     1       8.950  12.369  20.298  0.00  0.00    +0.000 C 
ATOM     29  C   UNL     1       9.825  11.107  20.171  0.00  0.00    +0.000 C 
ENDBRANCH  16  17
ENDBRANCH   1  16
TORSDOF 5
ENDMDL
MODEL 6
REMARK VINA RESULT:      -8.2      7.477     11.153
REMARK  Name = 
REMARK  5 active torsions:
REMARK  status: ('A' for Active; 'I' for Inactive)
REMARK    1  A    between atoms: N_12  and  C_13
REMARK    2  A    between atoms: C_13  and  C_14
REMARK    3  A    between atoms: C_14  and  C_15
REMARK    4  A    between atoms: C_15  and  C_16
REMARK    5  A    between atoms: C_16  and  N_17
REMARK                            x       y       z     vdW  Elec       q    Type
REMARK                         _______ _______ _______ _____ _____    ______ ____
ROOT
ATOM      1  C   UNL     1       8.541   8.398  18.258  0.00  0.00    +0.000 C 
ENDROOT
BRANCH   1   2
ATOM      2  C   UNL     1       8.684   9.897  18.535  0.00  0.00    +0.000 C 
BRANCH   2   3
ATOM      3  C   UNL     1       9.498  10.205  19.793  0.00  0.00    +0.000 C 
BRANCH   3  15
ATOM      4  O   UNL     1       9.710  12.350  21.781  0.00  0.00    +0.000 OA
ATOM      5  C   UNL     1      10.273  12.396  20.697  0.00  0.00    +0.000 C 
ATOM      6  C   UNL     1      11.142  13.551  20.238  0.00  0.00    +0.000 C 
ATOM      7  C   UNL     1      10.415  14.911  20.231  0.00  0.00    +0.000 C 
ATOM      8  C   UNL     1      11.314  15.949  19.576  0.00  0.00    +0.000 C 
ATOM      9  C   UNL     1      11.375  15.659  18.266  0.00  0.00    +0.000 C 
ATOM     10  C   UNL     1      10.561  14.405  18.055  0.00  0.00    +0.000 C 
ATOM     11  C   UNL     1       9.442  14.719  19.061  0.00  0.00    +0.000 C 
ATOM     12  C   UNL     1      11.351  13.267  18.732  0.00  0.00    +0.000 C 
ATOM     13  C   UNL     1      10.751  11.910  18.518  0.00  0.00    +0.000 C 
ATOM     14  O   UNL     1      10.723  11.335  17.437  0.00  0.00    +0.000 OA
ATOM     15  N   UNL     1      10.215  11.467  19.690  0.00  0.00    +0.000 N 
ENDBRANCH   3  15
ENDBRANCH   2   3
ENDBRANCH   1   2
BRANCH   1  16
ATOM     16  C   UNL     1       7.480   8.001  17.223  0.00  0.00    +0.000 C 
BRANCH  16  17
ATOM     17  N   UNL     1       7.337   6.561  16.965  0.00  0.00    +0.000 NA
ATOM     18  C   UNL     1       7.306   5.729  18.188  0.00  0.00    +0.000 C 
ATOM     19  C   UNL     1       6.034   5.813  19.079  0.00  0.00    +0.000 C 
ATOM     20  N   UNL     1       4.778   5.892  18.315  0.00  0.00    +0.000 N 
ATOM     21  C   UNL     1       3.787   4.935  18.467  0.00  0.00    +0.000 A 
ATOM     22  C   UNL     1       3.432   4.449  19.723  0.00  0.00    +0.000 A 
ATOM     23  C   UNL     1       2.396   3.522  19.855  0.00  0.00    +0.000 A 
ATOM     24  C   UNL     1       1.747   3.111  18.713  0.00  0.00    +0.000 A 
ATOM     25 CL   UNL     1       0.476   1.969  18.754  0.00  0.00    +0.000 Cl
ATOM     26  N   UNL     1       2.070   3.579  17.500  0.00  0.00    +0.000 NA
ATOM     27  N   UNL     1       3.092   4.500  17.390  0.00  0.00    +0.000 NA
ATOM     28  C   UNL     1       4.809   6.627  17.043  0.00  0.00    +0.000 C 
ATOM     29  C   UNL     1       6.073   6.284  16.232  0.00  0.00    +0.000 C 
ENDBRANCH  16  17
ENDBRANCH   1  16
TORSDOF 5
ENDMDL
MODEL 7
REMARK VINA RESULT:      -8.2      2.675      4.380
REMARK  Name = 
REMARK  5 active torsions:
REMARK  status: ('A' for Active; 'I' for Inactive)
REMARK    1  A    between atoms: N_12  and  C_13
REMARK    2  A    between atoms: C_13  and  C_14
REMARK    3  A    between atoms: C_14  and  C_15
REMARK    4  A    between atoms: C_15  and  C_16
REMARK    5  A    between atoms: C_16  and  N_17
REMARK                            x       y       z     vdW  Elec       q    Type
REMARK                         _______ _______ _______ _____ _____    ______ ____
ROOT
ATOM      1  C   UNL     1       1.424   5.861  20.261  0.00  0.00    +0.000 C 
ENDROOT
BRANCH   1   2
ATOM      2  C   UNL     1       2.912   5.958  19.908  0.00  0.00    +0.000 C 
BRANCH   2   3
ATOM      3  C   UNL     1       3.639   4.614  19.979  0.00  0.00    +0.000 C 
BRANCH   3  15
ATOM      4  O   UNL     1       6.409   5.481  19.564  0.00  0.00    +0.000 OA
ATOM      5  C   UNL     1       5.794   4.817  18.741  0.00  0.00    +0.000 C 
ATOM      6  C   UNL     1       6.369   4.361  17.415  0.00  0.00    +0.000 C 
ATOM      7  C   UNL     1       6.866   5.516  16.523  0.00  0.00    +0.000 C 
ATOM      8  C   UNL     1       7.237   4.961  15.156  0.00  0.00    +0.000 C 
ATOM      9  C   UNL     1       6.096   4.606  14.542  0.00  0.00    +0.000 C 
ATOM     10  C   UNL     1       4.972   4.877  15.513  0.00  0.00    +0.000 C 
ATOM     11  C   UNL     1       5.538   6.170  16.121  0.00  0.00    +0.000 C 
ATOM     12  C   UNL     1       5.131   3.842  16.646  0.00  0.00    +0.000 C 
ATOM     13  C   UNL     1       4.021   3.878  17.652  0.00  0.00    +0.000 C 
ATOM     14  O   UNL     1       2.869   3.537  17.415  0.00  0.00    +0.000 OA
ATOM     15  N   UNL     1       4.494   4.389  18.824  0.00  0.00    +0.000 N 
ENDBRANCH   3  15
ENDBRANCH   2   3
ENDBRANCH   1   2
BRANCH   1  16
ATOM     16  C   UNL     1       0.854   7.010  21.103  0.00  0.00    +0.000 C 
BRANCH  16  17
ATOM     17  N   UNL     1       1.554   8.298  20.995  0.00  0.00    +0.000 NA
ATOM     18  C   UNL     1       1.029   9.182  19.930  0.00  0.00    +0.000 C 
ATOM     19  C   UNL     1      -0.367   9.827  20.158  0.00  0.00    +0.000 C 
ATOM     20  N   UNL     1      -0.596  10.272  21.543  0.00  0.00    +0.000 N 
ATOM     21  C   UNL     1      -0.877  11.598  21.831  0.00  0.00    +0.000 A 
ATOM     22  C   UNL     1      -1.758  12.342  21.048  0.00  0.00    +0.000 A 
ATOM     23  C   UNL     1      -2.064  13.661  21.387  0.00  0.00    +0.000 A 
ATOM     24  C   UNL     1      -1.471  14.193  22.510  0.00  0.00    +0.000 A 
ATOM     25 CL   UNL     1      -1.761  15.802  23.010  0.00  0.00    +0.000 Cl
ATOM     26  N   UNL     1      -0.633  13.487  23.278  0.00  0.00    +0.000 NA
ATOM     27  N   UNL     1      -0.347  12.183  22.931  0.00  0.00    +0.000 NA
ATOM     28  C   UNL     1       0.003   9.467  22.617  0.00  0.00    +0.000 C 
ATOM     29  C   UNL     1       1.447   9.060  22.268  0.00  0.00    +0.000 C 
ENDBRANCH  16  17
ENDBRANCH   1  16
TORSDOF 5
ENDMDL
MODEL 8
REMARK VINA RESULT:      -8.1      1.575      2.048
REMARK  Name = 
REMARK  5 active torsions:
REMARK  status: ('A' for Active; 'I' for Inactive)
REMARK    1  A    between atoms: N_12  and  C_13
REMARK    2  A    between atoms: C_13  and  C_14
REMARK    3  A    between atoms: C_14  and  C_15
REMARK    4  A    between atoms: C_15  and  C_16
REMARK    5  A    between atoms: C_16  and  N_17
REMARK                            x       y       z     vdW  Elec       q    Type
REMARK                         _______ _______ _______ _____ _____    ______ ____
ROOT
ATOM      1  C   UNL     1       1.613   9.689  17.830  0.00  0.00    +0.000 C 
ENDROOT
BRANCH   1   2
ATOM      2  C   UNL     1       1.838   8.175  17.782  0.00  0.00    +0.000 C 
BRANCH   2   3
ATOM      3  C   UNL     1       3.233   7.755  18.250  0.00  0.00    +0.000 C 
BRANCH   3  15
ATOM      4  O   UNL     1       4.395   5.522  16.749  0.00  0.00    +0.000 OA
ATOM      5  C   UNL     1       3.886   5.382  17.852  0.00  0.00    +0.000 C 
ATOM      6  C   UNL     1       3.786   4.057  18.582  0.00  0.00    +0.000 C 
ATOM      7  C   UNL     1       3.034   2.968  17.790  0.00  0.00    +0.000 C 
ATOM      8  C   UNL     1       2.827   1.758  18.689  0.00  0.00    +0.000 C 
ATOM      9  C   UNL     1       1.922   2.099  19.621  0.00  0.00    +0.000 C 
ATOM     10  C   UNL     1       1.562   3.545  19.377  0.00  0.00    +0.000 C 
ATOM     11  C   UNL     1       1.598   3.504  17.841  0.00  0.00    +0.000 C 
ATOM     12  C   UNL     1       2.816   4.362  19.749  0.00  0.00    +0.000 C 
ATOM     13  C   UNL     1       2.606   5.845  19.685  0.00  0.00    +0.000 C 
ATOM     14  O   UNL     1       1.890   6.470  20.458  0.00  0.00    +0.000 OA
ATOM     15  N   UNL     1       3.290   6.350  18.620  0.00  0.00    +0.000 N 
ENDBRANCH   3  15
ENDBRANCH   2   3
ENDBRANCH   1   2
BRANCH   1  16
ATOM     16  C   UNL     1       0.643  10.193  18.907  0.00  0.00    +0.000 C 
BRANCH  16  17
ATOM     17  N   UNL     1       0.542  11.652  19.052  0.00  0.00    +0.000 NA
ATOM     18  C   UNL     1      -0.840  12.173  18.959  0.00  0.00    +0.000 C 
ATOM     19  C   UNL     1      -1.801  11.872  20.144  0.00  0.00    +0.000 C 
ATOM     20  N   UNL     1      -1.160  11.965  21.467  0.00  0.00    +0.000 N 
ATOM     21  C   UNL     1      -1.624  12.852  22.425  0.00  0.00    +0.000 A 
ATOM     22  C   UNL     1      -2.987  13.026  22.656  0.00  0.00    +0.000 A 
ATOM     23  C   UNL     1      -3.428  13.888  23.661  0.00  0.00    +0.000 A 
ATOM     24  C   UNL     1      -2.480  14.551  24.407  0.00  0.00    +0.000 A 
ATOM     25 CL   UNL     1      -2.906  15.641  25.652  0.00  0.00    +0.000 Cl
ATOM     26  N   UNL     1      -1.166  14.384  24.204  0.00  0.00    +0.000 NA
ATOM     27  N   UNL     1      -0.749  13.523  23.210  0.00  0.00    +0.000 NA
ATOM     28  C   UNL     1       0.247  11.550  21.563  0.00  0.00    +0.000 C 
ATOM     29  C   UNL     1       1.068  12.084  20.375  0.00  0.00    +0.000 C 
ENDBRANCH  16  17
ENDBRANCH   1  16
TORSDOF 5
ENDMDL
MODEL 9
REMARK VINA RESULT:      -8.1      1.578      1.792
REMARK  Name = 
REMARK  5 active torsions:
REMARK  status: ('A' for Active; 'I' for Inactive)
REMARK    1  A    between atoms: N_12  and  C_13
REMARK    2  A    between atoms: C_13  and  C_14
REMARK    3  A    between atoms: C_14  and  C_15
REMARK    4  A    between atoms: C_15  and  C_16
REMARK    5  A    between atoms: C_16  and  N_17
REMARK                            x       y       z     vdW  Elec       q    Type
REMARK                         _______ _______ _______ _____ _____    ______ ____
ROOT
ATOM      1  C   UNL     1       1.835   9.733  17.825  0.00  0.00    +0.000 C 
ENDROOT
BRANCH   1   2
ATOM      2  C   UNL     1       1.793   8.218  18.043  0.00  0.00    +0.000 C 
BRANCH   2   3
ATOM      3  C   UNL     1       2.583   7.760  19.271  0.00  0.00    +0.000 C 
BRANCH   3  15
ATOM      4  O   UNL     1       4.279   6.310  17.370  0.00  0.00    +0.000 OA
ATOM      5  C   UNL     1       3.721   5.761  18.309  0.00  0.00    +0.000 C 
ATOM      6  C   UNL     1       3.826   4.280  18.613  0.00  0.00    +0.000 C 
ATOM      7  C   UNL     1       3.370   3.374  17.452  0.00  0.00    +0.000 C 
ATOM      8  C   UNL     1       3.334   1.931  17.935  0.00  0.00    +0.000 C 
ATOM      9  C   UNL     1       2.308   1.820  18.794  0.00  0.00    +0.000 C 
ATOM     10  C   UNL     1       1.691   3.192  18.923  0.00  0.00    +0.000 C 
ATOM     11  C   UNL     1       1.857   3.625  17.458  0.00  0.00    +0.000 C 
ATOM     12  C   UNL     1       2.726   4.052  19.677  0.00  0.00    +0.000 C 
ATOM     13  C   UNL     1       2.233   5.429  20.008  0.00  0.00    +0.000 C 
ATOM     14  O   UNL     1       1.348   5.663  20.822  0.00  0.00    +0.000 OA
ATOM     15  N   UNL     1       2.887   6.339  19.232  0.00  0.00    +0.000 N 
ENDBRANCH   3  15
ENDBRANCH   2   3
ENDBRANCH   1   2
BRANCH   1  16
ATOM     16  C   UNL     1       1.016  10.579  18.809  0.00  0.00    +0.000 C 
BRANCH  16  17
ATOM     17  N   UNL     1      -0.191   9.944  19.357  0.00  0.00    +0.000 NA
ATOM     18  C   UNL     1      -0.545  10.397  20.721  0.00  0.00    +0.000 C 
ATOM     19  C   UNL     1      -1.095  11.843  20.875  0.00  0.00    +0.000 C 
ATOM     20  N   UNL     1      -2.015  12.247  19.797  0.00  0.00    +0.000 N 
ATOM     21  C   UNL     1      -3.317  12.630  20.075  0.00  0.00    +0.000 A 
ATOM     22  C   UNL     1      -3.617  13.460  21.153  0.00  0.00    +0.000 A 
ATOM     23  C   UNL     1      -4.930  13.873  21.383  0.00  0.00    +0.000 A 
ATOM     24  C   UNL     1      -5.905  13.437  20.516  0.00  0.00    +0.000 A 
ATOM     25 CL   UNL     1      -7.548  13.868  20.710  0.00  0.00    +0.000 Cl
ATOM     26  N   UNL     1      -5.630  12.650  19.468  0.00  0.00    +0.000 NA
ATOM     27  N   UNL     1      -4.325  12.257  19.253  0.00  0.00    +0.000 NA
ATOM     28  C   UNL     1      -1.743  11.725  18.450  0.00  0.00    +0.000 C 
ATOM     29  C   UNL     1      -1.370  10.231  18.496  0.00  0.00    +0.000 C 
ENDBRANCH  16  17
ENDBRANCH   1  16
TORSDOF 5
ENDMDL
