MODEL 1
REMARK VINA RESULT:      -6.3      0.000      0.000
REMARK  Name = 
REMARK  0 active torsions:
REMARK  status: ('A' for Active; 'I' for Inactive)
REMARK                            x       y       z     vdW  Elec       q    Type
REMARK                         _______ _______ _______ _____ _____    ______ ____
ROOT
ATOM      1  O   UNL     1       7.932   4.529  16.443  0.00  0.00    +0.000 OA
ATOM      2  C   UNL     1       6.823   4.385  16.964  0.00  0.00    +0.000 C 
ATOM      3  C   UNL     1       5.555   4.208  16.117  0.00  0.00    +0.000 C 
ATOM      4  O   UNL     1       4.327   4.753  16.576  0.00  0.00    +0.000 OA
ATOM      5  C   UNL     1       3.775   3.947  17.533  0.00  0.00    +0.000 A 
ATOM      6  C   UNL     1       2.580   3.294  17.235  0.00  0.00    +0.000 A 
ATOM      7  C   UNL     1       1.978   2.489  18.200  0.00  0.00    +0.000 A 
ATOM      8  C   UNL     1       2.565   2.353  19.458  0.00  0.00    +0.000 A 
ATOM      9  C   UNL     1       3.752   3.027  19.756  0.00  0.00    +0.000 A 
ATOM     10  C   UNL     1       4.368   3.838  18.792  0.00  0.00    +0.000 A 
ATOM     11  C   UNL     1       5.596   4.634  19.110  0.00  0.00    +0.000 C 
ATOM     12  N   UNL     1       6.749   4.264  18.322  0.00  0.00    +0.000 N 
ATOM     13  H   UNL     1       7.653   4.413  18.752  0.00  0.00    +0.000 HD
ENDROOT
TORSDOF 0
ENDMDL
MODEL 2
REMARK VINA RESULT:      -5.9      1.655      1.789
REMARK  Name = 
REMARK  0 active torsions:
REMARK  status: ('A' for Active; 'I' for Inactive)
REMARK                            x       y       z     vdW  Elec       q    Type
REMARK                         _______ _______ _______ _____ _____    ______ ____
ROOT
ATOM      1  O   UNL     1       6.807   4.505  17.661  0.00  0.00    +0.000 OA
ATOM      2  C   UNL     1       5.633   4.494  18.035  0.00  0.00    +0.000 C 
ATOM      3  C   UNL     1       4.556   3.704  17.277  0.00  0.00    +0.000 C 
ATOM      4  O   UNL     1       3.234   4.217  17.207  0.00  0.00    +0.000 OA
ATOM      5  C   UNL     1       2.564   3.969  18.374  0.00  0.00    +0.000 A 
ATOM      6  C   UNL     1       1.486   3.086  18.340  0.00  0.00    +0.000 A 
ATOM      7  C   UNL     1       0.766   2.837  19.507  0.00  0.00    +0.000 A 
ATOM      8  C   UNL     1       1.117   3.481  20.693  0.00  0.00    +0.000 A 
ATOM      9  C   UNL     1       2.186   4.381  20.714  0.00  0.00    +0.000 A 
ATOM     10  C   UNL     1       2.919   4.637  19.548  0.00  0.00    +0.000 A 
ATOM     11  C   UNL     1       4.017   5.656  19.523  0.00  0.00    +0.000 C 
ATOM     12  N   UNL     1       5.316   5.104  19.215  0.00  0.00    +0.000 N 
ATOM     13  H   UNL     1       6.114   5.593  19.600  0.00  0.00    +0.000 HD
ENDROOT
TORSDOF 0
ENDMDL
MODEL 3
REMARK VINA RESULT:      -5.9      3.141      4.739
REMARK  Name = 
REMARK  0 active torsions:
REMARK  status: ('A' for Active; 'I' for Inactive)
REMARK                            x       y       z     vdW  Elec       q    Type
REMARK                         _______ _______ _______ _____ _____    ______ ____
ROOT
ATOM      1  O   UNL     1       1.291   2.449  22.347  0.00  0.00    +0.000 OA
ATOM      2  C   UNL     1       1.834   2.938  21.354  0.00  0.00    +0.000 C 
ATOM      3  C   UNL     1       1.113   3.966  20.469  0.00  0.00    +0.000 C 
ATOM      4  O   UNL     1       1.351   3.970  19.069  0.00  0.00    +0.000 OA
ATOM      5  C   UNL     1       2.537   4.591  18.789  0.00  0.00    +0.000 A 
ATOM      6  C   UNL     1       2.499   5.797  18.089  0.00  0.00    +0.000 A 
ATOM      7  C   UNL     1       3.693   6.439  17.764  0.00  0.00    +0.000 A 
ATOM      8  C   UNL     1       4.912   5.867  18.124  0.00  0.00    +0.000 A 
ATOM      9  C   UNL     1       4.942   4.647  18.806  0.00  0.00    +0.000 A 
ATOM     10  C   UNL     1       3.749   3.994  19.142  0.00  0.00    +0.000 A 
ATOM     11  C   UNL     1       3.752   2.648  19.801  0.00  0.00    +0.000 C 
ATOM     12  N   UNL     1       3.145   2.642  21.111  0.00  0.00    +0.000 N 
ATOM     13  H   UNL     1       3.489   1.947  21.762  0.00  0.00    +0.000 HD
ENDROOT
TORSDOF 0
ENDMDL
MODEL 4
REMARK VINA RESULT:      -5.9      3.261      4.934
REMARK  Name = 
REMARK  0 active torsions:
REMARK  status: ('A' for Active; 'I' for Inactive)
REMARK                            x       y       z     vdW  Elec       q    Type
REMARK                         _______ _______ _______ _____ _____    ______ ____
ROOT
ATOM      1  O   UNL     1       1.368   2.491  22.223  0.00  0.00    +0.000 OA
ATOM      2  C   UNL     1       1.677   3.044  21.165  0.00  0.00    +0.000 C 
ATOM      3  C   UNL     1       2.126   4.512  21.127  0.00  0.00    +0.000 C 
ATOM      4  O   UNL     1       1.783   5.318  20.010  0.00  0.00    +0.000 OA
ATOM      5  C   UNL     1       2.618   5.056  18.959  0.00  0.00    +0.000 A 
ATOM      6  C   UNL     1       3.490   6.063  18.544  0.00  0.00    +0.000 A 
ATOM      7  C   UNL     1       4.332   5.837  17.458  0.00  0.00    +0.000 A 
ATOM      8  C   UNL     1       4.289   4.617  16.785  0.00  0.00    +0.000 A 
ATOM      9  C   UNL     1       3.398   3.620  17.193  0.00  0.00    +0.000 A 
ATOM     10  C   UNL     1       2.548   3.835  18.286  0.00  0.00    +0.000 A 
ATOM     11  C   UNL     1       1.527   2.817  18.695  0.00  0.00    +0.000 C 
ATOM     12  N   UNL     1       1.731   2.293  20.025  0.00  0.00    +0.000 N 
ATOM     13  H   UNL     1       1.399   1.351  20.193  0.00  0.00    +0.000 HD
ENDROOT
TORSDOF 0
ENDMDL
MODEL 5
REMARK VINA RESULT:      -5.9      1.805      2.726
REMARK  Name = 
REMARK  0 active torsions:
REMARK  status: ('A' for Active; 'I' for Inactive)
REMARK                            x       y       z     vdW  Elec       q    Type
REMARK                         _______ _______ _______ _____ _____    ______ ____
ROOT
ATOM      1  O   UNL     1       6.107   5.994  17.475  0.00  0.00    +0.000 OA
ATOM      2  C   UNL     1       5.263   5.193  17.882  0.00  0.00    +0.000 C 
ATOM      3  C   UNL     1       5.311   4.632  19.311  0.00  0.00    +0.000 C 
ATOM      4  O   UNL     1       4.893   3.297  19.551  0.00  0.00    +0.000 OA
ATOM      5  C   UNL     1       3.527   3.225  19.591  0.00  0.00    +0.000 A 
ATOM      6  C   UNL     1       2.920   2.903  20.804  0.00  0.00    +0.000 A 
ATOM      7  C   UNL     1       1.532   2.793  20.869  0.00  0.00    +0.000 A 
ATOM      8  C   UNL     1       0.764   2.990  19.722  0.00  0.00    +0.000 A 
ATOM      9  C   UNL     1       1.381   3.291  18.505  0.00  0.00    +0.000 A 
ATOM     10  C   UNL     1       2.776   3.407  18.429  0.00  0.00    +0.000 A 
ATOM     11  C   UNL     1       3.469   3.650  17.122  0.00  0.00    +0.000 C 
ATOM     12  N   UNL     1       4.201   4.893  17.076  0.00  0.00    +0.000 N 
ATOM     13  H   UNL     1       4.304   5.320  16.164  0.00  0.00    +0.000 HD
ENDROOT
TORSDOF 0
ENDMDL
MODEL 6
REMARK VINA RESULT:      -5.8      2.639      4.487
REMARK  Name = 
REMARK  0 active torsions:
REMARK  status: ('A' for Active; 'I' for Inactive)
REMARK                            x       y       z     vdW  Elec       q    Type
REMARK                         _______ _______ _______ _____ _____    ______ ____
ROOT
ATOM      1  O   UNL     1       0.361   2.185  18.781  0.00  0.00    +0.000 OA
ATOM      2  C   UNL     1       1.367   2.858  18.549  0.00  0.00    +0.000 C 
ATOM      3  C   UNL     1       2.481   2.346  17.624  0.00  0.00    +0.000 C 
ATOM      4  O   UNL     1       3.832   2.685  17.904  0.00  0.00    +0.000 OA
ATOM      5  C   UNL     1       4.100   3.959  17.488  0.00  0.00    +0.000 A 
ATOM      6  C   UNL     1       4.998   4.133  16.434  0.00  0.00    +0.000 A 
ATOM      7  C   UNL     1       5.313   5.421  16.007  0.00  0.00    +0.000 A 
ATOM      8  C   UNL     1       4.745   6.524  16.642  0.00  0.00    +0.000 A 
ATOM      9  C   UNL     1       3.863   6.343  17.711  0.00  0.00    +0.000 A 
ATOM     10  C   UNL     1       3.535   5.052  18.147  0.00  0.00    +0.000 A 
ATOM     11  C   UNL     1       2.656   4.830  19.341  0.00  0.00    +0.000 C 
ATOM     12  N   UNL     1       1.429   4.133  19.036  0.00  0.00    +0.000 N 
ATOM     13  H   UNL     1       0.638   4.333  19.635  0.00  0.00    +0.000 HD
ENDROOT
TORSDOF 0
ENDMDL
MODEL 7
REMARK VINA RESULT:      -5.8      1.305      1.324
REMARK  Name = 
REMARK  0 active torsions:
REMARK  status: ('A' for Active; 'I' for Inactive)
REMARK                            x       y       z     vdW  Elec       q    Type
REMARK                         _______ _______ _______ _____ _____    ______ ____
ROOT
ATOM      1  O   UNL     1       7.406   5.765  15.762  0.00  0.00    +0.000 OA
ATOM      2  C   UNL     1       6.450   5.439  16.469  0.00  0.00    +0.000 C 
ATOM      3  C   UNL     1       5.063   6.071  16.285  0.00  0.00    +0.000 C 
ATOM      4  O   UNL     1       4.238   6.286  17.421  0.00  0.00    +0.000 OA
ATOM      5  C   UNL     1       3.634   5.119  17.800  0.00  0.00    +0.000 A 
ATOM      6  C   UNL     1       2.249   5.023  17.671  0.00  0.00    +0.000 A 
ATOM      7  C   UNL     1       1.601   3.858  18.077  0.00  0.00    +0.000 A 
ATOM      8  C   UNL     1       2.337   2.805  18.620  0.00  0.00    +0.000 A 
ATOM      9  C   UNL     1       3.722   2.917  18.765  0.00  0.00    +0.000 A 
ATOM     10  C   UNL     1       4.385   4.083  18.359  0.00  0.00    +0.000 A 
ATOM     11  C   UNL     1       5.857   4.262  18.576  0.00  0.00    +0.000 C 
ATOM     12  N   UNL     1       6.611   4.410  17.354  0.00  0.00    +0.000 N 
ATOM     13  H   UNL     1       7.573   4.097  17.379  0.00  0.00    +0.000 HD
ENDROOT
TORSDOF 0
ENDMDL
MODEL 8
REMARK VINA RESULT:      -5.8      2.067      2.676
REMARK  Name = 
REMARK  0 active torsions:
REMARK  status: ('A' for Active; 'I' for Inactive)
REMARK                            x       y       z     vdW  Elec       q    Type
REMARK                         _______ _______ _______ _____ _____    ______ ____
ROOT
ATOM      1  O   UNL     1       5.249   6.235  16.051  0.00  0.00    +0.000 OA
ATOM      2  C   UNL     1       4.635   5.583  16.899  0.00  0.00    +0.000 C 
ATOM      3  C   UNL     1       4.108   6.234  18.186  0.00  0.00    +0.000 C 
ATOM      4  O   UNL     1       4.091   5.483  19.391  0.00  0.00    +0.000 OA
ATOM      5  C   UNL     1       3.021   4.631  19.407  0.00  0.00    +0.000 A 
ATOM      6  C   UNL     1       2.013   4.858  20.344  0.00  0.00    +0.000 A 
ATOM      7  C   UNL     1       0.925   3.990  20.405  0.00  0.00    +0.000 A 
ATOM      8  C   UNL     1       0.857   2.897  19.543  0.00  0.00    +0.000 A 
ATOM      9  C   UNL     1       1.882   2.664  18.621  0.00  0.00    +0.000 A 
ATOM     10  C   UNL     1       2.980   3.531  18.549  0.00  0.00    +0.000 A 
ATOM     11  C   UNL     1       4.130   3.262  17.627  0.00  0.00    +0.000 C 
ATOM     12  N   UNL     1       4.322   4.282  16.624  0.00  0.00    +0.000 N 
ATOM     13  H   UNL     1       4.740   3.982  15.752  0.00  0.00    +0.000 HD
ENDROOT
TORSDOF 0
ENDMDL
MODEL 9
REMARK VINA RESULT:      -5.7      1.117      1.176
REMARK  Name = 
REMARK  0 active torsions:
REMARK  status: ('A' for Active; 'I' for Inactive)
REMARK                            x       y       z     vdW  Elec       q    Type
REMARK                         _______ _______ _______ _____ _____    ______ ____
ROOT
ATOM      1  O   UNL     1       6.697   4.211  16.351  0.00  0.00    +0.000 OA
ATOM      2  C   UNL     1       5.709   4.166  17.088  0.00  0.00    +0.000 C 
ATOM      3  C   UNL     1       4.283   4.231  16.524  0.00  0.00    +0.000 C 
ATOM      4  O   UNL     1       3.267   4.889  17.267  0.00  0.00    +0.000 OA
ATOM      5  C   UNL     1       2.812   4.081  18.272  0.00  0.00    +0.000 A 
ATOM      6  C   UNL     1       1.498   3.618  18.201  0.00  0.00    +0.000 A 
ATOM      7  C   UNL     1       0.997   2.816  19.224  0.00  0.00    +0.000 A 
ATOM      8  C   UNL     1       1.802   2.496  20.316  0.00  0.00    +0.000 A 
ATOM      9  C   UNL     1       3.111   2.981  20.391  0.00  0.00    +0.000 A 
ATOM     10  C   UNL     1       3.627   3.785  19.366  0.00  0.00    +0.000 A 
ATOM     11  C   UNL     1       4.998   4.385  19.459  0.00  0.00    +0.000 C 
ATOM     12  N   UNL     1       5.898   3.938  18.421  0.00  0.00    +0.000 N 
ATOM     13  H   UNL     1       6.883   3.929  18.655  0.00  0.00    +0.000 HD
ENDROOT
TORSDOF 0
ENDMDL
