MODEL 1
REMARK VINA RESULT:      -9.0      0.000      0.000
REMARK  Name = 
REMARK  4 active torsions:
REMARK  status: ('A' for Active; 'I' for Inactive)
REMARK    1  A    between atoms: C_1  and  O_2
REMARK    2  A    between atoms: O_2  and  C_3
REMARK    3  A    between atoms: C_6  and  C_7
REMARK    4  A    between atoms: C_10  and  C_11
REMARK                            x       y       z     vdW  Elec       q    Type
REMARK                         _______ _______ _______ _____ _____    ______ ____
ROOT
ATOM      1  C   UNL     1       2.278   6.522  19.868  0.00  0.00    +0.000 A 
ATOM      2  C   UNL     1       3.221   6.121  18.990  0.00  0.00    +0.000 A 
ATOM      3  N   UNL     1       3.617   4.807  19.017  0.00  0.00    +0.000 N 
ATOM      4  C   UNL     1       4.501   4.071  18.249  0.00  0.00    +0.000 A 
ATOM      5  C   UNL     1       4.457   2.803  18.812  0.00  0.00    +0.000 A 
ATOM      6  N   UNL     1       3.579   2.730  19.857  0.00  0.00    +0.000 NA
ATOM      7  C   UNL     1       3.080   3.939  19.940  0.00  0.00    +0.000 A 
ATOM      8  C   UNL     1       2.088   4.449  20.849  0.00  0.00    +0.000 A 
ATOM      9  N   UNL     1       1.695   5.691  20.813  0.00  0.00    +0.000 NA
ENDROOT
BRANCH   4  10
ATOM     10  C   UNL     1       5.230   4.552  17.088  0.00  0.00    +0.000 A 
ATOM     11  C   UNL     1       6.473   5.164  17.252  0.00  0.00    +0.000 A 
ATOM     12  C   UNL     1       7.224   5.549  16.140  0.00  0.00    +0.000 A 
ATOM     13  C   UNL     1       6.885   5.107  14.876  0.00  0.00    +0.000 A 
ATOM     14  N   UNL     1       7.788   5.223  13.894  0.00  0.00    +0.000 NA
ATOM     15  C   UNL     1       7.574   4.516  12.766  0.00  0.00    +0.000 A 
ATOM     16  C   UNL     1       6.441   3.759  12.534  0.00  0.00    +0.000 A 
ATOM     17  C   UNL     1       5.441   3.762  13.500  0.00  0.00    +0.000 A 
ATOM     18  C   UNL     1       5.665   4.416  14.715  0.00  0.00    +0.000 A 
ATOM     19  C   UNL     1       4.780   4.268  15.796  0.00  0.00    +0.000 A 
ENDBRANCH   4  10
BRANCH   1  23
ATOM     20  C   UNL     1       0.691  10.397  19.596  0.00  0.00    +0.000 A 
ATOM     21  C   UNL     1       1.298   9.876  18.463  0.00  0.00    +0.000 A 
ATOM     22  C   UNL     1       1.871   8.608  18.540  0.00  0.00    +0.000 A 
ATOM     23  C   UNL     1       1.799   7.899  19.740  0.00  0.00    +0.000 A 
ATOM     24  C   UNL     1       1.166   8.512  20.817  0.00  0.00    +0.000 A 
ATOM     25  N   UNL     1       0.605   9.740  20.774  0.00  0.00    +0.000 NA
BRANCH  20  27
ATOM     26  C   UNL     1      -1.259  11.581  19.163  0.00  0.00    +0.000 C 
ATOM     27  O   UNL     1       0.128  11.650  19.477  0.00  0.00    +0.000 OA
ENDBRANCH  20  27
ENDBRANCH   1  23
TORSDOF 3
ENDMDL
MODEL 2
REMARK VINA RESULT:      -8.9      2.504      7.776
REMARK  Name = 
REMARK  4 active torsions:
REMARK  status: ('A' for Active; 'I' for Inactive)
REMARK    1  A    between atoms: C_1  and  O_2
REMARK    2  A    between atoms: O_2  and  C_3
REMARK    3  A    between atoms: C_6  and  C_7
REMARK    4  A    between atoms: C_10  and  C_11
REMARK                            x       y       z     vdW  Elec       q    Type
REMARK                         _______ _______ _______ _____ _____    ______ ____
ROOT
ATOM      1  C   UNL     1       4.627   4.182  17.731  0.00  0.00    +0.000 A 
ATOM      2  C   UNL     1       3.863   5.213  18.147  0.00  0.00    +0.000 A 
ATOM      3  N   UNL     1       3.080   5.032  19.260  0.00  0.00    +0.000 N 
ATOM      4  C   UNL     1       2.236   5.869  19.966  0.00  0.00    +0.000 A 
ATOM      5  C   UNL     1       1.732   5.061  20.977  0.00  0.00    +0.000 A 
ATOM      6  N   UNL     1       2.246   3.795  20.933  0.00  0.00    +0.000 NA
ATOM      7  C   UNL     1       3.062   3.817  19.908  0.00  0.00    +0.000 A 
ATOM      8  C   UNL     1       3.898   2.766  19.392  0.00  0.00    +0.000 A 
ATOM      9  N   UNL     1       4.659   2.940  18.347  0.00  0.00    +0.000 NA
ENDROOT
BRANCH   4  10
ATOM     10  C   UNL     1       2.016   7.281  19.705  0.00  0.00    +0.000 A 
ATOM     11  C   UNL     1       2.205   7.788  18.418  0.00  0.00    +0.000 A 
ATOM     12  C   UNL     1       1.911   9.123  18.134  0.00  0.00    +0.000 A 
ATOM     13  C   UNL     1       1.193   9.890  19.030  0.00  0.00    +0.000 A 
ATOM     14  N   UNL     1       0.659  11.041  18.601  0.00  0.00    +0.000 NA
ATOM     15  C   UNL     1      -0.286  11.614  19.376  0.00  0.00    +0.000 A 
ATOM     16  C   UNL     1      -0.662  11.133  20.616  0.00  0.00    +0.000 A 
ATOM     17  C   UNL     1       0.003  10.019  21.117  0.00  0.00    +0.000 A 
ATOM     18  C   UNL     1       0.928   9.352  20.308  0.00  0.00    +0.000 A 
ATOM     19  C   UNL     1       1.464   8.110  20.684  0.00  0.00    +0.000 A 
ENDBRANCH   4  10
BRANCH   1  23
ATOM     20  C   UNL     1       7.213   5.164  14.575  0.00  0.00    +0.000 A 
ATOM     21  C   UNL     1       6.126   4.355  14.279  0.00  0.00    +0.000 A 
ATOM     22  C   UNL     1       5.276   3.979  15.318  0.00  0.00    +0.000 A 
ATOM     23  C   UNL     1       5.532   4.442  16.610  0.00  0.00    +0.000 A 
ATOM     24  C   UNL     1       6.649   5.250  16.799  0.00  0.00    +0.000 A 
ATOM     25  N   UNL     1       7.493   5.628  15.813  0.00  0.00    +0.000 NA
BRANCH  20  27
ATOM     26  C   UNL     1       7.563   4.976  12.287  0.00  0.00    +0.000 C 
ATOM     27  O   UNL     1       8.025   5.520  13.519  0.00  0.00    +0.000 OA
ENDBRANCH  20  27
ENDBRANCH   1  23
TORSDOF 3
ENDMDL
MODEL 3
REMARK VINA RESULT:      -8.9      0.809      1.131
REMARK  Name = 
REMARK  4 active torsions:
REMARK  status: ('A' for Active; 'I' for Inactive)
REMARK    1  A    between atoms: C_1  and  O_2
REMARK    2  A    between atoms: O_2  and  C_3
REMARK    3  A    between atoms: C_6  and  C_7
REMARK    4  A    between atoms: C_10  and  C_11
REMARK                            x       y       z     vdW  Elec       q    Type
REMARK                         _______ _______ _______ _____ _____    ______ ____
ROOT
ATOM      1  C   UNL     1       2.175   6.163  20.118  0.00  0.00    +0.000 A 
ATOM      2  C   UNL     1       3.131   5.834  19.226  0.00  0.00    +0.000 A 
ATOM      3  N   UNL     1       3.546   4.526  19.170  0.00  0.00    +0.000 N 
ATOM      4  C   UNL     1       4.448   3.855  18.364  0.00  0.00    +0.000 A 
ATOM      5  C   UNL     1       4.417   2.552  18.842  0.00  0.00    +0.000 A 
ATOM      6  N   UNL     1       3.530   2.397  19.870  0.00  0.00    +0.000 NA
ATOM      7  C   UNL     1       3.013   3.591  20.028  0.00  0.00    +0.000 A 
ATOM      8  C   UNL     1       2.005   4.026  20.958  0.00  0.00    +0.000 A 
ATOM      9  N   UNL     1       1.594   5.263  21.001  0.00  0.00    +0.000 NA
ENDROOT
BRANCH   4  10
ATOM     10  C   UNL     1       5.181   4.422  17.246  0.00  0.00    +0.000 A 
ATOM     11  C   UNL     1       6.382   5.096  17.471  0.00  0.00    +0.000 A 
ATOM     12  C   UNL     1       7.140   5.567  16.398  0.00  0.00    +0.000 A 
ATOM     13  C   UNL     1       6.864   5.156  15.109  0.00  0.00    +0.000 A 
ATOM     14  N   UNL     1       7.787   5.362  14.160  0.00  0.00    +0.000 NA
ATOM     15  C   UNL     1       7.647   4.689  13.000  0.00  0.00    +0.000 A 
ATOM     16  C   UNL     1       6.567   3.878  12.705  0.00  0.00    +0.000 A 
ATOM     17  C   UNL     1       5.541   3.786  13.639  0.00  0.00    +0.000 A 
ATOM     18  C   UNL     1       5.691   4.404  14.884  0.00  0.00    +0.000 A 
ATOM     19  C   UNL     1       4.786   4.164  15.931  0.00  0.00    +0.000 A 
ENDBRANCH   4  10
BRANCH   1  23
ATOM     20  C   UNL     1       0.963  10.175  19.907  0.00  0.00    +0.000 A 
ATOM     21  C   UNL     1       0.754   9.508  21.105  0.00  0.00    +0.000 A 
ATOM     22  C   UNL     1       1.108   8.163  21.188  0.00  0.00    +0.000 A 
ATOM     23  C   UNL     1       1.677   7.538  20.077  0.00  0.00    +0.000 A 
ATOM     24  C   UNL     1       1.845   8.298  18.922  0.00  0.00    +0.000 A 
ATOM     25  N   UNL     1       1.509   9.601  18.811  0.00  0.00    +0.000 NA
BRANCH  20  27
ATOM     26  C   UNL     1       1.454  12.256  19.003  0.00  0.00    +0.000 C 
ATOM     27  O   UNL     1       0.608  11.506  19.869  0.00  0.00    +0.000 OA
ENDBRANCH  20  27
ENDBRANCH   1  23
TORSDOF 3
ENDMDL
MODEL 4
REMARK VINA RESULT:      -8.2      3.874      6.551
REMARK  Name = 
REMARK  4 active torsions:
REMARK  status: ('A' for Active; 'I' for Inactive)
REMARK    1  A    between atoms: C_1  and  O_2
REMARK    2  A    between atoms: O_2  and  C_3
REMARK    3  A    between atoms: C_6  and  C_7
REMARK    4  A    between atoms: C_10  and  C_11
REMARK                            x       y       z     vdW  Elec       q    Type
REMARK                         _______ _______ _______ _____ _____    ______ ____
ROOT
ATOM      1  C   UNL     1      -1.209  10.599  19.134  0.00  0.00    +0.000 A 
ATOM      2  C   UNL     1      -0.353   9.573  19.319  0.00  0.00    +0.000 A 
ATOM      3  N   UNL     1       0.297   9.479  20.524  0.00  0.00    +0.000 N 
ATOM      4  C   UNL     1       1.181   8.554  21.050  0.00  0.00    +0.000 A 
ATOM      5  C   UNL     1       1.480   9.056  22.309  0.00  0.00    +0.000 A 
ATOM      6  N   UNL     1       0.806  10.215  22.579  0.00  0.00    +0.000 NA
ATOM      7  C   UNL     1       0.094  10.429  21.499  0.00  0.00    +0.000 A 
ATOM      8  C   UNL     1      -0.827  11.497  21.219  0.00  0.00    +0.000 A 
ATOM      9  N   UNL     1      -1.462  11.579  20.083  0.00  0.00    +0.000 NA
ENDROOT
BRANCH   4  10
ATOM     10  C   UNL     1       1.612   7.322  20.411  0.00  0.00    +0.000 A 
ATOM     11  C   UNL     1       2.489   7.371  19.327  0.00  0.00    +0.000 A 
ATOM     12  C   UNL     1       2.980   6.193  18.761  0.00  0.00    +0.000 A 
ATOM     13  C   UNL     1       2.823   4.984  19.410  0.00  0.00    +0.000 A 
ATOM     14  N   UNL     1       3.568   3.944  19.013  0.00  0.00    +0.000 NA
ATOM     15  C   UNL     1       3.639   2.879  19.839  0.00  0.00    +0.000 A 
ATOM     16  C   UNL     1       2.920   2.767  21.014  0.00  0.00    +0.000 A 
ATOM     17  C   UNL     1       2.037   3.788  21.344  0.00  0.00    +0.000 A 
ATOM     18  C   UNL     1       1.999   4.942  20.555  0.00  0.00    +0.000 A 
ATOM     19  C   UNL     1       1.287   6.081  20.964  0.00  0.00    +0.000 A 
ENDBRANCH   4  10
BRANCH   1  23
ATOM     20  C   UNL     1      -3.590  10.604  15.679  0.00  0.00    +0.000 A 
ATOM     21  C   UNL     1      -2.502   9.744  15.701  0.00  0.00    +0.000 A 
ATOM     22  C   UNL     1      -1.671   9.755  16.820  0.00  0.00    +0.000 A 
ATOM     23  C   UNL     1      -1.968  10.609  17.883  0.00  0.00    +0.000 A 
ATOM     24  C   UNL     1      -3.084  11.431  17.760  0.00  0.00    +0.000 A 
ATOM     25  N   UNL     1      -3.906  11.446  16.688  0.00  0.00    +0.000 NA
BRANCH  20  27
ATOM     26  C   UNL     1      -3.724   9.968  13.450  0.00  0.00    +0.000 C 
ATOM     27  O   UNL     1      -4.393  10.559  14.559  0.00  0.00    +0.000 OA
ENDBRANCH  20  27
ENDBRANCH   1  23
TORSDOF 3
ENDMDL
MODEL 5
REMARK VINA RESULT:      -7.8      1.139      1.371
REMARK  Name = 
REMARK  4 active torsions:
REMARK  status: ('A' for Active; 'I' for Inactive)
REMARK    1  A    between atoms: C_1  and  O_2
REMARK    2  A    between atoms: O_2  and  C_3
REMARK    3  A    between atoms: C_6  and  C_7
REMARK    4  A    between atoms: C_10  and  C_11
REMARK                            x       y       z     vdW  Elec       q    Type
REMARK                         _______ _______ _______ _____ _____    ______ ____
ROOT
ATOM      1  C   UNL     1       2.310   7.216  19.546  0.00  0.00    +0.000 A 
ATOM      2  C   UNL     1       3.263   6.695  18.747  0.00  0.00    +0.000 A 
ATOM      3  N   UNL     1       3.650   5.395  18.959  0.00  0.00    +0.000 N 
ATOM      4  C   UNL     1       4.541   4.557  18.313  0.00  0.00    +0.000 A 
ATOM      5  C   UNL     1       4.481   3.378  19.044  0.00  0.00    +0.000 A 
ATOM      6  N   UNL     1       3.587   3.453  20.076  0.00  0.00    +0.000 NA
ATOM      7  C   UNL     1       3.094   4.664  19.985  0.00  0.00    +0.000 A 
ATOM      8  C   UNL     1       2.092   5.298  20.799  0.00  0.00    +0.000 A 
ATOM      9  N   UNL     1       1.708   6.525  20.588  0.00  0.00    +0.000 NA
ENDROOT
BRANCH   4  10
ATOM     10  C   UNL     1       5.290   4.871  17.109  0.00  0.00    +0.000 A 
ATOM     11  C   UNL     1       6.636   5.226  17.200  0.00  0.00    +0.000 A 
ATOM     12  C   UNL     1       7.390   5.443  16.045  0.00  0.00    +0.000 A 
ATOM     13  C   UNL     1       6.906   5.062  14.809  0.00  0.00    +0.000 A 
ATOM     14  N   UNL     1       7.763   4.987  13.782  0.00  0.00    +0.000 NA
ATOM     15  C   UNL     1       7.356   4.324  12.681  0.00  0.00    +0.000 A 
ATOM     16  C   UNL     1       6.086   3.804  12.520  0.00  0.00    +0.000 A 
ATOM     17  C   UNL     1       5.157   4.015  13.532  0.00  0.00    +0.000 A 
ATOM     18  C   UNL     1       5.567   4.625  14.721  0.00  0.00    +0.000 A 
ATOM     19  C   UNL     1       4.727   4.668  15.846  0.00  0.00    +0.000 A 
ENDBRANCH   4  10
BRANCH   1  23
ATOM     20  C   UNL     1       1.200  11.154  18.612  0.00  0.00    +0.000 A 
ATOM     21  C   UNL     1       0.565  10.551  19.688  0.00  0.00    +0.000 A 
ATOM     22  C   UNL     1       0.885   9.229  19.993  0.00  0.00    +0.000 A 
ATOM     23  C   UNL     1       1.842   8.564  19.223  0.00  0.00    +0.000 A 
ATOM     24  C   UNL     1       2.420   9.261  18.166  0.00  0.00    +0.000 A 
ATOM     25  N   UNL     1       2.128  10.540  17.845  0.00  0.00    +0.000 NA
BRANCH  20  27
ATOM     26  C   UNL     1       1.951  13.351  18.588  0.00  0.00    +0.000 C 
ATOM     27  O   UNL     1       0.863  12.464  18.349  0.00  0.00    +0.000 OA
ENDBRANCH  20  27
ENDBRANCH   1  23
TORSDOF 3
ENDMDL
MODEL 6
REMARK VINA RESULT:      -7.8      2.591      7.962
REMARK  Name = 
REMARK  4 active torsions:
REMARK  status: ('A' for Active; 'I' for Inactive)
REMARK    1  A    between atoms: C_1  and  O_2
REMARK    2  A    between atoms: O_2  and  C_3
REMARK    3  A    between atoms: C_6  and  C_7
REMARK    4  A    between atoms: C_10  and  C_11
REMARK                            x       y       z     vdW  Elec       q    Type
REMARK                         _______ _______ _______ _____ _____    ______ ____
ROOT
ATOM      1  C   UNL     1       4.206   3.990  17.480  0.00  0.00    +0.000 A 
ATOM      2  C   UNL     1       3.501   4.942  18.125  0.00  0.00    +0.000 A 
ATOM      3  N   UNL     1       2.631   4.550  19.111  0.00  0.00    +0.000 N 
ATOM      4  C   UNL     1       1.811   5.249  19.979  0.00  0.00    +0.000 A 
ATOM      5  C   UNL     1       1.175   4.254  20.710  0.00  0.00    +0.000 A 
ATOM      6  N   UNL     1       1.585   3.002  20.349  0.00  0.00    +0.000 NA
ATOM      7  C   UNL     1       2.470   3.215  19.405  0.00  0.00    +0.000 A 
ATOM      8  C   UNL     1       3.251   2.262  18.663  0.00  0.00    +0.000 A 
ATOM      9  N   UNL     1       4.093   2.632  17.739  0.00  0.00    +0.000 NA
ENDROOT
BRANCH   4  10
ATOM     10  C   UNL     1       1.726   6.694  20.099  0.00  0.00    +0.000 A 
ATOM     11  C   UNL     1       1.903   7.497  18.971  0.00  0.00    +0.000 A 
ATOM     12  C   UNL     1       1.735   8.880  19.055  0.00  0.00    +0.000 A 
ATOM     13  C   UNL     1       1.145   9.450  20.166  0.00  0.00    +0.000 A 
ATOM     14  N   UNL     1       0.713  10.715  20.083  0.00  0.00    +0.000 NA
ATOM     15  C   UNL     1      -0.128  11.149  21.044  0.00  0.00    +0.000 A 
ATOM     16  C   UNL     1      -0.490  10.398  22.147  0.00  0.00    +0.000 A 
ATOM     17  C   UNL     1       0.079   9.140  22.300  0.00  0.00    +0.000 A 
ATOM     18  C   UNL     1       0.889   8.626  21.283  0.00  0.00    +0.000 A 
ATOM     19  C   UNL     1       1.311   7.287  21.294  0.00  0.00    +0.000 A 
ENDBRANCH   4  10
BRANCH   1  23
ATOM     20  C   UNL     1       7.156   5.075  14.700  0.00  0.00    +0.000 A 
ATOM     21  C   UNL     1       7.024   5.867  15.830  0.00  0.00    +0.000 A 
ATOM     22  C   UNL     1       6.023   5.553  16.748  0.00  0.00    +0.000 A 
ATOM     23  C   UNL     1       5.204   4.448  16.513  0.00  0.00    +0.000 A 
ATOM     24  C   UNL     1       5.421   3.718  15.347  0.00  0.00    +0.000 A 
ATOM     25  N   UNL     1       6.380   4.000  14.438  0.00  0.00    +0.000 NA
BRANCH  20  27
ATOM     26  C   UNL     1       7.776   5.206  12.466  0.00  0.00    +0.000 C 
ATOM     27  O   UNL     1       8.163   5.412  13.820  0.00  0.00    +0.000 OA
ENDBRANCH  20  27
ENDBRANCH   1  23
TORSDOF 3
ENDMDL
MODEL 7
REMARK VINA RESULT:      -7.7      2.513      7.227
REMARK  Name = 
REMARK  4 active torsions:
REMARK  status: ('A' for Active; 'I' for Inactive)
REMARK    1  A    between atoms: C_1  and  O_2
REMARK    2  A    between atoms: O_2  and  C_3
REMARK    3  A    between atoms: C_6  and  C_7
REMARK    4  A    between atoms: C_10  and  C_11
REMARK                            x       y       z     vdW  Elec       q    Type
REMARK                         _______ _______ _______ _____ _____    ______ ____
ROOT
ATOM      1  C   UNL     1       4.762   3.755  18.255  0.00  0.00    +0.000 A 
ATOM      2  C   UNL     1       3.834   4.639  18.676  0.00  0.00    +0.000 A 
ATOM      3  N   UNL     1       3.119   4.339  19.808  0.00  0.00    +0.000 N 
ATOM      4  C   UNL     1       2.152   5.023  20.523  0.00  0.00    +0.000 A 
ATOM      5  C   UNL     1       1.821   4.154  21.554  0.00  0.00    +0.000 A 
ATOM      6  N   UNL     1       2.551   2.999  21.513  0.00  0.00    +0.000 NA
ATOM      7  C   UNL     1       3.331   3.151  20.469  0.00  0.00    +0.000 A 
ATOM      8  C   UNL     1       4.330   2.258  19.948  0.00  0.00    +0.000 A 
ATOM      9  N   UNL     1       5.027   2.548  18.885  0.00  0.00    +0.000 NA
ENDROOT
BRANCH   4  10
ATOM     10  C   UNL     1       1.679   6.369  20.249  0.00  0.00    +0.000 A 
ATOM     11  C   UNL     1       1.199   7.162  21.292  0.00  0.00    +0.000 A 
ATOM     12  C   UNL     1       0.825   8.487  21.058  0.00  0.00    +0.000 A 
ATOM     13  C   UNL     1       1.161   9.113  19.873  0.00  0.00    +0.000 A 
ATOM     14  N   UNL     1       1.075  10.448  19.809  0.00  0.00    +0.000 NA
ATOM     15  C   UNL     1       1.694  11.061  18.779  0.00  0.00    +0.000 A 
ATOM     16  C   UNL     1       2.325  10.389  17.749  0.00  0.00    +0.000 A 
ATOM     17  C   UNL     1       2.282   9.000  17.748  0.00  0.00    +0.000 A 
ATOM     18  C   UNL     1       1.722   8.331  18.841  0.00  0.00    +0.000 A 
ATOM     19  C   UNL     1       1.844   6.940  18.985  0.00  0.00    +0.000 A 
ENDBRANCH   4  10
BRANCH   1  23
ATOM     20  C   UNL     1       7.136   5.122  15.076  0.00  0.00    +0.000 A 
ATOM     21  C   UNL     1       5.958   4.465  14.754  0.00  0.00    +0.000 A 
ATOM     22  C   UNL     1       5.173   3.964  15.791  0.00  0.00    +0.000 A 
ATOM     23  C   UNL     1       5.584   4.154  17.111  0.00  0.00    +0.000 A 
ATOM     24  C   UNL     1       6.783   4.828  17.325  0.00  0.00    +0.000 A 
ATOM     25  N   UNL     1       7.566   5.323  16.342  0.00  0.00    +0.000 NA
BRANCH  20  27
ATOM     26  C   UNL     1       7.516   5.004  12.788  0.00  0.00    +0.000 C 
ATOM     27  O   UNL     1       7.881   5.611  14.023  0.00  0.00    +0.000 OA
ENDBRANCH  20  27
ENDBRANCH   1  23
TORSDOF 3
ENDMDL
MODEL 8
REMARK VINA RESULT:      -6.9      3.711      8.996
REMARK  Name = 
REMARK  4 active torsions:
REMARK  status: ('A' for Active; 'I' for Inactive)
REMARK    1  A    between atoms: C_1  and  O_2
REMARK    2  A    between atoms: O_2  and  C_3
REMARK    3  A    between atoms: C_6  and  C_7
REMARK    4  A    between atoms: C_10  and  C_11
REMARK                            x       y       z     vdW  Elec       q    Type
REMARK                         _______ _______ _______ _____ _____    ______ ____
ROOT
ATOM      1  C   UNL     1       0.976   9.019  20.581  0.00  0.00    +0.000 A 
ATOM      2  C   UNL     1       0.856  10.327  20.274  0.00  0.00    +0.000 A 
ATOM      3  N   UNL     1       0.247  11.154  21.184  0.00  0.00    +0.000 N 
ATOM      4  C   UNL     1       0.007  12.516  21.210  0.00  0.00    +0.000 A 
ATOM      5  C   UNL     1      -0.671  12.714  22.406  0.00  0.00    +0.000 A 
ATOM      6  N   UNL     1      -0.829  11.553  23.110  0.00  0.00    +0.000 NA
ATOM      7  C   UNL     1      -0.252  10.644  22.362  0.00  0.00    +0.000 A 
ATOM      8  C   UNL     1      -0.094   9.236  22.607  0.00  0.00    +0.000 A 
ATOM      9  N   UNL     1       0.502   8.450  21.754  0.00  0.00    +0.000 NA
ENDROOT
BRANCH   4  10
ATOM     10  C   UNL     1       0.446  13.481  20.216  0.00  0.00    +0.000 A 
ATOM     11  C   UNL     1      -0.151  14.740  20.159  0.00  0.00    +0.000 A 
ATOM     12  C   UNL     1       0.322  15.707  19.269  0.00  0.00    +0.000 A 
ATOM     13  C   UNL     1       1.532  15.536  18.625  0.00  0.00    +0.000 A 
ATOM     14  N   UNL     1       2.101  16.599  18.041  0.00  0.00    +0.000 NA
ATOM     15  C   UNL     1       3.402  16.498  17.699  0.00  0.00    +0.000 A 
ATOM     16  C   UNL     1       4.146  15.341  17.832  0.00  0.00    +0.000 A 
ATOM     17  C   UNL     1       3.506  14.200  18.303  0.00  0.00    +0.000 A 
ATOM     18  C   UNL     1       2.182  14.289  18.744  0.00  0.00    +0.000 A 
ATOM     19  C   UNL     1       1.566  13.225  19.421  0.00  0.00    +0.000 A 
ENDBRANCH   4  10
BRANCH   1  23
ATOM     20  C   UNL     1       3.296   6.592  18.064  0.00  0.00    +0.000 A 
ATOM     21  C   UNL     1       2.903   7.828  17.572  0.00  0.00    +0.000 A 
ATOM     22  C   UNL     1       2.096   8.635  18.372  0.00  0.00    +0.000 A 
ATOM     23  C   UNL     1       1.728   8.186  19.641  0.00  0.00    +0.000 A 
ATOM     24  C   UNL     1       2.177   6.930  20.039  0.00  0.00    +0.000 A 
ATOM     25  N   UNL     1       2.957   6.125  19.286  0.00  0.00    +0.000 NA
BRANCH  20  27
ATOM     26  C   UNL     1       4.977   6.631  16.462  0.00  0.00    +0.000 C 
ATOM     27  O   UNL     1       4.101   5.828  17.246  0.00  0.00    +0.000 OA
ENDBRANCH  20  27
ENDBRANCH   1  23
TORSDOF 3
ENDMDL
MODEL 9
REMARK VINA RESULT:      -6.9      4.909      9.144
REMARK  Name = 
REMARK  4 active torsions:
REMARK  status: ('A' for Active; 'I' for Inactive)
REMARK    1  A    between atoms: C_1  and  O_2
REMARK    2  A    between atoms: O_2  and  C_3
REMARK    3  A    between atoms: C_6  and  C_7
REMARK    4  A    between atoms: C_10  and  C_11
REMARK                            x       y       z     vdW  Elec       q    Type
REMARK                         _______ _______ _______ _____ _____    ______ ____
ROOT
ATOM      1  C   UNL     1       0.785  11.359  18.742  0.00  0.00    +0.000 A 
ATOM      2  C   UNL     1       1.702  12.341  18.866  0.00  0.00    +0.000 A 
ATOM      3  N   UNL     1       1.265  13.642  18.855  0.00  0.00    +0.000 N 
ATOM      4  C   UNL     1       1.912  14.856  19.002  0.00  0.00    +0.000 A 
ATOM      5  C   UNL     1       0.896  15.794  18.868  0.00  0.00    +0.000 A 
ATOM      6  N   UNL     1      -0.325  15.211  18.675  0.00  0.00    +0.000 NA
ATOM      7  C   UNL     1      -0.072  13.925  18.692  0.00  0.00    +0.000 A 
ATOM      8  C   UNL     1      -0.983  12.820  18.556  0.00  0.00    +0.000 A 
ATOM      9  N   UNL     1      -0.575  11.582  18.586  0.00  0.00    +0.000 NA
ENDROOT
BRANCH   4  10
ATOM     10  C   UNL     1       3.322  15.044  19.294  0.00  0.00    +0.000 A 
ATOM     11  C   UNL     1       3.764  15.039  20.618  0.00  0.00    +0.000 A 
ATOM     12  C   UNL     1       5.127  15.129  20.908  0.00  0.00    +0.000 A 
ATOM     13  C   UNL     1       6.069  14.963  19.912  0.00  0.00    +0.000 A 
ATOM     14  N   UNL     1       7.341  14.737  20.267  0.00  0.00    +0.000 NA
ATOM     15  C   UNL     1       8.177  14.270  19.317  0.00  0.00    +0.000 A 
ATOM     16  C   UNL     1       7.821  14.102  17.992  0.00  0.00    +0.000 A 
ATOM     17  C   UNL     1       6.541  14.478  17.604  0.00  0.00    +0.000 A 
ATOM     18  C   UNL     1       5.623  14.887  18.576  0.00  0.00    +0.000 A 
ATOM     19  C   UNL     1       4.266  15.071  18.265  0.00  0.00    +0.000 A 
ENDBRANCH   4  10
BRANCH   1  23
ATOM     20  C   UNL     1       2.280   7.480  19.316  0.00  0.00    +0.000 A 
ATOM     21  C   UNL     1       2.490   8.067  18.077  0.00  0.00    +0.000 A 
ATOM     22  C   UNL     1       1.966   9.338  17.847  0.00  0.00    +0.000 A 
ATOM     23  C   UNL     1       1.269   9.984  18.869  0.00  0.00    +0.000 A 
ATOM     24  C   UNL     1       1.116   9.307  20.076  0.00  0.00    +0.000 A 
ATOM     25  N   UNL     1       1.609   8.075  20.327  0.00  0.00    +0.000 NA
BRANCH  20  27
ATOM     26  C   UNL     1       3.714   5.868  18.458  0.00  0.00    +0.000 C 
ATOM     27  O   UNL     1       2.821   6.227  19.507  0.00  0.00    +0.000 OA
ENDBRANCH  20  27
ENDBRANCH   1  23
TORSDOF 3
ENDMDL
