MODEL 1
REMARK VINA RESULT:      -5.5      0.000      0.000
REMARK  Name = 
REMARK  25 active torsions:
REMARK  status: ('A' for Active; 'I' for Inactive)
REMARK    1  A    between atoms: C_1  and  C_2
REMARK    2  A    between atoms: C_2  and  C_3
REMARK    3  A    between atoms: C_3  and  C_4
REMARK    4  A    between atoms: C_4  and  C_5
REMARK    5  A    between atoms: C_5  and  C_6
REMARK    6  A    between atoms: C_6  and  C_7
REMARK    7  A    between atoms: C_7  and  C_8
REMARK    8  A    between atoms: C_8  and  C_9
REMARK    9  A    between atoms: C_10  and  C_11
REMARK   10  A    between atoms: C_11  and  C_12
REMARK   11  A    between atoms: C_12  and  C_13
REMARK   12  A    between atoms: C_13  and  C_14
REMARK   13  A    between atoms: C_14  and  C_15
REMARK   14  A    between atoms: C_15  and  C_16
REMARK   15  A    between atoms: C_16  and  C_17
REMARK   16  A    between atoms: C_17  and  C_18
REMARK   17  A    between atoms: C_18  and  O_20
REMARK   18  A    between atoms: O_20  and  C_21
REMARK   19  A    between atoms: C_21  and  C_22
REMARK   20  A    between atoms: C_22  and  O_23
REMARK   21  A    between atoms: C_22  and  C_24
REMARK   22  A    between atoms: C_24  and  O_25
REMARK   23  A    between atoms: O_25  and  C_26
REMARK   24  A    between atoms: C_26  and  C_27
REMARK   25  A    between atoms: C_27  and  O_29
REMARK                            x       y       z     vdW  Elec       q    Type
REMARK                         _______ _______ _______ _____ _____    ______ ____
ROOT
ATOM      1  C   UNL     1       6.374   6.516  17.022  0.00  0.00    +0.000 C 
ENDROOT
BRANCH   1   2
ATOM      2  C   UNL     1       7.752   7.150  17.195  0.00  0.00    +0.000 C 
BRANCH   2   3
ATOM      3  C   UNL     1       7.587   8.572  17.717  0.00  0.00    +0.000 C 
BRANCH   3   4
ATOM      4  C   UNL     1       8.772   9.019  18.567  0.00  0.00    +0.000 C 
BRANCH   4   5
ATOM      5  C   UNL     1       9.046  10.520  18.414  0.00  0.00    +0.000 C 
BRANCH   5   6
ATOM      6  C   UNL     1       9.923  11.118  19.517  0.00  0.00    +0.000 C 
BRANCH   6   8
ATOM      7  C   UNL     1       9.016  12.038  21.681  0.00  0.00    +0.000 C 
ATOM      8  C   UNL     1       9.298  10.998  20.880  0.00  0.00    +0.000 C 
BRANCH   7   9
ATOM      9  C   UNL     1       9.276  13.453  21.285  0.00  0.00    +0.000 C 
BRANCH   9  10
ATOM     10  C   UNL     1       8.017  14.188  20.852  0.00  0.00    +0.000 C 
BRANCH  10  11
ATOM     11  C   UNL     1       8.133  14.562  19.378  0.00  0.00    +0.000 C 
BRANCH  11  12
ATOM     12  C   UNL     1       8.839  15.898  19.216  0.00  0.00    +0.000 C 
BRANCH  12  13
ATOM     13  C   UNL     1      10.095  15.743  18.365  0.00  0.00    +0.000 C 
BRANCH  13  14
ATOM     14  C   UNL     1      10.101  14.385  17.672  0.00  0.00    +0.000 C 
BRANCH  14  16
ATOM     15  C   UNL     1      12.029  12.828  17.311  0.00  0.00    +0.000 C 
ATOM     16  C   UNL     1      11.406  14.155  16.920  0.00  0.00    +0.000 C 
ENDBRANCH  14  16
ENDBRANCH  13  14
ENDBRANCH  12  13
ENDBRANCH  11  12
ENDBRANCH  10  11
ENDBRANCH   9  10
ENDBRANCH   7   9
ENDBRANCH   6   8
ENDBRANCH   5   6
ENDBRANCH   4   5
ENDBRANCH   3   4
ENDBRANCH   2   3
ENDBRANCH   1   2
BRANCH   1  17
ATOM     17  C   UNL     1       6.342   5.060  17.482  0.00  0.00    +0.000 C 
BRANCH  17  18
ATOM     18  C   UNL     1       5.905   4.969  18.925  0.00  0.00    +0.000 C 
ATOM     19  O   UNL     1       6.636   5.179  19.884  0.00  0.00    +0.000 OA
BRANCH  18  20
ATOM     20  O   UNL     1       4.637   4.484  19.006  0.00  0.00    +0.000 OA
BRANCH  20  21
ATOM     21  C   UNL     1       4.575   3.051  19.147  0.00  0.00    +0.000 C 
BRANCH  21  22
ATOM     22  C   UNL     1       3.763   2.375  18.032  0.00  0.00    +0.000 C 
BRANCH  22  23
ATOM     23  O   UNL     1       2.928   1.362  18.598  0.00  0.00    +0.000 OA
ATOM     24  H   UNL     1       2.295   1.828  19.170  0.00  0.00    +0.000 HD
ENDBRANCH  22  23
BRANCH  22  25
ATOM     25  C   UNL     1       2.872   3.394  17.334  0.00  0.00    +0.000 C 
BRANCH  25  26
ATOM     26  O   UNL     1       1.538   3.335  17.857  0.00  0.00    +0.000 OA
BRANCH  26  27
ATOM     27  C   UNL     1       1.263   4.495  18.638  0.00  0.00    +0.000 C 
BRANCH  27  28
ATOM     28  C   UNL     1       1.209   4.090  20.101  0.00  0.00    +0.000 C 
ATOM     29  O   UNL     1       1.764   4.707  20.990  0.00  0.00    +0.000 OA
BRANCH  28  30
ATOM     30  O   UNL     1       0.475   2.975  20.313  0.00  0.00    +0.000 OA
ATOM     31  H   UNL     1      -0.230   3.192  20.974  0.00  0.00    +0.000 HD
ENDBRANCH  28  30
ENDBRANCH  27  28
ENDBRANCH  26  27
ENDBRANCH  25  26
ENDBRANCH  22  25
ENDBRANCH  21  22
ENDBRANCH  20  21
ENDBRANCH  18  20
ENDBRANCH  17  18
ENDBRANCH   1  17
TORSDOF 24
ENDMDL
MODEL 2
REMARK VINA RESULT:      -5.5      5.508      8.931
REMARK  Name = 
REMARK  25 active torsions:
REMARK  status: ('A' for Active; 'I' for Inactive)
REMARK    1  A    between atoms: C_1  and  C_2
REMARK    2  A    between atoms: C_2  and  C_3
REMARK    3  A    between atoms: C_3  and  C_4
REMARK    4  A    between atoms: C_4  and  C_5
REMARK    5  A    between atoms: C_5  and  C_6
REMARK    6  A    between atoms: C_6  and  C_7
REMARK    7  A    between atoms: C_7  and  C_8
REMARK    8  A    between atoms: C_8  and  C_9
REMARK    9  A    between atoms: C_10  and  C_11
REMARK   10  A    between atoms: C_11  and  C_12
REMARK   11  A    between atoms: C_12  and  C_13
REMARK   12  A    between atoms: C_13  and  C_14
REMARK   13  A    between atoms: C_14  and  C_15
REMARK   14  A    between atoms: C_15  and  C_16
REMARK   15  A    between atoms: C_16  and  C_17
REMARK   16  A    between atoms: C_17  and  C_18
REMARK   17  A    between atoms: C_18  and  O_20
REMARK   18  A    between atoms: O_20  and  C_21
REMARK   19  A    between atoms: C_21  and  C_22
REMARK   20  A    between atoms: C_22  and  O_23
REMARK   21  A    between atoms: C_22  and  C_24
REMARK   22  A    between atoms: C_24  and  O_25
REMARK   23  A    between atoms: O_25  and  C_26
REMARK   24  A    between atoms: C_26  and  C_27
REMARK   25  A    between atoms: C_27  and  O_29
REMARK                            x       y       z     vdW  Elec       q    Type
REMARK                         _______ _______ _______ _____ _____    ______ ____
ROOT
ATOM      1  C   UNL     1       1.877   2.238  18.612  0.00  0.00    +0.000 C 
ENDROOT
BRANCH   1   2
ATOM      2  C   UNL     1       1.287   3.606  18.945  0.00  0.00    +0.000 C 
BRANCH   2   3
ATOM      3  C   UNL     1       1.512   3.904  20.422  0.00  0.00    +0.000 C 
BRANCH   3   4
ATOM      4  C   UNL     1       2.302   5.190  20.641  0.00  0.00    +0.000 C 
BRANCH   4   5
ATOM      5  C   UNL     1       1.408   6.431  20.534  0.00  0.00    +0.000 C 
BRANCH   5   6
ATOM      6  C   UNL     1       2.145   7.709  20.128  0.00  0.00    +0.000 C 
BRANCH   6   8
ATOM      7  C   UNL     1       1.798   8.824  17.894  0.00  0.00    +0.000 C 
ATOM      8  C   UNL     1       2.310   7.829  18.637  0.00  0.00    +0.000 C 
BRANCH   7   9
ATOM      9  C   UNL     1       1.016   9.950  18.485  0.00  0.00    +0.000 C 
BRANCH   9  10
ATOM     10  C   UNL     1      -0.487   9.738  18.395  0.00  0.00    +0.000 C 
BRANCH  10  11
ATOM     11  C   UNL     1      -1.164  11.065  18.067  0.00  0.00    +0.000 C 
BRANCH  11  12
ATOM     12  C   UNL     1      -2.052  10.927  16.842  0.00  0.00    +0.000 C 
BRANCH  12  13
ATOM     13  C   UNL     1      -3.174   9.927  17.100  0.00  0.00    +0.000 C 
BRANCH  13  14
ATOM     14  C   UNL     1      -4.270  10.568  17.944  0.00  0.00    +0.000 C 
BRANCH  14  16
ATOM     15  C   UNL     1      -5.906  12.465  17.971  0.00  0.00    +0.000 C 
ATOM     16  C   UNL     1      -5.159  11.473  17.099  0.00  0.00    +0.000 C 
ENDBRANCH  14  16
ENDBRANCH  13  14
ENDBRANCH  12  13
ENDBRANCH  11  12
ENDBRANCH  10  11
ENDBRANCH   9  10
ENDBRANCH   7   9
ENDBRANCH   6   8
ENDBRANCH   5   6
ENDBRANCH   4   5
ENDBRANCH   3   4
ENDBRANCH   2   3
ENDBRANCH   1   2
BRANCH   1  17
ATOM     17  C   UNL     1       2.854   2.296  17.440  0.00  0.00    +0.000 C 
BRANCH  17  18
ATOM     18  C   UNL     1       3.982   3.256  17.736  0.00  0.00    +0.000 C 
ATOM     19  O   UNL     1       4.715   3.183  18.714  0.00  0.00    +0.000 OA
BRANCH  18  20
ATOM     20  O   UNL     1       3.974   4.285  16.847  0.00  0.00    +0.000 OA
BRANCH  20  21
ATOM     21  C   UNL     1       4.977   4.167  15.818  0.00  0.00    +0.000 C 
BRANCH  21  22
ATOM     22  C   UNL     1       6.109   5.194  15.966  0.00  0.00    +0.000 C 
BRANCH  22  23
ATOM     23  O   UNL     1       6.685   5.456  14.684  0.00  0.00    +0.000 OA
ATOM     24  H   UNL     1       6.517   6.397  14.504  0.00  0.00    +0.000 HD
ENDBRANCH  22  23
BRANCH  22  25
ATOM     25  C   UNL     1       5.568   6.503  16.523  0.00  0.00    +0.000 C 
BRANCH  25  26
ATOM     26  O   UNL     1       6.410   6.985  17.579  0.00  0.00    +0.000 OA
BRANCH  26  27
ATOM     27  C   UNL     1       7.341   5.977  17.966  0.00  0.00    +0.000 C 
BRANCH  27  28
ATOM     28  C   UNL     1       7.052   5.581  19.404  0.00  0.00    +0.000 C 
ATOM     29  O   UNL     1       7.920   5.362  20.228  0.00  0.00    +0.000 OA
BRANCH  28  30
ATOM     30  O   UNL     1       5.730   5.502  19.674  0.00  0.00    +0.000 OA
ATOM     31  H   UNL     1       5.578   4.697  20.231  0.00  0.00    +0.000 HD
ENDBRANCH  28  30
ENDBRANCH  27  28
ENDBRANCH  26  27
ENDBRANCH  25  26
ENDBRANCH  22  25
ENDBRANCH  21  22
ENDBRANCH  20  21
ENDBRANCH  18  20
ENDBRANCH  17  18
ENDBRANCH   1  17
TORSDOF 24
ENDMDL
MODEL 3
REMARK VINA RESULT:      -5.4      5.825      9.295
REMARK  Name = 
REMARK  25 active torsions:
REMARK  status: ('A' for Active; 'I' for Inactive)
REMARK    1  A    between atoms: C_1  and  C_2
REMARK    2  A    between atoms: C_2  and  C_3
REMARK    3  A    between atoms: C_3  and  C_4
REMARK    4  A    between atoms: C_4  and  C_5
REMARK    5  A    between atoms: C_5  and  C_6
REMARK    6  A    between atoms: C_6  and  C_7
REMARK    7  A    between atoms: C_7  and  C_8
REMARK    8  A    between atoms: C_8  and  C_9
REMARK    9  A    between atoms: C_10  and  C_11
REMARK   10  A    between atoms: C_11  and  C_12
REMARK   11  A    between atoms: C_12  and  C_13
REMARK   12  A    between atoms: C_13  and  C_14
REMARK   13  A    between atoms: C_14  and  C_15
REMARK   14  A    between atoms: C_15  and  C_16
REMARK   15  A    between atoms: C_16  and  C_17
REMARK   16  A    between atoms: C_17  and  C_18
REMARK   17  A    between atoms: C_18  and  O_20
REMARK   18  A    between atoms: O_20  and  C_21
REMARK   19  A    between atoms: C_21  and  C_22
REMARK   20  A    between atoms: C_22  and  O_23
REMARK   21  A    between atoms: C_22  and  C_24
REMARK   22  A    between atoms: C_24  and  O_25
REMARK   23  A    between atoms: O_25  and  C_26
REMARK   24  A    between atoms: C_26  and  C_27
REMARK   25  A    between atoms: C_27  and  O_29
REMARK                            x       y       z     vdW  Elec       q    Type
REMARK                         _______ _______ _______ _____ _____    ______ ____
ROOT
ATOM      1  C   UNL     1       2.136   4.342  20.977  0.00  0.00    +0.000 C 
ENDROOT
BRANCH   1   2
ATOM      2  C   UNL     1       1.589   2.922  21.096  0.00  0.00    +0.000 C 
BRANCH   2   3
ATOM      3  C   UNL     1       1.191   2.420  19.714  0.00  0.00    +0.000 C 
BRANCH   3   4
ATOM      4  C   UNL     1       2.395   1.974  18.890  0.00  0.00    +0.000 C 
BRANCH   4   5
ATOM      5  C   UNL     1       2.460   2.700  17.541  0.00  0.00    +0.000 C 
BRANCH   5   6
ATOM      6  C   UNL     1       3.393   3.913  17.520  0.00  0.00    +0.000 C 
BRANCH   6   8
ATOM      7  C   UNL     1       5.532   4.634  18.642  0.00  0.00    +0.000 C 
ATOM      8  C   UNL     1       4.672   3.670  18.274  0.00  0.00    +0.000 C 
BRANCH   7   9
ATOM      9  C   UNL     1       5.293   6.079  18.355  0.00  0.00    +0.000 C 
BRANCH   9  10
ATOM     10  C   UNL     1       5.881   6.524  17.025  0.00  0.00    +0.000 C 
BRANCH  10  11
ATOM     11  C   UNL     1       7.193   5.785  16.782  0.00  0.00    +0.000 C 
BRANCH  11  12
ATOM     12  C   UNL     1       7.166   5.067  15.443  0.00  0.00    +0.000 C 
BRANCH  12  13
ATOM     13  C   UNL     1       5.770   5.119  14.832  0.00  0.00    +0.000 C 
BRANCH  13  14
ATOM     14  C   UNL     1       5.443   3.798  14.145  0.00  0.00    +0.000 C 
BRANCH  14  16
ATOM     15  C   UNL     1       5.381   2.832  11.835  0.00  0.00    +0.000 C 
ATOM     16  C   UNL     1       6.179   3.671  12.817  0.00  0.00    +0.000 C 
ENDBRANCH  14  16
ENDBRANCH  13  14
ENDBRANCH  12  13
ENDBRANCH  11  12
ENDBRANCH  10  11
ENDBRANCH   9  10
ENDBRANCH   7   9
ENDBRANCH   6   8
ENDBRANCH   5   6
ENDBRANCH   4   5
ENDBRANCH   3   4
ENDBRANCH   2   3
ENDBRANCH   1   2
BRANCH   1  17
ATOM     17  C   UNL     1       1.125   5.306  20.362  0.00  0.00    +0.000 C 
BRANCH  17  18
ATOM     18  C   UNL     1       1.641   6.725  20.415  0.00  0.00    +0.000 C 
ATOM     19  O   UNL     1       2.653   7.115  19.846  0.00  0.00    +0.000 OA
BRANCH  18  20
ATOM     20  O   UNL     1       0.911   7.462  21.293  0.00  0.00    +0.000 OA
BRANCH  20  21
ATOM     21  C   UNL     1       0.725   8.831  20.883  0.00  0.00    +0.000 C 
BRANCH  21  22
ATOM     22  C   UNL     1       0.617   9.801  22.069  0.00  0.00    +0.000 C 
BRANCH  22  23
ATOM     23  O   UNL     1       1.733   9.613  22.942  0.00  0.00    +0.000 OA
ATOM     24  H   UNL     1       1.368   9.240  23.763  0.00  0.00    +0.000 HD
ENDBRANCH  22  23
BRANCH  22  25
ATOM     25  C   UNL     1       0.633  11.243  21.576  0.00  0.00    +0.000 C 
BRANCH  25  26
ATOM     26  O   UNL     1      -0.227  12.057  22.384  0.00  0.00    +0.000 OA
BRANCH  26  27
ATOM     27  C   UNL     1      -1.317  11.283  22.880  0.00  0.00    +0.000 C 
BRANCH  27  28
ATOM     28  C   UNL     1      -2.593  12.094  22.730  0.00  0.00    +0.000 C 
ATOM     29  O   UNL     1      -3.058  12.421  21.656  0.00  0.00    +0.000 OA
BRANCH  28  30
ATOM     30  O   UNL     1      -3.159  12.409  23.917  0.00  0.00    +0.000 OA
ATOM     31  H   UNL     1      -3.934  13.000  23.739  0.00  0.00    +0.000 HD
ENDBRANCH  28  30
ENDBRANCH  27  28
ENDBRANCH  26  27
ENDBRANCH  25  26
ENDBRANCH  22  25
ENDBRANCH  21  22
ENDBRANCH  20  21
ENDBRANCH  18  20
ENDBRANCH  17  18
ENDBRANCH   1  17
TORSDOF 24
ENDMDL
MODEL 4
REMARK VINA RESULT:      -5.4      5.830      9.769
REMARK  Name = 
REMARK  25 active torsions:
REMARK  status: ('A' for Active; 'I' for Inactive)
REMARK    1  A    between atoms: C_1  and  C_2
REMARK    2  A    between atoms: C_2  and  C_3
REMARK    3  A    between atoms: C_3  and  C_4
REMARK    4  A    between atoms: C_4  and  C_5
REMARK    5  A    between atoms: C_5  and  C_6
REMARK    6  A    between atoms: C_6  and  C_7
REMARK    7  A    between atoms: C_7  and  C_8
REMARK    8  A    between atoms: C_8  and  C_9
REMARK    9  A    between atoms: C_10  and  C_11
REMARK   10  A    between atoms: C_11  and  C_12
REMARK   11  A    between atoms: C_12  and  C_13
REMARK   12  A    between atoms: C_13  and  C_14
REMARK   13  A    between atoms: C_14  and  C_15
REMARK   14  A    between atoms: C_15  and  C_16
REMARK   15  A    between atoms: C_16  and  C_17
REMARK   16  A    between atoms: C_17  and  C_18
REMARK   17  A    between atoms: C_18  and  O_20
REMARK   18  A    between atoms: O_20  and  C_21
REMARK   19  A    between atoms: C_21  and  C_22
REMARK   20  A    between atoms: C_22  and  O_23
REMARK   21  A    between atoms: C_22  and  C_24
REMARK   22  A    between atoms: C_24  and  O_25
REMARK   23  A    between atoms: O_25  and  C_26
REMARK   24  A    between atoms: C_26  and  C_27
REMARK   25  A    between atoms: C_27  and  O_29
REMARK                            x       y       z     vdW  Elec       q    Type
REMARK                         _______ _______ _______ _____ _____    ______ ____
ROOT
ATOM      1  C   UNL     1       2.325   8.566  18.290  0.00  0.00    +0.000 C 
ENDROOT
BRANCH   1   2
ATOM      2  C   UNL     1       2.122   7.064  18.469  0.00  0.00    +0.000 C 
BRANCH   2   3
ATOM      3  C   UNL     1       2.083   6.736  19.956  0.00  0.00    +0.000 C 
BRANCH   3   4
ATOM      4  C   UNL     1       2.833   5.451  20.288  0.00  0.00    +0.000 C 
BRANCH   4   5
ATOM      5  C   UNL     1       1.885   4.350  20.778  0.00  0.00    +0.000 C 
BRANCH   5   6
ATOM      6  C   UNL     1       0.995   3.750  19.687  0.00  0.00    +0.000 C 
BRANCH   6   8
ATOM      7  C   UNL     1       2.231   2.223  18.108  0.00  0.00    +0.000 C 
ATOM      8  C   UNL     1       1.489   2.411  19.212  0.00  0.00    +0.000 C 
BRANCH   7   9
ATOM      9  C   UNL     1       2.671   3.349  17.232  0.00  0.00    +0.000 C 
BRANCH   9  10
ATOM     10  C   UNL     1       4.044   3.887  17.604  0.00  0.00    +0.000 C 
BRANCH  10  11
ATOM     11  C   UNL     1       4.783   4.301  16.337  0.00  0.00    +0.000 C 
BRANCH  11  12
ATOM     12  C   UNL     1       4.982   5.807  16.298  0.00  0.00    +0.000 C 
BRANCH  12  13
ATOM     13  C   UNL     1       5.402   6.330  17.668  0.00  0.00    +0.000 C 
BRANCH  13  14
ATOM     14  C   UNL     1       6.874   6.026  17.922  0.00  0.00    +0.000 C 
BRANCH  14  16
ATOM     15  C   UNL     1       7.565   8.427  17.731  0.00  0.00    +0.000 C 
ATOM     16  C   UNL     1       7.775   7.020  17.199  0.00  0.00    +0.000 C 
ENDBRANCH  14  16
ENDBRANCH  13  14
ENDBRANCH  12  13
ENDBRANCH  11  12
ENDBRANCH  10  11
ENDBRANCH   9  10
ENDBRANCH   7   9
ENDBRANCH   6   8
ENDBRANCH   5   6
ENDBRANCH   4   5
ENDBRANCH   3   4
ENDBRANCH   2   3
ENDBRANCH   1   2
BRANCH   1  17
ATOM     17  C   UNL     1       1.035   9.285  17.904  0.00  0.00    +0.000 C 
BRANCH  17  18
ATOM     18  C   UNL     1       0.568  10.180  19.029  0.00  0.00    +0.000 C 
ATOM     19  O   UNL     1       0.764   9.958  20.217  0.00  0.00    +0.000 OA
BRANCH  18  20
ATOM     20  O   UNL     1      -0.218  11.178  18.545  0.00  0.00    +0.000 OA
BRANCH  20  21
ATOM     21  C   UNL     1      -1.456  10.713  17.972  0.00  0.00    +0.000 C 
BRANCH  21  22
ATOM     22  C   UNL     1      -2.694  11.307  18.659  0.00  0.00    +0.000 C 
BRANCH  22  23
ATOM     23  O   UNL     1      -2.546  12.725  18.765  0.00  0.00    +0.000 OA
ATOM     24  H   UNL     1      -1.760  12.951  18.237  0.00  0.00    +0.000 HD
ENDBRANCH  22  23
BRANCH  22  25
ATOM     25  C   UNL     1      -3.945  11.017  17.840  0.00  0.00    +0.000 C 
BRANCH  25  26
ATOM     26  O   UNL     1      -4.944  12.017  18.078  0.00  0.00    +0.000 OA
BRANCH  26  27
ATOM     27  C   UNL     1      -6.246  11.465  17.903  0.00  0.00    +0.000 C 
BRANCH  27  28
ATOM     28  C   UNL     1      -6.604  10.669  19.147  0.00  0.00    +0.000 C 
ATOM     29  O   UNL     1      -6.931   9.498  19.124  0.00  0.00    +0.000 OA
BRANCH  28  30
ATOM     30  O   UNL     1      -6.514  11.397  20.282  0.00  0.00    +0.000 OA
ATOM     31  H   UNL     1      -7.107  12.185  20.189  0.00  0.00    +0.000 HD
ENDBRANCH  28  30
ENDBRANCH  27  28
ENDBRANCH  26  27
ENDBRANCH  25  26
ENDBRANCH  22  25
ENDBRANCH  21  22
ENDBRANCH  20  21
ENDBRANCH  18  20
ENDBRANCH  17  18
ENDBRANCH   1  17
TORSDOF 24
ENDMDL
MODEL 5
REMARK VINA RESULT:      -5.3      5.640      9.568
REMARK  Name = 
REMARK  25 active torsions:
REMARK  status: ('A' for Active; 'I' for Inactive)
REMARK    1  A    between atoms: C_1  and  C_2
REMARK    2  A    between atoms: C_2  and  C_3
REMARK    3  A    between atoms: C_3  and  C_4
REMARK    4  A    between atoms: C_4  and  C_5
REMARK    5  A    between atoms: C_5  and  C_6
REMARK    6  A    between atoms: C_6  and  C_7
REMARK    7  A    between atoms: C_7  and  C_8
REMARK    8  A    between atoms: C_8  and  C_9
REMARK    9  A    between atoms: C_10  and  C_11
REMARK   10  A    between atoms: C_11  and  C_12
REMARK   11  A    between atoms: C_12  and  C_13
REMARK   12  A    between atoms: C_13  and  C_14
REMARK   13  A    between atoms: C_14  and  C_15
REMARK   14  A    between atoms: C_15  and  C_16
REMARK   15  A    between atoms: C_16  and  C_17
REMARK   16  A    between atoms: C_17  and  C_18
REMARK   17  A    between atoms: C_18  and  O_20
REMARK   18  A    between atoms: O_20  and  C_21
REMARK   19  A    between atoms: C_21  and  C_22
REMARK   20  A    between atoms: C_22  and  O_23
REMARK   21  A    between atoms: C_22  and  C_24
REMARK   22  A    between atoms: C_24  and  O_25
REMARK   23  A    between atoms: O_25  and  C_26
REMARK   24  A    between atoms: C_26  and  C_27
REMARK   25  A    between atoms: C_27  and  O_29
REMARK                            x       y       z     vdW  Elec       q    Type
REMARK                         _______ _______ _______ _____ _____    ______ ____
ROOT
ATOM      1  C   UNL     1       4.394   7.644  17.742  0.00  0.00    +0.000 C 
ENDROOT
BRANCH   1   2
ATOM      2  C   UNL     1       5.252   6.881  16.736  0.00  0.00    +0.000 C 
BRANCH   2   3
ATOM      3  C   UNL     1       6.669   6.753  17.281  0.00  0.00    +0.000 C 
BRANCH   3   4
ATOM      4  C   UNL     1       6.894   5.433  18.009  0.00  0.00    +0.000 C 
BRANCH   4   5
ATOM      5  C   UNL     1       5.831   5.190  19.087  0.00  0.00    +0.000 C 
BRANCH   5   6
ATOM      6  C   UNL     1       5.148   3.823  19.006  0.00  0.00    +0.000 C 
BRANCH   6   8
ATOM      7  C   UNL     1       3.638   3.720  16.990  0.00  0.00    +0.000 C 
ATOM      8  C   UNL     1       4.803   3.434  17.594  0.00  0.00    +0.000 C 
BRANCH   7   9
ATOM      9  C   UNL     1       2.550   4.489  17.662  0.00  0.00    +0.000 C 
BRANCH   9  10
ATOM     10  C   UNL     1       1.281   3.674  17.855  0.00  0.00    +0.000 C 
BRANCH  10  11
ATOM     11  C   UNL     1       1.646   2.203  18.019  0.00  0.00    +0.000 C 
BRANCH  11  12
ATOM     12  C   UNL     1       1.938   1.880  19.474  0.00  0.00    +0.000 C 
BRANCH  12  13
ATOM     13  C   UNL     1       1.120   2.775  20.399  0.00  0.00    +0.000 C 
BRANCH  13  14
ATOM     14  C   UNL     1       1.939   3.155  21.628  0.00  0.00    +0.000 C 
BRANCH  14  16
ATOM     15  C   UNL     1       1.456   5.493  20.868  0.00  0.00    +0.000 C 
ATOM     16  C   UNL     1       2.480   4.575  21.512  0.00  0.00    +0.000 C 
ENDBRANCH  14  16
ENDBRANCH  13  14
ENDBRANCH  12  13
ENDBRANCH  11  12
ENDBRANCH  10  11
ENDBRANCH   9  10
ENDBRANCH   7   9
ENDBRANCH   6   8
ENDBRANCH   5   6
ENDBRANCH   4   5
ENDBRANCH   3   4
ENDBRANCH   2   3
ENDBRANCH   1   2
BRANCH   1  17
ATOM     17  C   UNL     1       2.959   7.834  17.256  0.00  0.00    +0.000 C 
BRANCH  17  18
ATOM     18  C   UNL     1       2.176   8.684  18.231  0.00  0.00    +0.000 C 
ATOM     19  O   UNL     1       1.831   8.317  19.347  0.00  0.00    +0.000 OA
BRANCH  18  20
ATOM     20  O   UNL     1       1.790   9.846  17.641  0.00  0.00    +0.000 OA
BRANCH  20  21
ATOM     21  C   UNL     1       1.493  10.899  18.580  0.00  0.00    +0.000 C 
BRANCH  21  22
ATOM     22  C   UNL     1      -0.004  11.233  18.650  0.00  0.00    +0.000 C 
BRANCH  22  23
ATOM     23  O   UNL     1      -0.753  10.030  18.833  0.00  0.00    +0.000 OA
ATOM     24  H   UNL     1      -0.942   9.696  17.939  0.00  0.00    +0.000 HD
ENDBRANCH  22  23
BRANCH  22  25
ATOM     25  C   UNL     1      -0.285  12.156  19.829  0.00  0.00    +0.000 C 
BRANCH  25  26
ATOM     26  O   UNL     1       0.446  11.728  20.986  0.00  0.00    +0.000 OA
BRANCH  26  27
ATOM     27  C   UNL     1      -0.452  11.312  22.012  0.00  0.00    +0.000 C 
BRANCH  27  28
ATOM     28  C   UNL     1      -0.024   9.939  22.500  0.00  0.00    +0.000 C 
ATOM     29  O   UNL     1       0.324   9.710  23.643  0.00  0.00    +0.000 OA
BRANCH  28  30
ATOM     30  O   UNL     1      -0.076   8.996  21.533  0.00  0.00    +0.000 OA
ATOM     31  H   UNL     1       0.406   9.342  20.741  0.00  0.00    +0.000 HD
ENDBRANCH  28  30
ENDBRANCH  27  28
ENDBRANCH  26  27
ENDBRANCH  25  26
ENDBRANCH  22  25
ENDBRANCH  21  22
ENDBRANCH  20  21
ENDBRANCH  18  20
ENDBRANCH  17  18
ENDBRANCH   1  17
TORSDOF 24
ENDMDL
MODEL 6
REMARK VINA RESULT:      -5.3      6.624     10.147
REMARK  Name = 
REMARK  25 active torsions:
REMARK  status: ('A' for Active; 'I' for Inactive)
REMARK    1  A    between atoms: C_1  and  C_2
REMARK    2  A    between atoms: C_2  and  C_3
REMARK    3  A    between atoms: C_3  and  C_4
REMARK    4  A    between atoms: C_4  and  C_5
REMARK    5  A    between atoms: C_5  and  C_6
REMARK    6  A    between atoms: C_6  and  C_7
REMARK    7  A    between atoms: C_7  and  C_8
REMARK    8  A    between atoms: C_8  and  C_9
REMARK    9  A    between atoms: C_10  and  C_11
REMARK   10  A    between atoms: C_11  and  C_12
REMARK   11  A    between atoms: C_12  and  C_13
REMARK   12  A    between atoms: C_13  and  C_14
REMARK   13  A    between atoms: C_14  and  C_15
REMARK   14  A    between atoms: C_15  and  C_16
REMARK   15  A    between atoms: C_16  and  C_17
REMARK   16  A    between atoms: C_17  and  C_18
REMARK   17  A    between atoms: C_18  and  O_20
REMARK   18  A    between atoms: O_20  and  C_21
REMARK   19  A    between atoms: C_21  and  C_22
REMARK   20  A    between atoms: C_22  and  O_23
REMARK   21  A    between atoms: C_22  and  C_24
REMARK   22  A    between atoms: C_24  and  O_25
REMARK   23  A    between atoms: O_25  and  C_26
REMARK   24  A    between atoms: C_26  and  C_27
REMARK   25  A    between atoms: C_27  and  O_29
REMARK                            x       y       z     vdW  Elec       q    Type
REMARK                         _______ _______ _______ _____ _____    ______ ____
ROOT
ATOM      1  C   UNL     1       2.065   6.732  18.538  0.00  0.00    +0.000 C 
ENDROOT
BRANCH   1   2
ATOM      2  C   UNL     1       2.758   6.059  19.721  0.00  0.00    +0.000 C 
BRANCH   2   3
ATOM      3  C   UNL     1       1.709   5.642  20.745  0.00  0.00    +0.000 C 
BRANCH   3   4
ATOM      4  C   UNL     1       1.792   4.159  21.089  0.00  0.00    +0.000 C 
BRANCH   4   5
ATOM      5  C   UNL     1       1.015   3.299  20.086  0.00  0.00    +0.000 C 
BRANCH   5   6
ATOM      6  C   UNL     1       1.894   2.542  19.087  0.00  0.00    +0.000 C 
BRANCH   6   8
ATOM      7  C   UNL     1       2.883   3.412  16.937  0.00  0.00    +0.000 C 
ATOM      8  C   UNL     1       1.816   3.119  17.699  0.00  0.00    +0.000 C 
BRANCH   7   9
ATOM      9  C   UNL     1       4.285   3.168  17.387  0.00  0.00    +0.000 C 
BRANCH   9  10
ATOM     10  C   UNL     1       5.015   4.447  17.767  0.00  0.00    +0.000 C 
BRANCH  10  11
ATOM     11  C   UNL     1       5.060   5.379  16.561  0.00  0.00    +0.000 C 
BRANCH  11  12
ATOM     12  C   UNL     1       6.040   4.864  15.520  0.00  0.00    +0.000 C 
BRANCH  12  13
ATOM     13  C   UNL     1       5.335   4.622  14.190  0.00  0.00    +0.000 C 
BRANCH  13  14
ATOM     14  C   UNL     1       6.097   3.591  13.366  0.00  0.00    +0.000 C 
BRANCH  14  16
ATOM     15  C   UNL     1       5.780   1.969  11.483  0.00  0.00    +0.000 C 
ATOM     16  C   UNL     1       5.413   3.338  12.028  0.00  0.00    +0.000 C 
ENDBRANCH  14  16
ENDBRANCH  13  14
ENDBRANCH  12  13
ENDBRANCH  11  12
ENDBRANCH  10  11
ENDBRANCH   9  10
ENDBRANCH   7   9
ENDBRANCH   6   8
ENDBRANCH   5   6
ENDBRANCH   4   5
ENDBRANCH   3   4
ENDBRANCH   2   3
ENDBRANCH   1   2
BRANCH   1  17
ATOM     17  C   UNL     1       2.839   7.944  18.025  0.00  0.00    +0.000 C 
BRANCH  17  18
ATOM     18  C   UNL     1       2.030   9.207  18.207  0.00  0.00    +0.000 C 
ATOM     19  O   UNL     1       2.173  10.223  17.540  0.00  0.00    +0.000 OA
BRANCH  18  20
ATOM     20  O   UNL     1       1.229   9.103  19.301  0.00  0.00    +0.000 OA
BRANCH  20  21
ATOM     21  C   UNL     1       0.096   9.993  19.274  0.00  0.00    +0.000 C 
BRANCH  21  22
ATOM     22  C   UNL     1      -0.145  10.697  20.617  0.00  0.00    +0.000 C 
BRANCH  22  23
ATOM     23  O   UNL     1       1.099  10.853  21.304  0.00  0.00    +0.000 OA
ATOM     24  H   UNL     1       1.433  11.731  21.050  0.00  0.00    +0.000 HD
ENDBRANCH  22  23
BRANCH  22  25
ATOM     25  C   UNL     1      -0.744  12.079  20.391  0.00  0.00    +0.000 C 
BRANCH  25  26
ATOM     26  O   UNL     1      -2.057  12.155  20.962  0.00  0.00    +0.000 OA
BRANCH  26  27
ATOM     27  C   UNL     1      -2.091  13.142  21.991  0.00  0.00    +0.000 C 
BRANCH  27  28
ATOM     28  C   UNL     1      -2.562  14.454  21.385  0.00  0.00    +0.000 C 
ATOM     29  O   UNL     1      -2.229  15.545  21.805  0.00  0.00    +0.000 OA
BRANCH  28  30
ATOM     30  O   UNL     1      -3.386  14.280  20.327  0.00  0.00    +0.000 OA
ATOM     31  H   UNL     1      -3.154  13.419  19.896  0.00  0.00    +0.000 HD
ENDBRANCH  28  30
ENDBRANCH  27  28
ENDBRANCH  26  27
ENDBRANCH  25  26
ENDBRANCH  22  25
ENDBRANCH  21  22
ENDBRANCH  20  21
ENDBRANCH  18  20
ENDBRANCH  17  18
ENDBRANCH   1  17
TORSDOF 24
ENDMDL
MODEL 7
REMARK VINA RESULT:      -5.3      4.198     10.532
REMARK  Name = 
REMARK  25 active torsions:
REMARK  status: ('A' for Active; 'I' for Inactive)
REMARK    1  A    between atoms: C_1  and  C_2
REMARK    2  A    between atoms: C_2  and  C_3
REMARK    3  A    between atoms: C_3  and  C_4
REMARK    4  A    between atoms: C_4  and  C_5
REMARK    5  A    between atoms: C_5  and  C_6
REMARK    6  A    between atoms: C_6  and  C_7
REMARK    7  A    between atoms: C_7  and  C_8
REMARK    8  A    between atoms: C_8  and  C_9
REMARK    9  A    between atoms: C_10  and  C_11
REMARK   10  A    between atoms: C_11  and  C_12
REMARK   11  A    between atoms: C_12  and  C_13
REMARK   12  A    between atoms: C_13  and  C_14
REMARK   13  A    between atoms: C_14  and  C_15
REMARK   14  A    between atoms: C_15  and  C_16
REMARK   15  A    between atoms: C_16  and  C_17
REMARK   16  A    between atoms: C_17  and  C_18
REMARK   17  A    between atoms: C_18  and  O_20
REMARK   18  A    between atoms: O_20  and  C_21
REMARK   19  A    between atoms: C_21  and  C_22
REMARK   20  A    between atoms: C_22  and  O_23
REMARK   21  A    between atoms: C_22  and  C_24
REMARK   22  A    between atoms: C_24  and  O_25
REMARK   23  A    between atoms: O_25  and  C_26
REMARK   24  A    between atoms: C_26  and  C_27
REMARK   25  A    between atoms: C_27  and  O_29
REMARK                            x       y       z     vdW  Elec       q    Type
REMARK                         _______ _______ _______ _____ _____    ______ ____
ROOT
ATOM      1  C   UNL     1       7.405   5.984  19.014  0.00  0.00    +0.000 C 
ENDROOT
BRANCH   1   2
ATOM      2  C   UNL     1       7.675   4.744  18.164  0.00  0.00    +0.000 C 
BRANCH   2   3
ATOM      3  C   UNL     1       6.430   4.415  17.348  0.00  0.00    +0.000 C 
BRANCH   3   4
ATOM      4  C   UNL     1       5.143   4.673  18.124  0.00  0.00    +0.000 C 
BRANCH   4   5
ATOM      5  C   UNL     1       4.842   3.543  19.116  0.00  0.00    +0.000 C 
BRANCH   5   6
ATOM      6  C   UNL     1       4.016   2.393  18.534  0.00  0.00    +0.000 C 
BRANCH   6   8
ATOM      7  C   UNL     1       1.616   2.908  17.965  0.00  0.00    +0.000 C 
ATOM      8  C   UNL     1       2.916   2.875  17.629  0.00  0.00    +0.000 C 
BRANCH   7   9
ATOM      9  C   UNL     1       1.119   2.484  19.307  0.00  0.00    +0.000 C 
BRANCH   9  10
ATOM     10  C   UNL     1       1.174   3.601  20.338  0.00  0.00    +0.000 C 
BRANCH  10  11
ATOM     11  C   UNL     1       1.313   4.941  19.623  0.00  0.00    +0.000 C 
BRANCH  11  12
ATOM     12  C   UNL     1       1.705   6.035  20.602  0.00  0.00    +0.000 C 
BRANCH  12  13
ATOM     13  C   UNL     1       2.500   7.129  19.897  0.00  0.00    +0.000 C 
BRANCH  13  14
ATOM     14  C   UNL     1       2.313   7.028  18.387  0.00  0.00    +0.000 C 
BRANCH  14  16
ATOM     15  C   UNL     1       2.217   9.493  17.950  0.00  0.00    +0.000 C 
ATOM     16  C   UNL     1       1.464   8.178  17.859  0.00  0.00    +0.000 C 
ENDBRANCH  14  16
ENDBRANCH  13  14
ENDBRANCH  12  13
ENDBRANCH  11  12
ENDBRANCH  10  11
ENDBRANCH   9  10
ENDBRANCH   7   9
ENDBRANCH   6   8
ENDBRANCH   5   6
ENDBRANCH   4   5
ENDBRANCH   3   4
ENDBRANCH   2   3
ENDBRANCH   1   2
BRANCH   1  17
ATOM     17  C   UNL     1       8.254   7.178  18.585  0.00  0.00    +0.000 C 
BRANCH  17  18
ATOM     18  C   UNL     1       7.481   8.067  17.640  0.00  0.00    +0.000 C 
ATOM     19  O   UNL     1       6.798   7.660  16.709  0.00  0.00    +0.000 OA
BRANCH  18  20
ATOM     20  O   UNL     1       7.765   9.375  17.880  0.00  0.00    +0.000 OA
BRANCH  20  21
ATOM     21  C   UNL     1       9.043   9.581  18.515  0.00  0.00    +0.000 C 
BRANCH  21  22
ATOM     22  C   UNL     1       9.471  11.055  18.534  0.00  0.00    +0.000 C 
BRANCH  22  23
ATOM     23  O   UNL     1       9.023  11.666  19.747  0.00  0.00    +0.000 OA
ATOM     24  H   UNL     1       9.741  12.260  20.026  0.00  0.00    +0.000 HD
ENDBRANCH  22  23
BRANCH  22  25
ATOM     25  C   UNL     1      10.989  11.167  18.475  0.00  0.00    +0.000 C 
BRANCH  25  26
ATOM     26  O   UNL     1      11.387  12.541  18.380  0.00  0.00    +0.000 OA
BRANCH  26  27
ATOM     27  C   UNL     1      10.881  13.119  17.178  0.00  0.00    +0.000 C 
BRANCH  27  28
ATOM     28  C   UNL     1      11.090  14.622  17.241  0.00  0.00    +0.000 C 
ATOM     29  O   UNL     1      11.344  15.223  18.267  0.00  0.00    +0.000 OA
BRANCH  28  30
ATOM     30  O   UNL     1      10.968  15.222  16.035  0.00  0.00    +0.000 OA
ATOM     31  H   UNL     1      10.414  14.639  15.457  0.00  0.00    +0.000 HD
ENDBRANCH  28  30
ENDBRANCH  27  28
ENDBRANCH  26  27
ENDBRANCH  25  26
ENDBRANCH  22  25
ENDBRANCH  21  22
ENDBRANCH  20  21
ENDBRANCH  18  20
ENDBRANCH  17  18
ENDBRANCH   1  17
TORSDOF 24
ENDMDL
MODEL 8
REMARK VINA RESULT:      -5.3      2.540      4.632
REMARK  Name = 
REMARK  25 active torsions:
REMARK  status: ('A' for Active; 'I' for Inactive)
REMARK    1  A    between atoms: C_1  and  C_2
REMARK    2  A    between atoms: C_2  and  C_3
REMARK    3  A    between atoms: C_3  and  C_4
REMARK    4  A    between atoms: C_4  and  C_5
REMARK    5  A    between atoms: C_5  and  C_6
REMARK    6  A    between atoms: C_6  and  C_7
REMARK    7  A    between atoms: C_7  and  C_8
REMARK    8  A    between atoms: C_8  and  C_9
REMARK    9  A    between atoms: C_10  and  C_11
REMARK   10  A    between atoms: C_11  and  C_12
REMARK   11  A    between atoms: C_12  and  C_13
REMARK   12  A    between atoms: C_13  and  C_14
REMARK   13  A    between atoms: C_14  and  C_15
REMARK   14  A    between atoms: C_15  and  C_16
REMARK   15  A    between atoms: C_16  and  C_17
REMARK   16  A    between atoms: C_17  and  C_18
REMARK   17  A    between atoms: C_18  and  O_20
REMARK   18  A    between atoms: O_20  and  C_21
REMARK   19  A    between atoms: C_21  and  C_22
REMARK   20  A    between atoms: C_22  and  O_23
REMARK   21  A    between atoms: C_22  and  C_24
REMARK   22  A    between atoms: C_24  and  O_25
REMARK   23  A    between atoms: O_25  and  C_26
REMARK   24  A    between atoms: C_26  and  C_27
REMARK   25  A    between atoms: C_27  and  O_29
REMARK                            x       y       z     vdW  Elec       q    Type
REMARK                         _______ _______ _______ _____ _____    ______ ____
ROOT
ATOM      1  C   UNL     1       7.358   5.697  17.603  0.00  0.00    +0.000 C 
ENDROOT
BRANCH   1   2
ATOM      2  C   UNL     1       7.946   6.766  18.520  0.00  0.00    +0.000 C 
BRANCH   2   3
ATOM      3  C   UNL     1       7.960   8.103  17.788  0.00  0.00    +0.000 C 
BRANCH   3   4
ATOM      4  C   UNL     1       8.659   9.196  18.589  0.00  0.00    +0.000 C 
BRANCH   4   5
ATOM      5  C   UNL     1       8.871  10.464  17.754  0.00  0.00    +0.000 C 
BRANCH   5   6
ATOM      6  C   UNL     1       9.245  11.704  18.570  0.00  0.00    +0.000 C 
BRANCH   6   8
ATOM      7  C   UNL     1      10.058  11.640  20.955  0.00  0.00    +0.000 C 
ATOM      8  C   UNL     1      10.251  11.403  19.647  0.00  0.00    +0.000 C 
BRANCH   7   9
ATOM      9  C   UNL     1       8.790  12.218  21.490  0.00  0.00    +0.000 C 
BRANCH   9  10
ATOM     10  C   UNL     1       8.870  12.551  22.972  0.00  0.00    +0.000 C 
BRANCH  10  11
ATOM     11  C   UNL     1       7.518  13.074  23.444  0.00  0.00    +0.000 C 
BRANCH  11  12
ATOM     12  C   UNL     1       6.512  11.941  23.556  0.00  0.00    +0.000 C 
BRANCH  12  13
ATOM     13  C   UNL     1       6.525  11.346  24.961  0.00  0.00    +0.000 C 
BRANCH  13  14
ATOM     14  C   UNL     1       6.682  12.450  26.001  0.00  0.00    +0.000 C 
BRANCH  14  16
ATOM     15  C   UNL     1       5.334  14.420  26.763  0.00  0.00    +0.000 C 
ATOM     16  C   UNL     1       5.326  12.922  26.512  0.00  0.00    +0.000 C 
ENDBRANCH  14  16
ENDBRANCH  13  14
ENDBRANCH  12  13
ENDBRANCH  11  12
ENDBRANCH  10  11
ENDBRANCH   9  10
ENDBRANCH   7   9
ENDBRANCH   6   8
ENDBRANCH   5   6
ENDBRANCH   4   5
ENDBRANCH   3   4
ENDBRANCH   2   3
ENDBRANCH   1   2
BRANCH   1  17
ATOM     17  C   UNL     1       6.136   5.016  18.213  0.00  0.00    +0.000 C 
BRANCH  17  18
ATOM     18  C   UNL     1       5.203   4.528  17.130  0.00  0.00    +0.000 C 
ATOM     19  O   UNL     1       5.421   3.560  16.412  0.00  0.00    +0.000 OA
BRANCH  18  20
ATOM     20  O   UNL     1       4.167   5.394  16.972  0.00  0.00    +0.000 OA
BRANCH  20  21
ATOM     21  C   UNL     1       3.234   5.386  18.070  0.00  0.00    +0.000 C 
BRANCH  21  22
ATOM     22  C   UNL     1       1.973   4.559  17.779  0.00  0.00    +0.000 C 
BRANCH  22  23
ATOM     23  O   UNL     1       2.300   3.488  16.891  0.00  0.00    +0.000 OA
ATOM     24  H   UNL     1       3.262   3.365  16.966  0.00  0.00    +0.000 HD
ENDBRANCH  22  23
BRANCH  22  25
ATOM     25  C   UNL     1       1.422   3.962  19.068  0.00  0.00    +0.000 C 
BRANCH  25  26
ATOM     26  O   UNL     1       1.759   2.571  19.158  0.00  0.00    +0.000 OA
BRANCH  26  27
ATOM     27  C   UNL     1       2.681   2.355  20.224  0.00  0.00    +0.000 C 
BRANCH  27  28
ATOM     28  C   UNL     1       4.048   2.064  19.628  0.00  0.00    +0.000 C 
ATOM     29  O   UNL     1       5.094   2.280  20.208  0.00  0.00    +0.000 OA
BRANCH  28  30
ATOM     30  O   UNL     1       3.979   1.534  18.386  0.00  0.00    +0.000 OA
ATOM     31  H   UNL     1       4.642   0.801  18.328  0.00  0.00    +0.000 HD
ENDBRANCH  28  30
ENDBRANCH  27  28
ENDBRANCH  26  27
ENDBRANCH  25  26
ENDBRANCH  22  25
ENDBRANCH  21  22
ENDBRANCH  20  21
ENDBRANCH  18  20
ENDBRANCH  17  18
ENDBRANCH   1  17
TORSDOF 24
ENDMDL
MODEL 9
REMARK VINA RESULT:      -5.3      1.474      2.714
REMARK  Name = 
REMARK  25 active torsions:
REMARK  status: ('A' for Active; 'I' for Inactive)
REMARK    1  A    between atoms: C_1  and  C_2
REMARK    2  A    between atoms: C_2  and  C_3
REMARK    3  A    between atoms: C_3  and  C_4
REMARK    4  A    between atoms: C_4  and  C_5
REMARK    5  A    between atoms: C_5  and  C_6
REMARK    6  A    between atoms: C_6  and  C_7
REMARK    7  A    between atoms: C_7  and  C_8
REMARK    8  A    between atoms: C_8  and  C_9
REMARK    9  A    between atoms: C_10  and  C_11
REMARK   10  A    between atoms: C_11  and  C_12
REMARK   11  A    between atoms: C_12  and  C_13
REMARK   12  A    between atoms: C_13  and  C_14
REMARK   13  A    between atoms: C_14  and  C_15
REMARK   14  A    between atoms: C_15  and  C_16
REMARK   15  A    between atoms: C_16  and  C_17
REMARK   16  A    between atoms: C_17  and  C_18
REMARK   17  A    between atoms: C_18  and  O_20
REMARK   18  A    between atoms: O_20  and  C_21
REMARK   19  A    between atoms: C_21  and  C_22
REMARK   20  A    between atoms: C_22  and  O_23
REMARK   21  A    between atoms: C_22  and  C_24
REMARK   22  A    between atoms: C_24  and  O_25
REMARK   23  A    between atoms: O_25  and  C_26
REMARK   24  A    between atoms: C_26  and  C_27
REMARK   25  A    between atoms: C_27  and  O_29
REMARK                            x       y       z     vdW  Elec       q    Type
REMARK                         _______ _______ _______ _____ _____    ______ ____
ROOT
ATOM      1  C   UNL     1       7.555   7.558  17.791  0.00  0.00    +0.000 C 
ENDROOT
BRANCH   1   2
ATOM      2  C   UNL     1       8.499   8.539  18.481  0.00  0.00    +0.000 C 
BRANCH   2   3
ATOM      3  C   UNL     1       8.232   9.945  17.956  0.00  0.00    +0.000 C 
BRANCH   3   4
ATOM      4  C   UNL     1       9.439  10.863  18.115  0.00  0.00    +0.000 C 
BRANCH   4   5
ATOM      5  C   UNL     1       9.891  10.959  19.577  0.00  0.00    +0.000 C 
BRANCH   5   6
ATOM      6  C   UNL     1      11.195  11.733  19.787  0.00  0.00    +0.000 C 
BRANCH   6   8
ATOM      7  C   UNL     1      10.846  14.229  19.809  0.00  0.00    +0.000 C 
ATOM      8  C   UNL     1      10.975  13.061  20.459  0.00  0.00    +0.000 C 
BRANCH   7   9
ATOM      9  C   UNL     1      10.884  14.331  18.321  0.00  0.00    +0.000 C 
BRANCH   9  10
ATOM     10  C   UNL     1      10.948  15.769  17.827  0.00  0.00    +0.000 C 
BRANCH  10  11
ATOM     11  C   UNL     1      10.527  16.707  18.953  0.00  0.00    +0.000 C 
BRANCH  11  12
ATOM     12  C   UNL     1       9.377  17.596  18.511  0.00  0.00    +0.000 C 
BRANCH  12  13
ATOM     13  C   UNL     1       8.078  16.801  18.442  0.00  0.00    +0.000 C 
BRANCH  13  14
ATOM     14  C   UNL     1       7.671  16.331  19.835  0.00  0.00    +0.000 C 
BRANCH  14  16
ATOM     15  C   UNL     1       7.493  14.202  21.143  0.00  0.00    +0.000 C 
ATOM     16  C   UNL     1       7.210  14.878  19.813  0.00  0.00    +0.000 C 
ENDBRANCH  14  16
ENDBRANCH  13  14
ENDBRANCH  12  13
ENDBRANCH  11  12
ENDBRANCH  10  11
ENDBRANCH   9  10
ENDBRANCH   7   9
ENDBRANCH   6   8
ENDBRANCH   5   6
ENDBRANCH   4   5
ENDBRANCH   3   4
ENDBRANCH   2   3
ENDBRANCH   1   2
BRANCH   1  17
ATOM     17  C   UNL     1       7.746   6.125  18.281  0.00  0.00    +0.000 C 
BRANCH  17  18
ATOM     18  C   UNL     1       6.410   5.462  18.520  0.00  0.00    +0.000 C 
ATOM     19  O   UNL     1       6.064   4.966  19.584  0.00  0.00    +0.000 OA
BRANCH  18  20
ATOM     20  O   UNL     1       5.713   5.367  17.356  0.00  0.00    +0.000 OA
BRANCH  20  21
ATOM     21  C   UNL     1       4.292   5.211  17.545  0.00  0.00    +0.000 C 
BRANCH  21  22
ATOM     22  C   UNL     1       3.787   3.815  17.154  0.00  0.00    +0.000 C 
BRANCH  22  23
ATOM     23  O   UNL     1       4.787   2.841  17.465  0.00  0.00    +0.000 OA
ATOM     24  H   UNL     1       5.241   2.651  16.626  0.00  0.00    +0.000 HD
ENDBRANCH  22  23
BRANCH  22  25
ATOM     25  C   UNL     1       2.525   3.471  17.935  0.00  0.00    +0.000 C 
BRANCH  25  26
ATOM     26  O   UNL     1       2.621   3.957  19.281  0.00  0.00    +0.000 OA
BRANCH  26  27
ATOM     27  C   UNL     1       2.760   2.868  20.190  0.00  0.00    +0.000 C 
BRANCH  27  28
ATOM     28  C   UNL     1       1.523   2.813  21.070  0.00  0.00    +0.000 C 
ATOM     29  O   UNL     1       1.552   2.538  22.254  0.00  0.00    +0.000 OA
BRANCH  28  30
ATOM     30  O   UNL     1       0.386   3.107  20.400  0.00  0.00    +0.000 OA
ATOM     31  H   UNL     1      -0.277   2.398  20.595  0.00  0.00    +0.000 HD
ENDBRANCH  28  30
ENDBRANCH  27  28
ENDBRANCH  26  27
ENDBRANCH  25  26
ENDBRANCH  22  25
ENDBRANCH  21  22
ENDBRANCH  20  21
ENDBRANCH  18  20
ENDBRANCH  17  18
ENDBRANCH   1  17
TORSDOF 24
ENDMDL
