MODEL 1
REMARK VINA RESULT:      -7.7      0.000      0.000
REMARK  Name = 
REMARK  3 active torsions:
REMARK  status: ('A' for Active; 'I' for Inactive)
REMARK    1  A    between atoms: C_1  and  C_2
REMARK    2  A    between atoms: C_5  and  C_6
REMARK    3  A    between atoms: C_12  and  C_13
REMARK                            x       y       z     vdW  Elec       q    Type
REMARK                         _______ _______ _______ _____ _____    ______ ____
ROOT
ATOM      1  C   UNL     1       5.093   4.513  18.258  0.00  0.00    +0.000 C 
ATOM      2  O   UNL     1       5.567   3.876  19.198  0.00  0.00    +0.000 OA
ATOM      3  N   UNL     1       3.951   5.300  18.396  0.00  0.00    +0.000 N 
ATOM      4  C   UNL     1       3.335   6.169  17.407  0.00  0.00    +0.000 C 
ATOM      5  C   UNL     1       2.942   7.395  18.206  0.00  0.00    +0.000 C 
ATOM      6  C   UNL     1       2.564   6.836  19.571  0.00  0.00    +0.000 C 
ATOM      7  C   UNL     1       3.401   5.554  19.724  0.00  0.00    +0.000 C 
ENDROOT
BRANCH   1  12
ATOM      8  C   UNL     1       7.747   5.179  13.304  0.00  0.00    +0.000 C 
ATOM      9  C   UNL     1       7.115   4.916  14.632  0.00  0.00    +0.000 A 
ATOM     10  C   UNL     1       6.159   3.916  14.798  0.00  0.00    +0.000 A 
ATOM     11  N   UNL     1       5.512   3.695  15.968  0.00  0.00    +0.000 NA
ATOM     12  C   UNL     1       5.858   4.530  16.984  0.00  0.00    +0.000 A 
ATOM     13  C   UNL     1       6.844   5.496  16.839  0.00  0.00    +0.000 A 
ATOM     14  N   UNL     1       7.486   5.716  15.663  0.00  0.00    +0.000 NA
ENDBRANCH   1  12
BRANCH   7  15
ATOM     15  C   UNL     1       2.547   4.402  20.189  0.00  0.00    +0.000 A 
ATOM     16  C   UNL     1       2.353   3.911  21.467  0.00  0.00    +0.000 A 
ATOM     17  C   UNL     1       1.482   2.784  21.493  0.00  0.00    +0.000 A 
ATOM     18  C   UNL     1       1.041   2.446  20.235  0.00  0.00    +0.000 A 
ATOM     19  S   UNL     1       1.676   3.480  19.032  0.00  0.00    +0.000 S 
ENDBRANCH   7  15
TORSDOF 2
ENDMDL
MODEL 2
REMARK VINA RESULT:      -6.5      2.615      6.243
REMARK  Name = 
REMARK  3 active torsions:
REMARK  status: ('A' for Active; 'I' for Inactive)
REMARK    1  A    between atoms: C_1  and  C_2
REMARK    2  A    between atoms: C_5  and  C_6
REMARK    3  A    between atoms: C_12  and  C_13
REMARK                            x       y       z     vdW  Elec       q    Type
REMARK                         _______ _______ _______ _____ _____    ______ ____
ROOT
ATOM      1  C   UNL     1       3.757   6.358  18.290  0.00  0.00    +0.000 C 
ATOM      2  O   UNL     1       4.928   6.695  18.469  0.00  0.00    +0.000 OA
ATOM      3  N   UNL     1       3.414   5.095  17.812  0.00  0.00    +0.000 N 
ATOM      4  C   UNL     1       2.086   4.532  17.638  0.00  0.00    +0.000 C 
ATOM      5  C   UNL     1       2.238   3.102  18.117  0.00  0.00    +0.000 C 
ATOM      6  C   UNL     1       3.656   2.729  17.708  0.00  0.00    +0.000 C 
ATOM      7  C   UNL     1       4.435   4.056  17.706  0.00  0.00    +0.000 C 
ENDROOT
BRANCH   1  12
ATOM      8  C   UNL     1       0.173  10.423  19.920  0.00  0.00    +0.000 C 
ATOM      9  C   UNL     1       1.030   9.282  19.476  0.00  0.00    +0.000 A 
ATOM     10  C   UNL     1       1.381   8.252  20.345  0.00  0.00    +0.000 A 
ATOM     11  N   UNL     1       2.213   7.240  20.000  0.00  0.00    +0.000 NA
ATOM     12  C   UNL     1       2.696   7.300  18.731  0.00  0.00    +0.000 A 
ATOM     13  C   UNL     1       2.313   8.296  17.843  0.00  0.00    +0.000 A 
ATOM     14  N   UNL     1       1.481   9.310  18.196  0.00  0.00    +0.000 NA
ENDBRANCH   1  12
BRANCH   7  15
ATOM     15  C   UNL     1       5.239   4.211  16.440  0.00  0.00    +0.000 A 
ATOM     16  C   UNL     1       4.845   4.058  15.124  0.00  0.00    +0.000 A 
ATOM     17  C   UNL     1       5.913   4.269  14.205  0.00  0.00    +0.000 A 
ATOM     18  C   UNL     1       7.091   4.575  14.848  0.00  0.00    +0.000 A 
ATOM     19  S   UNL     1       6.908   4.602  16.546  0.00  0.00    +0.000 S 
ENDBRANCH   7  15
TORSDOF 2
ENDMDL
MODEL 3
REMARK VINA RESULT:      -6.5      0.719      1.162
REMARK  Name = 
REMARK  3 active torsions:
REMARK  status: ('A' for Active; 'I' for Inactive)
REMARK    1  A    between atoms: C_1  and  C_2
REMARK    2  A    between atoms: C_5  and  C_6
REMARK    3  A    between atoms: C_12  and  C_13
REMARK                            x       y       z     vdW  Elec       q    Type
REMARK                         _______ _______ _______ _____ _____    ______ ____
ROOT
ATOM      1  C   UNL     1       4.825   4.788  18.267  0.00  0.00    +0.000 C 
ATOM      2  O   UNL     1       5.381   4.088  19.114  0.00  0.00    +0.000 OA
ATOM      3  N   UNL     1       3.669   5.513  18.549  0.00  0.00    +0.000 N 
ATOM      4  C   UNL     1       2.960   6.442  17.685  0.00  0.00    +0.000 C 
ATOM      5  C   UNL     1       2.580   7.576  18.615  0.00  0.00    +0.000 C 
ATOM      6  C   UNL     1       2.313   6.884  19.945  0.00  0.00    +0.000 C 
ATOM      7  C   UNL     1       3.201   5.627  19.927  0.00  0.00    +0.000 C 
ENDROOT
BRANCH   1  12
ATOM      8  C   UNL     1       7.530   4.747  13.297  0.00  0.00    +0.000 C 
ATOM      9  C   UNL     1       6.777   4.860  14.582  0.00  0.00    +0.000 A 
ATOM     10  C   UNL     1       7.281   5.583  15.661  0.00  0.00    +0.000 A 
ATOM     11  N   UNL     1       6.663   5.649  16.865  0.00  0.00    +0.000 NA
ATOM     12  C   UNL     1       5.502   4.948  16.954  0.00  0.00    +0.000 A 
ATOM     13  C   UNL     1       4.968   4.265  15.869  0.00  0.00    +0.000 A 
ATOM     14  N   UNL     1       5.596   4.199  14.667  0.00  0.00    +0.000 NA
ENDBRANCH   1  12
BRANCH   7  15
ATOM     15  C   UNL     1       2.419   4.406  20.339  0.00  0.00    +0.000 A 
ATOM     16  C   UNL     1       2.328   3.795  21.576  0.00  0.00    +0.000 A 
ATOM     17  C   UNL     1       1.499   2.638  21.555  0.00  0.00    +0.000 A 
ATOM     18  C   UNL     1       0.984   2.397  20.301  0.00  0.00    +0.000 A 
ATOM     19  S   UNL     1       1.502   3.557  19.160  0.00  0.00    +0.000 S 
ENDBRANCH   7  15
TORSDOF 2
ENDMDL
MODEL 4
REMARK VINA RESULT:      -6.1      2.840      5.534
REMARK  Name = 
REMARK  3 active torsions:
REMARK  status: ('A' for Active; 'I' for Inactive)
REMARK    1  A    between atoms: C_1  and  C_2
REMARK    2  A    between atoms: C_5  and  C_6
REMARK    3  A    between atoms: C_12  and  C_13
REMARK                            x       y       z     vdW  Elec       q    Type
REMARK                         _______ _______ _______ _____ _____    ______ ____
ROOT
ATOM      1  C   UNL     1       2.478   6.212  17.991  0.00  0.00    +0.000 C 
ATOM      2  O   UNL     1       1.516   5.449  17.903  0.00  0.00    +0.000 OA
ATOM      3  N   UNL     1       3.763   5.833  17.609  0.00  0.00    +0.000 N 
ATOM      4  C   UNL     1       4.966   6.648  17.573  0.00  0.00    +0.000 C 
ATOM      5  C   UNL     1       5.644   6.226  16.285  0.00  0.00    +0.000 C 
ATOM      6  C   UNL     1       5.312   4.745  16.165  0.00  0.00    +0.000 C 
ATOM      7  C   UNL     1       3.967   4.577  16.893  0.00  0.00    +0.000 C 
ENDROOT
BRANCH   1  12
ATOM      8  C   UNL     1       0.821  11.364  19.648  0.00  0.00    +0.000 C 
ATOM      9  C   UNL     1       1.365  10.040  19.219  0.00  0.00    +0.000 A 
ATOM     10  C   UNL     1       1.791   9.816  17.913  0.00  0.00    +0.000 A 
ATOM     11  N   UNL     1       2.223   8.610  17.469  0.00  0.00    +0.000 NA
ATOM     12  C   UNL     1       2.206   7.616  18.396  0.00  0.00    +0.000 A 
ATOM     13  C   UNL     1       1.829   7.843  19.712  0.00  0.00    +0.000 A 
ATOM     14  N   UNL     1       1.393   9.053  20.150  0.00  0.00    +0.000 NA
ENDBRANCH   1  12
BRANCH   7  15
ATOM     15  C   UNL     1       4.009   3.409  17.846  0.00  0.00    +0.000 A 
ATOM     16  C   UNL     1       3.482   2.138  17.704  0.00  0.00    +0.000 A 
ATOM     17  C   UNL     1       3.714   1.319  18.846  0.00  0.00    +0.000 A 
ATOM     18  C   UNL     1       4.407   1.990  19.827  0.00  0.00    +0.000 A 
ATOM     19  S   UNL     1       4.771   3.596  19.374  0.00  0.00    +0.000 S 
ENDBRANCH   7  15
TORSDOF 2
ENDMDL
MODEL 5
REMARK VINA RESULT:      -5.9      2.523      6.178
REMARK  Name = 
REMARK  3 active torsions:
REMARK  status: ('A' for Active; 'I' for Inactive)
REMARK    1  A    between atoms: C_1  and  C_2
REMARK    2  A    between atoms: C_5  and  C_6
REMARK    3  A    between atoms: C_12  and  C_13
REMARK                            x       y       z     vdW  Elec       q    Type
REMARK                         _______ _______ _______ _____ _____    ______ ____
ROOT
ATOM      1  C   UNL     1       3.520   6.007  19.157  0.00  0.00    +0.000 C 
ATOM      2  O   UNL     1       4.619   6.124  19.698  0.00  0.00    +0.000 OA
ATOM      3  N   UNL     1       3.210   4.927  18.333  0.00  0.00    +0.000 N 
ATOM      4  C   UNL     1       1.938   4.614  17.704  0.00  0.00    +0.000 C 
ATOM      5  C   UNL     1       1.820   3.112  17.868  0.00  0.00    +0.000 C 
ATOM      6  C   UNL     1       3.256   2.618  17.757  0.00  0.00    +0.000 C 
ATOM      7  C   UNL     1       4.121   3.789  18.255  0.00  0.00    +0.000 C 
ENDROOT
BRANCH   1  12
ATOM      8  C   UNL     1       0.001  10.210  20.565  0.00  0.00    +0.000 C 
ATOM      9  C   UNL     1       0.839   9.040  20.165  0.00  0.00    +0.000 A 
ATOM     10  C   UNL     1       1.017   7.947  21.010  0.00  0.00    +0.000 A 
ATOM     11  N   UNL     1       1.826   6.902  20.712  0.00  0.00    +0.000 NA
ATOM     12  C   UNL     1       2.468   6.993  19.517  0.00  0.00    +0.000 A 
ATOM     13  C   UNL     1       2.258   8.055  18.648  0.00  0.00    +0.000 A 
ATOM     14  N   UNL     1       1.449   9.102  18.954  0.00  0.00    +0.000 NA
ENDBRANCH   1  12
BRANCH   7  15
ATOM     15  C   UNL     1       5.258   4.066  17.304  0.00  0.00    +0.000 A 
ATOM     16  C   UNL     1       6.569   4.409  17.577  0.00  0.00    +0.000 A 
ATOM     17  C   UNL     1       7.338   4.613  16.396  0.00  0.00    +0.000 A 
ATOM     18  C   UNL     1       6.590   4.423  15.256  0.00  0.00    +0.000 A 
ATOM     19  S   UNL     1       4.972   4.006  15.611  0.00  0.00    +0.000 S 
ENDBRANCH   7  15
TORSDOF 2
ENDMDL
MODEL 6
REMARK VINA RESULT:      -5.9      2.690      6.253
REMARK  Name = 
REMARK  3 active torsions:
REMARK  status: ('A' for Active; 'I' for Inactive)
REMARK    1  A    between atoms: C_1  and  C_2
REMARK    2  A    between atoms: C_5  and  C_6
REMARK    3  A    between atoms: C_12  and  C_13
REMARK                            x       y       z     vdW  Elec       q    Type
REMARK                         _______ _______ _______ _____ _____    ______ ____
ROOT
ATOM      1  C   UNL     1       3.797   6.698  18.051  0.00  0.00    +0.000 C 
ATOM      2  O   UNL     1       4.986   6.993  18.170  0.00  0.00    +0.000 OA
ATOM      3  N   UNL     1       3.383   5.417  17.692  0.00  0.00    +0.000 N 
ATOM      4  C   UNL     1       2.026   4.906  17.601  0.00  0.00    +0.000 C 
ATOM      5  C   UNL     1       2.127   3.516  18.198  0.00  0.00    +0.000 C 
ATOM      6  C   UNL     1       3.514   3.042  17.786  0.00  0.00    +0.000 C 
ATOM      7  C   UNL     1       4.352   4.326  17.650  0.00  0.00    +0.000 C 
ENDROOT
BRANCH   1  12
ATOM      8  C   UNL     1      -0.453  10.104  19.589  0.00  0.00    +0.000 C 
ATOM      9  C   UNL     1       0.738   9.291  19.199  0.00  0.00    +0.000 A 
ATOM     10  C   UNL     1       1.290   9.374  17.922  0.00  0.00    +0.000 A 
ATOM     11  N   UNL     1       2.325   8.602  17.509  0.00  0.00    +0.000 NA
ATOM     12  C   UNL     1       2.793   7.724  18.435  0.00  0.00    +0.000 A 
ATOM     13  C   UNL     1       2.281   7.671  19.724  0.00  0.00    +0.000 A 
ATOM     14  N   UNL     1       1.241   8.443  20.131  0.00  0.00    +0.000 NA
ENDBRANCH   1  12
BRANCH   7  15
ATOM     15  C   UNL     1       5.124   4.334  16.356  0.00  0.00    +0.000 A 
ATOM     16  C   UNL     1       4.673   4.155  15.061  0.00  0.00    +0.000 A 
ATOM     17  C   UNL     1       5.725   4.211  14.103  0.00  0.00    +0.000 A 
ATOM     18  C   UNL     1       6.949   4.427  14.694  0.00  0.00    +0.000 A 
ATOM     19  S   UNL     1       6.827   4.558  16.393  0.00  0.00    +0.000 S 
ENDBRANCH   7  15
TORSDOF 2
ENDMDL
MODEL 7
REMARK VINA RESULT:      -5.7      2.578      6.178
REMARK  Name = 
REMARK  3 active torsions:
REMARK  status: ('A' for Active; 'I' for Inactive)
REMARK    1  A    between atoms: C_1  and  C_2
REMARK    2  A    between atoms: C_5  and  C_6
REMARK    3  A    between atoms: C_12  and  C_13
REMARK                            x       y       z     vdW  Elec       q    Type
REMARK                         _______ _______ _______ _____ _____    ______ ____
ROOT
ATOM      1  C   UNL     1       5.303   4.370  18.699  0.00  0.00    +0.000 C 
ATOM      2  O   UNL     1       6.079   4.410  19.654  0.00  0.00    +0.000 OA
ATOM      3  N   UNL     1       5.692   4.738  17.412  0.00  0.00    +0.000 N 
ATOM      4  C   UNL     1       4.919   4.659  16.184  0.00  0.00    +0.000 C 
ATOM      5  C   UNL     1       5.922   4.164  15.162  0.00  0.00    +0.000 C 
ATOM      6  C   UNL     1       7.234   4.801  15.600  0.00  0.00    +0.000 C 
ATOM      7  C   UNL     1       7.102   4.984  17.122  0.00  0.00    +0.000 C 
ENDROOT
BRANCH   1  12
ATOM      8  C   UNL     1       0.195   1.947  18.946  0.00  0.00    +0.000 C 
ATOM      9  C   UNL     1       1.542   2.592  18.993  0.00  0.00    +0.000 A 
ATOM     10  C   UNL     1       1.686   3.967  19.164  0.00  0.00    +0.000 A 
ATOM     11  N   UNL     1       2.886   4.596  19.140  0.00  0.00    +0.000 NA
ATOM     12  C   UNL     1       3.957   3.785  18.930  0.00  0.00    +0.000 A 
ATOM     13  C   UNL     1       3.825   2.408  18.808  0.00  0.00    +0.000 A 
ATOM     14  N   UNL     1       2.620   1.785  18.828  0.00  0.00    +0.000 NA
ENDBRANCH   1  12
BRANCH   7  15
ATOM     15  C   UNL     1       7.508   6.374  17.539  0.00  0.00    +0.000 A 
ATOM     16  C   UNL     1       7.336   7.576  16.877  0.00  0.00    +0.000 A 
ATOM     17  C   UNL     1       7.883   8.679  17.593  0.00  0.00    +0.000 A 
ATOM     18  C   UNL     1       8.460   8.285  18.779  0.00  0.00    +0.000 A 
ATOM     19  S   UNL     1       8.344   6.598  19.022  0.00  0.00    +0.000 S 
ENDBRANCH   7  15
TORSDOF 2
ENDMDL
MODEL 8
REMARK VINA RESULT:      -5.6      2.508      6.395
REMARK  Name = 
REMARK  3 active torsions:
REMARK  status: ('A' for Active; 'I' for Inactive)
REMARK    1  A    between atoms: C_1  and  C_2
REMARK    2  A    between atoms: C_5  and  C_6
REMARK    3  A    between atoms: C_12  and  C_13
REMARK                            x       y       z     vdW  Elec       q    Type
REMARK                         _______ _______ _______ _____ _____    ______ ____
ROOT
ATOM      1  C   UNL     1       4.119   4.993  17.915  0.00  0.00    +0.000 C 
ATOM      2  O   UNL     1       3.349   5.383  17.036  0.00  0.00    +0.000 OA
ATOM      3  N   UNL     1       5.498   5.167  17.822  0.00  0.00    +0.000 N 
ATOM      4  C   UNL     1       6.512   4.841  18.811  0.00  0.00    +0.000 C 
ATOM      5  C   UNL     1       7.464   6.019  18.748  0.00  0.00    +0.000 C 
ATOM      6  C   UNL     1       7.445   6.425  17.280  0.00  0.00    +0.000 C 
ATOM      7  C   UNL     1       6.055   6.010  16.768  0.00  0.00    +0.000 C 
ENDROOT
BRANCH   1  12
ATOM      8  C   UNL     1       1.392   2.601  22.259  0.00  0.00    +0.000 C 
ATOM      9  C   UNL     1       2.197   3.255  21.183  0.00  0.00    +0.000 A 
ATOM     10  C   UNL     1       2.245   4.641  21.049  0.00  0.00    +0.000 A 
ATOM     11  N   UNL     1       2.904   5.267  20.044  0.00  0.00    +0.000 NA
ATOM     12  C   UNL     1       3.521   4.441  19.158  0.00  0.00    +0.000 A 
ATOM     13  C   UNL     1       3.518   3.062  19.313  0.00  0.00    +0.000 A 
ATOM     14  N   UNL     1       2.852   2.440  20.319  0.00  0.00    +0.000 NA
ENDBRANCH   1  12
BRANCH   7  15
ATOM     15  C   UNL     1       6.159   5.256  15.467  0.00  0.00    +0.000 A 
ATOM     16  C   UNL     1       5.285   4.342  14.907  0.00  0.00    +0.000 A 
ATOM     17  C   UNL     1       5.755   3.827  13.665  0.00  0.00    +0.000 A 
ATOM     18  C   UNL     1       6.975   4.359  13.315  0.00  0.00    +0.000 A 
ATOM     19  S   UNL     1       7.549   5.470  14.479  0.00  0.00    +0.000 S 
ENDBRANCH   7  15
TORSDOF 2
ENDMDL
MODEL 9
REMARK VINA RESULT:      -5.5      2.508      6.127
REMARK  Name = 
REMARK  3 active torsions:
REMARK  status: ('A' for Active; 'I' for Inactive)
REMARK    1  A    between atoms: C_1  and  C_2
REMARK    2  A    between atoms: C_5  and  C_6
REMARK    3  A    between atoms: C_12  and  C_13
REMARK                            x       y       z     vdW  Elec       q    Type
REMARK                         _______ _______ _______ _____ _____    ______ ____
ROOT
ATOM      1  C   UNL     1       5.285   4.176  18.215  0.00  0.00    +0.000 C 
ATOM      2  O   UNL     1       6.004   4.131  19.213  0.00  0.00    +0.000 OA
ATOM      3  N   UNL     1       5.744   4.662  16.992  0.00  0.00    +0.000 N 
ATOM      4  C   UNL     1       5.044   4.693  15.719  0.00  0.00    +0.000 C 
ATOM      5  C   UNL     1       6.110   4.299  14.716  0.00  0.00    +0.000 C 
ATOM      6  C   UNL     1       7.388   4.899  15.287  0.00  0.00    +0.000 C 
ATOM      7  C   UNL     1       7.165   4.940  16.809  0.00  0.00    +0.000 C 
ENDROOT
BRANCH   1  12
ATOM      8  C   UNL     1       0.107   2.113  19.194  0.00  0.00    +0.000 C 
ATOM      9  C   UNL     1       1.459   2.632  18.827  0.00  0.00    +0.000 A 
ATOM     10  C   UNL     1       2.542   1.777  18.637  0.00  0.00    +0.000 A 
ATOM     11  N   UNL     1       3.797   2.215  18.374  0.00  0.00    +0.000 NA
ATOM     12  C   UNL     1       3.934   3.566  18.312  0.00  0.00    +0.000 A 
ATOM     13  C   UNL     1       2.850   4.423  18.451  0.00  0.00    +0.000 A 
ATOM     14  N   UNL     1       1.596   3.978  18.719  0.00  0.00    +0.000 NA
ENDBRANCH   1  12
BRANCH   7  15
ATOM     15  C   UNL     1       7.533   6.289  17.374  0.00  0.00    +0.000 A 
ATOM     16  C   UNL     1       7.409   7.544  16.806  0.00  0.00    +0.000 A 
ATOM     17  C   UNL     1       7.895   8.578  17.656  0.00  0.00    +0.000 A 
ATOM     18  C   UNL     1       8.378   8.082  18.845  0.00  0.00    +0.000 A 
ATOM     19  S   UNL     1       8.250   6.381  18.932  0.00  0.00    +0.000 S 
ENDBRANCH   7  15
TORSDOF 2
ENDMDL
