MODEL 1
REMARK VINA RESULT:      -5.8      0.000      0.000
REMARK  Name = 
REMARK  16 active torsions:
REMARK  status: ('A' for Active; 'I' for Inactive)
REMARK    1  A    between atoms: C_1  and  C_2
REMARK    2  A    between atoms: C_3  and  C_4
REMARK    3  A    between atoms: C_5  and  S_6
REMARK    4  A    between atoms: S_6  and  N_9
REMARK    5  A    between atoms: N_9  and  C_10
REMARK    6  A    between atoms: N_9  and  O_14
REMARK    7  A    between atoms: C_10  and  C_11
REMARK    8  A    between atoms: C_11  and  C_12
REMARK    9  A    between atoms: C_12  and  N_13
REMARK   10  A    between atoms: O_14  and  C_15
REMARK   11  A    between atoms: C_15  and  C_16
REMARK   12  A    between atoms: C_16  and  C_17
REMARK   13  A    between atoms: C_17  and  N_18
REMARK   14  A    between atoms: C_19  and  C_20
REMARK   15  A    between atoms: C_24  and  C_25
REMARK   16  A    between atoms: C_24  and  C_26
REMARK                            x       y       z     vdW  Elec       q    Type
REMARK                         _______ _______ _______ _____ _____    ______ ____
ROOT
ATOM      1  S   UNL     1       5.273   4.913  17.391  0.00  0.00    +0.000 S 
ATOM      2  O   UNL     1       6.400   4.403  18.299  0.00  0.00    +0.000 OA
ATOM      3  O   UNL     1       5.176   3.640  16.547  0.00  0.00    +0.000 OA
ENDROOT
BRANCH   1   8
ATOM      4  C   UNL     1       1.261   4.158  21.040  0.00  0.00    +0.000 C 
ATOM      5  C   UNL     1       2.056   5.034  20.123  0.00  0.00    +0.000 A 
ATOM      6  C   UNL     1       3.133   4.542  19.330  0.00  0.00    +0.000 A 
ATOM      7  C   UNL     1       3.623   3.131  19.543  0.00  0.00    +0.000 C 
ATOM      8  C   UNL     1       3.751   5.405  18.356  0.00  0.00    +0.000 A 
ATOM      9  C   UNL     1       3.194   6.696  18.177  0.00  0.00    +0.000 A 
ATOM     10  C   UNL     1       3.545   7.601  17.023  0.00  0.00    +0.000 C 
ATOM     11  C   UNL     1       2.276   7.211  19.098  0.00  0.00    +0.000 A 
ATOM     12  C   UNL     1       1.725   6.397  20.093  0.00  0.00    +0.000 A 
ATOM     13  O   UNL     1       0.892   6.954  21.035  0.00  0.00    +0.000 OA
ATOM     14  C   UNL     1       0.890   8.333  21.291  0.00  0.00    +0.000 C 
ATOM     15  C   UNL     1       2.173   8.747  22.069  0.00  0.00    +0.000 C 
ATOM     16  C   UNL     1      -0.321   8.754  22.128  0.00  0.00    +0.000 C 
ATOM     17  C   UNL     1       0.773   9.039  19.939  0.00  0.00    +0.000 C 
ATOM     18  C   UNL     1       1.947   8.690  19.068  0.00  0.00    +0.000 C 
ENDBRANCH   1   8
BRANCH   1  19
ATOM     19  N   UNL     1       6.034   6.120  16.247  0.00  0.00    +0.000 NA
BRANCH  19  20
ATOM     20  C   UNL     1       7.480   6.392  16.526  0.00  0.00    +0.000 C 
BRANCH  20  21
ATOM     21  C   UNL     1       7.629   7.732  17.242  0.00  0.00    +0.000 C 
BRANCH  21  22
ATOM     22  C   UNL     1       8.262   7.817  18.617  0.00  0.00    +0.000 C 
BRANCH  22  23
ATOM     23  N   UNL     1       8.292   6.497  19.223  0.00  0.00    +0.000 NA
ATOM     24  H   UNL     1       7.374   6.029  19.034  0.00  0.00    +0.000 HD
ATOM     25  H   UNL     1       8.409   6.605  20.254  0.00  0.00    +0.000 HD
ENDBRANCH  22  23
ENDBRANCH  21  22
ENDBRANCH  20  21
ENDBRANCH  19  20
BRANCH  19  26
ATOM     26  O   UNL     1       5.915   5.708  14.942  0.00  0.00    +0.000 OA
BRANCH  26  27
ATOM     27  C   UNL     1       7.107   5.044  14.547  0.00  0.00    +0.000 C 
BRANCH  27  28
ATOM     28  C   UNL     1       7.378   5.081  13.072  0.00  0.00    +0.000 C 
BRANCH  28  29
ATOM     29  C   UNL     1       6.802   3.833  12.467  0.00  0.00    +0.000 C 
BRANCH  29  30
ATOM     30  N   UNL     1       5.925   3.192  13.424  0.00  0.00    +0.000 NA
ATOM     31  H   UNL     1       4.946   3.249  13.059  0.00  0.00    +0.000 HD
ATOM     32  H   UNL     1       5.979   3.751  14.302  0.00  0.00    +0.000 HD
ENDBRANCH  29  30
ENDBRANCH  28  29
ENDBRANCH  27  28
ENDBRANCH  26  27
ENDBRANCH  19  26
ENDBRANCH   1  19
TORSDOF 11
ENDMDL
MODEL 2
REMARK VINA RESULT:      -5.7      2.560      4.264
REMARK  Name = 
REMARK  16 active torsions:
REMARK  status: ('A' for Active; 'I' for Inactive)
REMARK    1  A    between atoms: C_1  and  C_2
REMARK    2  A    between atoms: C_3  and  C_4
REMARK    3  A    between atoms: C_5  and  S_6
REMARK    4  A    between atoms: S_6  and  N_9
REMARK    5  A    between atoms: N_9  and  C_10
REMARK    6  A    between atoms: N_9  and  O_14
REMARK    7  A    between atoms: C_10  and  C_11
REMARK    8  A    between atoms: C_11  and  C_12
REMARK    9  A    between atoms: C_12  and  N_13
REMARK   10  A    between atoms: O_14  and  C_15
REMARK   11  A    between atoms: C_15  and  C_16
REMARK   12  A    between atoms: C_16  and  C_17
REMARK   13  A    between atoms: C_17  and  N_18
REMARK   14  A    between atoms: C_19  and  C_20
REMARK   15  A    between atoms: C_24  and  C_25
REMARK   16  A    between atoms: C_24  and  C_26
REMARK                            x       y       z     vdW  Elec       q    Type
REMARK                         _______ _______ _______ _____ _____    ______ ____
ROOT
ATOM      1  S   UNL     1       3.686   6.102  18.685  0.00  0.00    +0.000 S 
ATOM      2  O   UNL     1       4.749   6.724  17.770  0.00  0.00    +0.000 OA
ATOM      3  O   UNL     1       4.669   5.654  19.769  0.00  0.00    +0.000 OA
ENDROOT
BRANCH   1   8
ATOM      4  C   UNL     1      -0.277   8.082  21.905  0.00  0.00    +0.000 C 
ATOM      5  C   UNL     1       0.694   8.227  20.774  0.00  0.00    +0.000 A 
ATOM      6  C   UNL     1       1.580   7.182  20.381  0.00  0.00    +0.000 A 
ATOM      7  C   UNL     1       1.688   5.944  21.237  0.00  0.00    +0.000 C 
ATOM      8  C   UNL     1       2.375   7.334  19.190  0.00  0.00    +0.000 A 
ATOM      9  C   UNL     1       2.173   8.501  18.412  0.00  0.00    +0.000 A 
ATOM     10  C   UNL     1       2.716   8.675  17.015  0.00  0.00    +0.000 C 
ATOM     11  C   UNL     1       1.449   9.584  18.924  0.00  0.00    +0.000 A 
ATOM     12  C   UNL     1       0.733   9.467  20.119  0.00  0.00    +0.000 A 
ATOM     13  O   UNL     1       0.103  10.573  20.638  0.00  0.00    +0.000 OA
ATOM     14  C   UNL     1       0.472  11.873  20.262  0.00  0.00    +0.000 C 
ATOM     15  C   UNL     1       1.841  12.259  20.895  0.00  0.00    +0.000 C 
ATOM     16  C   UNL     1      -0.561  12.910  20.712  0.00  0.00    +0.000 C 
ATOM     17  C   UNL     1       0.505  11.903  18.733  0.00  0.00    +0.000 C 
ATOM     18  C   UNL     1       1.521  10.923  18.216  0.00  0.00    +0.000 C 
ENDBRANCH   1   8
BRANCH   1  19
ATOM     19  N   UNL     1       3.179   4.531  17.899  0.00  0.00    +0.000 NA
BRANCH  19  20
ATOM     20  C   UNL     1       1.698   4.380  17.745  0.00  0.00    +0.000 C 
BRANCH  20  21
ATOM     21  C   UNL     1       1.179   3.320  18.715  0.00  0.00    +0.000 C 
BRANCH  21  22
ATOM     22  C   UNL     1       2.112   2.284  19.311  0.00  0.00    +0.000 C 
BRANCH  22  23
ATOM     23  N   UNL     1       2.720   1.505  18.248  0.00  0.00    +0.000 NA
ATOM     24  H   UNL     1       3.441   2.100  17.776  0.00  0.00    +0.000 HD
ATOM     25  H   UNL     1       1.983   1.253  17.554  0.00  0.00    +0.000 HD
ENDBRANCH  22  23
ENDBRANCH  21  22
ENDBRANCH  20  21
ENDBRANCH  19  20
BRANCH  19  26
ATOM     26  O   UNL     1       3.760   4.387  16.662  0.00  0.00    +0.000 OA
BRANCH  26  27
ATOM     27  C   UNL     1       4.941   3.607  16.783  0.00  0.00    +0.000 C 
BRANCH  27  28
ATOM     28  C   UNL     1       6.090   4.088  15.948  0.00  0.00    +0.000 C 
BRANCH  28  29
ATOM     29  C   UNL     1       7.213   4.451  16.878  0.00  0.00    +0.000 C 
BRANCH  29  30
ATOM     30  N   UNL     1       6.774   4.299  18.249  0.00  0.00    +0.000 NA
ATOM     31  H   UNL     1       7.536   3.822  18.784  0.00  0.00    +0.000 HD
ATOM     32  H   UNL     1       5.944   3.669  18.230  0.00  0.00    +0.000 HD
ENDBRANCH  29  30
ENDBRANCH  28  29
ENDBRANCH  27  28
ENDBRANCH  26  27
ENDBRANCH  19  26
ENDBRANCH   1  19
TORSDOF 11
ENDMDL
MODEL 3
REMARK VINA RESULT:      -5.6      2.910      5.108
REMARK  Name = 
REMARK  16 active torsions:
REMARK  status: ('A' for Active; 'I' for Inactive)
REMARK    1  A    between atoms: C_1  and  C_2
REMARK    2  A    between atoms: C_3  and  C_4
REMARK    3  A    between atoms: C_5  and  S_6
REMARK    4  A    between atoms: S_6  and  N_9
REMARK    5  A    between atoms: N_9  and  C_10
REMARK    6  A    between atoms: N_9  and  O_14
REMARK    7  A    between atoms: C_10  and  C_11
REMARK    8  A    between atoms: C_11  and  C_12
REMARK    9  A    between atoms: C_12  and  N_13
REMARK   10  A    between atoms: O_14  and  C_15
REMARK   11  A    between atoms: C_15  and  C_16
REMARK   12  A    between atoms: C_16  and  C_17
REMARK   13  A    between atoms: C_17  and  N_18
REMARK   14  A    between atoms: C_19  and  C_20
REMARK   15  A    between atoms: C_24  and  C_25
REMARK   16  A    between atoms: C_24  and  C_26
REMARK                            x       y       z     vdW  Elec       q    Type
REMARK                         _______ _______ _______ _____ _____    ______ ____
ROOT
ATOM      1  S   UNL     1       2.485   5.542  19.071  0.00  0.00    +0.000 S 
ATOM      2  O   UNL     1       1.458   4.694  19.833  0.00  0.00    +0.000 OA
ATOM      3  O   UNL     1       2.236   4.887  17.710  0.00  0.00    +0.000 OA
ENDROOT
BRANCH   1   8
ATOM      4  C   UNL     1       2.729  10.765  17.443  0.00  0.00    +0.000 C 
ATOM      5  C   UNL     1       2.177   9.686  18.321  0.00  0.00    +0.000 A 
ATOM      6  C   UNL     1       2.593   8.326  18.226  0.00  0.00    +0.000 A 
ATOM      7  C   UNL     1       3.487   7.905  17.086  0.00  0.00    +0.000 C 
ATOM      8  C   UNL     1       2.136   7.372  19.204  0.00  0.00    +0.000 A 
ATOM      9  C   UNL     1       1.347   7.858  20.275  0.00  0.00    +0.000 A 
ATOM     10  C   UNL     1       1.028   7.051  21.509  0.00  0.00    +0.000 C 
ATOM     11  C   UNL     1       0.798   9.145  20.231  0.00  0.00    +0.000 A 
ATOM     12  C   UNL     1       1.182  10.054  19.241  0.00  0.00    +0.000 A 
ATOM     13  O   UNL     1       0.563  11.280  19.174  0.00  0.00    +0.000 OA
ATOM     14  C   UNL     1      -0.687  11.505  19.770  0.00  0.00    +0.000 C 
ATOM     15  C   UNL     1      -1.815  10.803  18.959  0.00  0.00    +0.000 C 
ATOM     16  C   UNL     1      -1.022  12.997  19.843  0.00  0.00    +0.000 C 
ATOM     17  C   UNL     1      -0.595  10.992  21.208  0.00  0.00    +0.000 C 
ATOM     18  C   UNL     1      -0.291   9.520  21.216  0.00  0.00    +0.000 C 
ENDBRANCH   1   8
BRANCH   1  19
ATOM     19  N   UNL     1       4.134   4.910  19.547  0.00  0.00    +0.000 NA
BRANCH  19  20
ATOM     20  C   UNL     1       4.562   3.695  18.783  0.00  0.00    +0.000 C 
BRANCH  20  21
ATOM     21  C   UNL     1       3.963   2.443  19.418  0.00  0.00    +0.000 C 
BRANCH  21  22
ATOM     22  C   UNL     1       3.191   1.438  18.586  0.00  0.00    +0.000 C 
BRANCH  22  23
ATOM     23  N   UNL     1       1.822   1.892  18.418  0.00  0.00    +0.000 NA
ATOM     24  H   UNL     1       1.842   2.908  18.166  0.00  0.00    +0.000 HD
ATOM     25  H   UNL     1       1.319   1.780  19.325  0.00  0.00    +0.000 HD
ENDBRANCH  22  23
ENDBRANCH  21  22
ENDBRANCH  20  21
ENDBRANCH  19  20
BRANCH  19  26
ATOM     26  O   UNL     1       5.098   5.878  19.395  0.00  0.00    +0.000 OA
BRANCH  26  27
ATOM     27  C   UNL     1       6.021   5.472  18.395  0.00  0.00    +0.000 C 
BRANCH  27  28
ATOM     28  C   UNL     1       7.005   6.530  17.993  0.00  0.00    +0.000 C 
BRANCH  28  29
ATOM     29  C   UNL     1       8.163   6.467  18.949  0.00  0.00    +0.000 C 
BRANCH  29  30
ATOM     30  N   UNL     1       7.856   5.542  20.019  0.00  0.00    +0.000 NA
ATOM     31  H   UNL     1       7.938   6.056  20.927  0.00  0.00    +0.000 HD
ATOM     32  H   UNL     1       8.590   4.802  19.996  0.00  0.00    +0.000 HD
ENDBRANCH  29  30
ENDBRANCH  28  29
ENDBRANCH  27  28
ENDBRANCH  26  27
ENDBRANCH  19  26
ENDBRANCH   1  19
TORSDOF 11
ENDMDL
MODEL 4
REMARK VINA RESULT:      -5.5      5.726      9.091
REMARK  Name = 
REMARK  16 active torsions:
REMARK  status: ('A' for Active; 'I' for Inactive)
REMARK    1  A    between atoms: C_1  and  C_2
REMARK    2  A    between atoms: C_3  and  C_4
REMARK    3  A    between atoms: C_5  and  S_6
REMARK    4  A    between atoms: S_6  and  N_9
REMARK    5  A    between atoms: N_9  and  C_10
REMARK    6  A    between atoms: N_9  and  O_14
REMARK    7  A    between atoms: C_10  and  C_11
REMARK    8  A    between atoms: C_11  and  C_12
REMARK    9  A    between atoms: C_12  and  N_13
REMARK   10  A    between atoms: O_14  and  C_15
REMARK   11  A    between atoms: C_15  and  C_16
REMARK   12  A    between atoms: C_16  and  C_17
REMARK   13  A    between atoms: C_17  and  N_18
REMARK   14  A    between atoms: C_19  and  C_20
REMARK   15  A    between atoms: C_24  and  C_25
REMARK   16  A    between atoms: C_24  and  C_26
REMARK                            x       y       z     vdW  Elec       q    Type
REMARK                         _______ _______ _______ _____ _____    ______ ____
ROOT
ATOM      1  S   UNL     1       0.208  10.540  20.329  0.00  0.00    +0.000 S 
ATOM      2  O   UNL     1       1.569  10.357  21.014  0.00  0.00    +0.000 OA
ATOM      3  O   UNL     1      -0.299   9.128  20.627  0.00  0.00    +0.000 OA
ENDROOT
BRANCH   1   8
ATOM      4  C   UNL     1      -1.835  15.620  20.414  0.00  0.00    +0.000 C 
ATOM      5  C   UNL     1      -1.765  14.223  20.945  0.00  0.00    +0.000 A 
ATOM      6  C   UNL     1      -0.897  13.233  20.398  0.00  0.00    +0.000 A 
ATOM      7  C   UNL     1      -0.148  13.532  19.123  0.00  0.00    +0.000 C 
ATOM      8  C   UNL     1      -0.767  11.958  21.056  0.00  0.00    +0.000 A 
ATOM      9  C   UNL     1      -1.459  11.779  22.279  0.00  0.00    +0.000 A 
ATOM     10  C   UNL     1      -1.209  10.623  23.215  0.00  0.00    +0.000 C 
ATOM     11  C   UNL     1      -2.446  12.686  22.681  0.00  0.00    +0.000 A 
ATOM     12  C   UNL     1      -2.628  13.895  22.002  0.00  0.00    +0.000 A 
ATOM     13  O   UNL     1      -3.661  14.725  22.368  0.00  0.00    +0.000 OA
ATOM     14  C   UNL     1      -4.764  14.249  23.092  0.00  0.00    +0.000 C 
ATOM     15  C   UNL     1      -5.682  13.379  22.184  0.00  0.00    +0.000 C 
ATOM     16  C   UNL     1      -5.611  15.394  23.655  0.00  0.00    +0.000 C 
ATOM     17  C   UNL     1      -4.212  13.468  24.286  0.00  0.00    +0.000 C 
ATOM     18  C   UNL     1      -3.385  12.307  23.809  0.00  0.00    +0.000 C 
ENDBRANCH   1   8
BRANCH   1  19
ATOM     19  N   UNL     1       0.525  10.504  18.528  0.00  0.00    +0.000 NA
BRANCH  19  20
ATOM     20  C   UNL     1       1.895  10.025  18.163  0.00  0.00    +0.000 C 
BRANCH  20  21
ATOM     21  C   UNL     1       1.856   8.534  17.837  0.00  0.00    +0.000 C 
BRANCH  21  22
ATOM     22  C   UNL     1       2.671   7.537  18.637  0.00  0.00    +0.000 C 
BRANCH  22  23
ATOM     23  N   UNL     1       2.157   7.463  19.993  0.00  0.00    +0.000 NA
ATOM     24  H   UNL     1       2.621   6.658  20.476  0.00  0.00    +0.000 HD
ATOM     25  H   UNL     1       1.130   7.284  19.952  0.00  0.00    +0.000 HD
ENDBRANCH  22  23
ENDBRANCH  21  22
ENDBRANCH  20  21
ENDBRANCH  19  20
BRANCH  19  26
ATOM     26  O   UNL     1      -0.396   9.716  17.880  0.00  0.00    +0.000 OA
BRANCH  26  27
ATOM     27  C   UNL     1      -1.613  10.435  17.735  0.00  0.00    +0.000 C 
BRANCH  27  28
ATOM     28  C   UNL     1      -2.487   9.955  16.615  0.00  0.00    +0.000 C 
BRANCH  28  29
ATOM     29  C   UNL     1      -3.671  10.876  16.528  0.00  0.00    +0.000 C 
BRANCH  29  30
ATOM     30  N   UNL     1      -3.549  11.709  15.350  0.00  0.00    +0.000 NA
ATOM     31  H   UNL     1      -2.699  12.309  15.461  0.00  0.00    +0.000 HD
ATOM     32  H   UNL     1      -4.386  12.329  15.333  0.00  0.00    +0.000 HD
ENDBRANCH  29  30
ENDBRANCH  28  29
ENDBRANCH  27  28
ENDBRANCH  26  27
ENDBRANCH  19  26
ENDBRANCH   1  19
TORSDOF 11
ENDMDL
MODEL 5
REMARK VINA RESULT:      -5.5      2.571      4.863
REMARK  Name = 
REMARK  16 active torsions:
REMARK  status: ('A' for Active; 'I' for Inactive)
REMARK    1  A    between atoms: C_1  and  C_2
REMARK    2  A    between atoms: C_3  and  C_4
REMARK    3  A    between atoms: C_5  and  S_6
REMARK    4  A    between atoms: S_6  and  N_9
REMARK    5  A    between atoms: N_9  and  C_10
REMARK    6  A    between atoms: N_9  and  O_14
REMARK    7  A    between atoms: C_10  and  C_11
REMARK    8  A    between atoms: C_11  and  C_12
REMARK    9  A    between atoms: C_12  and  N_13
REMARK   10  A    between atoms: O_14  and  C_15
REMARK   11  A    between atoms: C_15  and  C_16
REMARK   12  A    between atoms: C_16  and  C_17
REMARK   13  A    between atoms: C_17  and  N_18
REMARK   14  A    between atoms: C_19  and  C_20
REMARK   15  A    between atoms: C_24  and  C_25
REMARK   16  A    between atoms: C_24  and  C_26
REMARK                            x       y       z     vdW  Elec       q    Type
REMARK                         _______ _______ _______ _____ _____    ______ ____
ROOT
ATOM      1  S   UNL     1       3.001   5.181  18.460  0.00  0.00    +0.000 S 
ATOM      2  O   UNL     1       1.769   4.287  18.266  0.00  0.00    +0.000 OA
ATOM      3  O   UNL     1       3.601   4.906  17.080  0.00  0.00    +0.000 OA
ENDROOT
BRANCH   1   8
ATOM      4  C   UNL     1       2.816  10.571  17.512  0.00  0.00    +0.000 C 
ATOM      5  C   UNL     1       2.384   9.354  18.268  0.00  0.00    +0.000 A 
ATOM      6  C   UNL     1       2.881   8.050  17.979  0.00  0.00    +0.000 A 
ATOM      7  C   UNL     1       3.737   7.841  16.754  0.00  0.00    +0.000 C 
ATOM      8  C   UNL     1       2.542   6.950  18.845  0.00  0.00    +0.000 A 
ATOM      9  C   UNL     1       1.782   7.241  20.005  0.00  0.00    +0.000 A 
ATOM     10  C   UNL     1       1.584   6.264  21.137  0.00  0.00    +0.000 C 
ATOM     11  C   UNL     1       1.150   8.480  20.152  0.00  0.00    +0.000 A 
ATOM     12  C   UNL     1       1.419   9.532  19.272  0.00  0.00    +0.000 A 
ATOM     13  O   UNL     1       0.719  10.709  19.392  0.00  0.00    +0.000 OA
ATOM     14  C   UNL     1      -0.508  10.768  20.069  0.00  0.00    +0.000 C 
ATOM     15  C   UNL     1      -1.631  10.095  19.227  0.00  0.00    +0.000 C 
ATOM     16  C   UNL     1      -0.934  12.211  20.350  0.00  0.00    +0.000 C 
ATOM     17  C   UNL     1      -0.304  10.086  21.423  0.00  0.00    +0.000 C 
ATOM     18  C   UNL     1       0.094   8.650  21.227  0.00  0.00    +0.000 C 
ENDBRANCH   1   8
BRANCH   1  19
ATOM     19  N   UNL     1       4.120   4.282  19.593  0.00  0.00    +0.000 NA
BRANCH  19  20
ATOM     20  C   UNL     1       3.626   2.924  19.983  0.00  0.00    +0.000 C 
BRANCH  20  21
ATOM     21  C   UNL     1       2.881   3.003  21.314  0.00  0.00    +0.000 C 
BRANCH  21  22
ATOM     22  C   UNL     1       1.501   2.396  21.474  0.00  0.00    +0.000 C 
BRANCH  22  23
ATOM     23  N   UNL     1       0.585   3.011  20.530  0.00  0.00    +0.000 NA
ATOM     24  H   UNL     1       0.525   4.033  20.749  0.00  0.00    +0.000 HD
ATOM     25  H   UNL     1      -0.359   2.584  20.652  0.00  0.00    +0.000 HD
ENDBRANCH  22  23
ENDBRANCH  21  22
ENDBRANCH  20  21
ENDBRANCH  19  20
BRANCH  19  26
ATOM     26  O   UNL     1       5.373   4.145  19.045  0.00  0.00    +0.000 OA
BRANCH  26  27
ATOM     27  C   UNL     1       6.150   5.294  19.354  0.00  0.00    +0.000 C 
BRANCH  27  28
ATOM     28  C   UNL     1       6.885   5.877  18.184  0.00  0.00    +0.000 C 
BRANCH  28  29
ATOM     29  C   UNL     1       7.105   4.778  17.184  0.00  0.00    +0.000 C 
BRANCH  29  30
ATOM     30  N   UNL     1       7.474   5.353  15.907  0.00  0.00    +0.000 NA
ATOM     31  H   UNL     1       7.849   4.587  15.301  0.00  0.00    +0.000 HD
ATOM     32  H   UNL     1       8.245   6.029  16.094  0.00  0.00    +0.000 HD
ENDBRANCH  29  30
ENDBRANCH  28  29
ENDBRANCH  27  28
ENDBRANCH  26  27
ENDBRANCH  19  26
ENDBRANCH   1  19
TORSDOF 11
ENDMDL
MODEL 6
REMARK VINA RESULT:      -5.5      2.442      4.044
REMARK  Name = 
REMARK  16 active torsions:
REMARK  status: ('A' for Active; 'I' for Inactive)
REMARK    1  A    between atoms: C_1  and  C_2
REMARK    2  A    between atoms: C_3  and  C_4
REMARK    3  A    between atoms: C_5  and  S_6
REMARK    4  A    between atoms: S_6  and  N_9
REMARK    5  A    between atoms: N_9  and  C_10
REMARK    6  A    between atoms: N_9  and  O_14
REMARK    7  A    between atoms: C_10  and  C_11
REMARK    8  A    between atoms: C_11  and  C_12
REMARK    9  A    between atoms: C_12  and  N_13
REMARK   10  A    between atoms: O_14  and  C_15
REMARK   11  A    between atoms: C_15  and  C_16
REMARK   12  A    between atoms: C_16  and  C_17
REMARK   13  A    between atoms: C_17  and  N_18
REMARK   14  A    between atoms: C_19  and  C_20
REMARK   15  A    between atoms: C_24  and  C_25
REMARK   16  A    between atoms: C_24  and  C_26
REMARK                            x       y       z     vdW  Elec       q    Type
REMARK                         _______ _______ _______ _____ _____    ______ ____
ROOT
ATOM      1  S   UNL     1       2.658   5.728  19.191  0.00  0.00    +0.000 S 
ATOM      2  O   UNL     1       2.882   5.141  20.590  0.00  0.00    +0.000 OA
ATOM      3  O   UNL     1       1.546   4.753  18.798  0.00  0.00    +0.000 OA
ENDROOT
BRANCH   1   8
ATOM      4  C   UNL     1       2.691  10.896  17.379  0.00  0.00    +0.000 C 
ATOM      5  C   UNL     1       2.164   9.821  18.278  0.00  0.00    +0.000 A 
ATOM      6  C   UNL     1       2.653   8.483  18.247  0.00  0.00    +0.000 A 
ATOM      7  C   UNL     1       3.606   8.069  17.153  0.00  0.00    +0.000 C 
ATOM      8  C   UNL     1       2.211   7.541  19.244  0.00  0.00    +0.000 A 
ATOM      9  C   UNL     1       1.361   8.023  20.270  0.00  0.00    +0.000 A 
ATOM     10  C   UNL     1       1.042   7.245  21.521  0.00  0.00    +0.000 C 
ATOM     11  C   UNL     1       0.750   9.277  20.160  0.00  0.00    +0.000 A 
ATOM     12  C   UNL     1       1.121  10.170  19.150  0.00  0.00    +0.000 A 
ATOM     13  O   UNL     1       0.442  11.358  19.017  0.00  0.00    +0.000 OA
ATOM     14  C   UNL     1      -0.837  11.538  19.563  0.00  0.00    +0.000 C 
ATOM     15  C   UNL     1      -1.899  10.750  18.742  0.00  0.00    +0.000 C 
ATOM     16  C   UNL     1      -1.250  13.013  19.569  0.00  0.00    +0.000 C 
ATOM     17  C   UNL     1      -0.768  11.083  21.021  0.00  0.00    +0.000 C 
ATOM     18  C   UNL     1      -0.391   9.630  21.094  0.00  0.00    +0.000 C 
ENDBRANCH   1   8
BRANCH   1  19
ATOM     19  N   UNL     1       4.074   5.187  18.168  0.00  0.00    +0.000 NA
BRANCH  19  20
ATOM     20  C   UNL     1       5.121   4.435  18.930  0.00  0.00    +0.000 C 
BRANCH  20  21
ATOM     21  C   UNL     1       6.254   5.379  19.327  0.00  0.00    +0.000 C 
BRANCH  21  22
ATOM     22  C   UNL     1       7.421   5.635  18.393  0.00  0.00    +0.000 C 
BRANCH  22  23
ATOM     23  N   UNL     1       7.972   4.369  17.942  0.00  0.00    +0.000 NA
ATOM     24  H   UNL     1       8.971   4.525  17.671  0.00  0.00    +0.000 HD
ATOM     25  H   UNL     1       7.440   4.053  17.102  0.00  0.00    +0.000 HD
ENDBRANCH  22  23
ENDBRANCH  21  22
ENDBRANCH  20  21
ENDBRANCH  19  20
BRANCH  19  26
ATOM     26  O   UNL     1       3.656   4.403  17.119  0.00  0.00    +0.000 OA
BRANCH  26  27
ATOM     27  C   UNL     1       4.782   4.002  16.352  0.00  0.00    +0.000 C 
BRANCH  27  28
ATOM     28  C   UNL     1       5.226   5.007  15.331  0.00  0.00    +0.000 C 
BRANCH  28  29
ATOM     29  C   UNL     1       6.451   4.462  14.652  0.00  0.00    +0.000 C 
BRANCH  29  30
ATOM     30  N   UNL     1       7.566   5.358  14.874  0.00  0.00    +0.000 NA
ATOM     31  H   UNL     1       7.558   6.082  14.119  0.00  0.00    +0.000 HD
ATOM     32  H   UNL     1       8.433   4.789  14.772  0.00  0.00    +0.000 HD
ENDBRANCH  29  30
ENDBRANCH  28  29
ENDBRANCH  27  28
ENDBRANCH  26  27
ENDBRANCH  19  26
ENDBRANCH   1  19
TORSDOF 11
ENDMDL
MODEL 7
REMARK VINA RESULT:      -5.3      6.061      9.679
REMARK  Name = 
REMARK  16 active torsions:
REMARK  status: ('A' for Active; 'I' for Inactive)
REMARK    1  A    between atoms: C_1  and  C_2
REMARK    2  A    between atoms: C_3  and  C_4
REMARK    3  A    between atoms: C_5  and  S_6
REMARK    4  A    between atoms: S_6  and  N_9
REMARK    5  A    between atoms: N_9  and  C_10
REMARK    6  A    between atoms: N_9  and  O_14
REMARK    7  A    between atoms: C_10  and  C_11
REMARK    8  A    between atoms: C_11  and  C_12
REMARK    9  A    between atoms: C_12  and  N_13
REMARK   10  A    between atoms: O_14  and  C_15
REMARK   11  A    between atoms: C_15  and  C_16
REMARK   12  A    between atoms: C_16  and  C_17
REMARK   13  A    between atoms: C_17  and  N_18
REMARK   14  A    between atoms: C_19  and  C_20
REMARK   15  A    between atoms: C_24  and  C_25
REMARK   16  A    between atoms: C_24  and  C_26
REMARK                            x       y       z     vdW  Elec       q    Type
REMARK                         _______ _______ _______ _____ _____    ______ ____
ROOT
ATOM      1  S   UNL     1       0.395  11.947  20.429  0.00  0.00    +0.000 S 
ATOM      2  O   UNL     1       1.009  12.652  19.213  0.00  0.00    +0.000 OA
ATOM      3  O   UNL     1       1.706  11.832  21.210  0.00  0.00    +0.000 OA
ENDROOT
BRANCH   1   8
ATOM      4  C   UNL     1      -2.955  16.253  20.896  0.00  0.00    +0.000 C 
ATOM      5  C   UNL     1      -2.540  14.864  21.268  0.00  0.00    +0.000 A 
ATOM      6  C   UNL     1      -1.403  14.220  20.698  0.00  0.00    +0.000 A 
ATOM      7  C   UNL     1      -0.687  14.874  19.542  0.00  0.00    +0.000 C 
ATOM      8  C   UNL     1      -0.972  12.947  21.216  0.00  0.00    +0.000 A 
ATOM      9  C   UNL     1      -1.663  12.429  22.339  0.00  0.00    +0.000 A 
ATOM     10  C   UNL     1      -1.166  11.263  23.157  0.00  0.00    +0.000 C 
ATOM     11  C   UNL     1      -2.883  12.982  22.744  0.00  0.00    +0.000 A 
ATOM     12  C   UNL     1      -3.344  14.181  22.194  0.00  0.00    +0.000 A 
ATOM     13  O   UNL     1      -4.585  14.654  22.551  0.00  0.00    +0.000 OA
ATOM     14  C   UNL     1      -5.559  13.812  23.107  0.00  0.00    +0.000 C 
ATOM     15  C   UNL     1      -6.148  12.863  22.022  0.00  0.00    +0.000 C 
ATOM     16  C   UNL     1      -6.720  14.608  23.712  0.00  0.00    +0.000 C 
ATOM     17  C   UNL     1      -4.890  13.049  24.251  0.00  0.00    +0.000 C 
ATOM     18  C   UNL     1      -3.751  12.221  23.727  0.00  0.00    +0.000 C 
ENDBRANCH   1   8
BRANCH   1  19
ATOM     19  N   UNL     1       0.059  10.224  19.915  0.00  0.00    +0.000 NA
BRANCH  19  20
ATOM     20  C   UNL     1       0.005   9.251  21.052  0.00  0.00    +0.000 C 
BRANCH  20  21
ATOM     21  C   UNL     1       1.354   8.550  21.201  0.00  0.00    +0.000 C 
BRANCH  21  22
ATOM     22  C   UNL     1       1.801   7.497  20.206  0.00  0.00    +0.000 C 
BRANCH  22  23
ATOM     23  N   UNL     1       2.131   8.129  18.941  0.00  0.00    +0.000 NA
ATOM     24  H   UNL     1       1.527   8.979  18.832  0.00  0.00    +0.000 HD
ATOM     25  H   UNL     1       1.917   7.462  18.168  0.00  0.00    +0.000 HD
ENDBRANCH  22  23
ENDBRANCH  21  22
ENDBRANCH  20  21
ENDBRANCH  19  20
BRANCH  19  26
ATOM     26  O   UNL     1      -1.121  10.138  19.216  0.00  0.00    +0.000 OA
BRANCH  26  27
ATOM     27  C   UNL     1      -0.841   9.861  17.851  0.00  0.00    +0.000 C 
BRANCH  27  28
ATOM     28  C   UNL     1      -2.023   9.991  16.937  0.00  0.00    +0.000 C 
BRANCH  28  29
ATOM     29  C   UNL     1      -2.599  11.366  17.124  0.00  0.00    +0.000 C 
BRANCH  29  30
ATOM     30  N   UNL     1      -1.525  12.328  17.246  0.00  0.00    +0.000 NA
ATOM     31  H   UNL     1      -1.466  12.626  18.248  0.00  0.00    +0.000 HD
ATOM     32  H   UNL     1      -1.798  13.156  16.676  0.00  0.00    +0.000 HD
ENDBRANCH  29  30
ENDBRANCH  28  29
ENDBRANCH  27  28
ENDBRANCH  26  27
ENDBRANCH  19  26
ENDBRANCH   1  19
TORSDOF 11
ENDMDL
MODEL 8
REMARK VINA RESULT:      -5.3      4.024      8.570
REMARK  Name = 
REMARK  16 active torsions:
REMARK  status: ('A' for Active; 'I' for Inactive)
REMARK    1  A    between atoms: C_1  and  C_2
REMARK    2  A    between atoms: C_3  and  C_4
REMARK    3  A    between atoms: C_5  and  S_6
REMARK    4  A    between atoms: S_6  and  N_9
REMARK    5  A    between atoms: N_9  and  C_10
REMARK    6  A    between atoms: N_9  and  O_14
REMARK    7  A    between atoms: C_10  and  C_11
REMARK    8  A    between atoms: C_11  and  C_12
REMARK    9  A    between atoms: C_12  and  N_13
REMARK   10  A    between atoms: O_14  and  C_15
REMARK   11  A    between atoms: C_15  and  C_16
REMARK   12  A    between atoms: C_16  and  C_17
REMARK   13  A    between atoms: C_17  and  N_18
REMARK   14  A    between atoms: C_19  and  C_20
REMARK   15  A    between atoms: C_24  and  C_25
REMARK   16  A    between atoms: C_24  and  C_26
REMARK                            x       y       z     vdW  Elec       q    Type
REMARK                         _______ _______ _______ _____ _____    ______ ____
ROOT
ATOM      1  S   UNL     1       0.953   8.728  20.778  0.00  0.00    +0.000 S 
ATOM      2  O   UNL     1      -0.359   8.026  21.150  0.00  0.00    +0.000 OA
ATOM      3  O   UNL     1       1.457   8.870  22.215  0.00  0.00    +0.000 OA
ENDROOT
BRANCH   1   8
ATOM      4  C   UNL     1       3.873   7.837  16.232  0.00  0.00    +0.000 C 
ATOM      5  C   UNL     1       3.416   7.437  17.600  0.00  0.00    +0.000 A 
ATOM      6  C   UNL     1       2.517   8.227  18.373  0.00  0.00    +0.000 A 
ATOM      7  C   UNL     1       2.143   9.607  17.890  0.00  0.00    +0.000 C 
ATOM      8  C   UNL     1       1.998   7.708  19.613  0.00  0.00    +0.000 A 
ATOM      9  C   UNL     1       2.352   6.383  19.967  0.00  0.00    +0.000 A 
ATOM     10  C   UNL     1       1.681   5.609  21.073  0.00  0.00    +0.000 C 
ATOM     11  C   UNL     1       3.382   5.715  19.294  0.00  0.00    +0.000 A 
ATOM     12  C   UNL     1       3.942   6.249  18.129  0.00  0.00    +0.000 A 
ATOM     13  O   UNL     1       5.009   5.612  17.541  0.00  0.00    +0.000 OA
ATOM     14  C   UNL     1       5.809   4.708  18.254  0.00  0.00    +0.000 C 
ATOM     15  C   UNL     1       6.719   5.462  19.267  0.00  0.00    +0.000 C 
ATOM     16  C   UNL     1       6.716   3.895  17.325  0.00  0.00    +0.000 C 
ATOM     17  C   UNL     1       4.864   3.719  18.940  0.00  0.00    +0.000 C 
ATOM     18  C   UNL     1       3.955   4.445  19.891  0.00  0.00    +0.000 C 
ENDBRANCH   1   8
BRANCH   1  19
ATOM     19  N   UNL     1       0.512  10.441  20.315  0.00  0.00    +0.000 NA
BRANCH  19  20
ATOM     20  C   UNL     1      -0.889  10.592  19.809  0.00  0.00    +0.000 C 
BRANCH  20  21
ATOM     21  C   UNL     1      -0.888  10.670  18.285  0.00  0.00    +0.000 C 
BRANCH  21  22
ATOM     22  C   UNL     1      -2.156  10.433  17.489  0.00  0.00    +0.000 C 
BRANCH  22  23
ATOM     23  N   UNL     1      -2.263  11.424  16.433  0.00  0.00    +0.000 NA
ATOM     24  H   UNL     1      -2.483  10.927  15.538  0.00  0.00    +0.000 HD
ATOM     25  H   UNL     1      -1.344  11.907  16.334  0.00  0.00    +0.000 HD
ENDBRANCH  22  23
ENDBRANCH  21  22
ENDBRANCH  20  21
ENDBRANCH  19  20
BRANCH  19  26
ATOM     26  O   UNL     1       0.685  11.300  21.374  0.00  0.00    +0.000 OA
BRANCH  26  27
ATOM     27  C   UNL     1      -0.393  12.225  21.411  0.00  0.00    +0.000 C 
BRANCH  27  28
ATOM     28  C   UNL     1      -0.912  12.516  22.788  0.00  0.00    +0.000 C 
BRANCH  28  29
ATOM     29  C   UNL     1      -1.730  11.336  23.230  0.00  0.00    +0.000 C 
BRANCH  29  30
ATOM     30  N   UNL     1      -0.860  10.198  23.442  0.00  0.00    +0.000 NA
ATOM     31  H   UNL     1      -0.557  10.202  24.444  0.00  0.00    +0.000 HD
ATOM     32  H   UNL     1      -0.019  10.348  22.846  0.00  0.00    +0.000 HD
ENDBRANCH  29  30
ENDBRANCH  28  29
ENDBRANCH  27  28
ENDBRANCH  26  27
ENDBRANCH  19  26
ENDBRANCH   1  19
TORSDOF 11
ENDMDL
MODEL 9
REMARK VINA RESULT:      -5.3      4.908      7.729
REMARK  Name = 
REMARK  16 active torsions:
REMARK  status: ('A' for Active; 'I' for Inactive)
REMARK    1  A    between atoms: C_1  and  C_2
REMARK    2  A    between atoms: C_3  and  C_4
REMARK    3  A    between atoms: C_5  and  S_6
REMARK    4  A    between atoms: S_6  and  N_9
REMARK    5  A    between atoms: N_9  and  C_10
REMARK    6  A    between atoms: N_9  and  O_14
REMARK    7  A    between atoms: C_10  and  C_11
REMARK    8  A    between atoms: C_11  and  C_12
REMARK    9  A    between atoms: C_12  and  N_13
REMARK   10  A    between atoms: O_14  and  C_15
REMARK   11  A    between atoms: C_15  and  C_16
REMARK   12  A    between atoms: C_16  and  C_17
REMARK   13  A    between atoms: C_17  and  N_18
REMARK   14  A    between atoms: C_19  and  C_20
REMARK   15  A    between atoms: C_24  and  C_25
REMARK   16  A    between atoms: C_24  and  C_26
REMARK                            x       y       z     vdW  Elec       q    Type
REMARK                         _______ _______ _______ _____ _____    ______ ____
ROOT
ATOM      1  S   UNL     1       1.038   9.863  18.556  0.00  0.00    +0.000 S 
ATOM      2  O   UNL     1       0.830   8.949  17.341  0.00  0.00    +0.000 OA
ATOM      3  O   UNL     1       2.335  10.494  18.045  0.00  0.00    +0.000 OA
ENDROOT
BRANCH   1   8
ATOM      4  C   UNL     1      -4.114  11.598  17.899  0.00  0.00    +0.000 C 
ATOM      5  C   UNL     1      -2.790  11.646  18.594  0.00  0.00    +0.000 A 
ATOM      6  C   UNL     1      -1.698  10.806  18.231  0.00  0.00    +0.000 A 
ATOM      7  C   UNL     1      -1.921   9.695  17.234  0.00  0.00    +0.000 C 
ATOM      8  C   UNL     1      -0.407  11.013  18.836  0.00  0.00    +0.000 A 
ATOM      9  C   UNL     1      -0.267  12.113  19.719  0.00  0.00    +0.000 A 
ATOM     10  C   UNL     1       1.065  12.622  20.210  0.00  0.00    +0.000 C 
ATOM     11  C   UNL     1      -1.394  12.789  20.201  0.00  0.00    +0.000 A 
ATOM     12  C   UNL     1      -2.662  12.541  19.668  0.00  0.00    +0.000 A 
ATOM     13  O   UNL     1      -3.758  13.158  20.221  0.00  0.00    +0.000 OA
ATOM     14  C   UNL     1      -3.725  13.690  21.518  0.00  0.00    +0.000 C 
ATOM     15  C   UNL     1      -3.736  12.551  22.579  0.00  0.00    +0.000 C 
ATOM     16  C   UNL     1      -4.930  14.596  21.792  0.00  0.00    +0.000 C 
ATOM     17  C   UNL     1      -2.474  14.564  21.611  0.00  0.00    +0.000 C 
ATOM     18  C   UNL     1      -1.242  13.734  21.376  0.00  0.00    +0.000 C 
ENDBRANCH   1   8
BRANCH   1  19
ATOM     19  N   UNL     1       1.602   8.788  19.924  0.00  0.00    +0.000 NA
BRANCH  19  20
ATOM     20  C   UNL     1       0.560   8.539  20.969  0.00  0.00    +0.000 C 
BRANCH  20  21
ATOM     21  C   UNL     1       0.807   9.441  22.176  0.00  0.00    +0.000 C 
BRANCH  21  22
ATOM     22  C   UNL     1      -0.246   9.611  23.253  0.00  0.00    +0.000 C 
BRANCH  22  23
ATOM     23  N   UNL     1      -0.644  11.005  23.331  0.00  0.00    +0.000 NA
ATOM     24  H   UNL     1      -1.689  11.045  23.395  0.00  0.00    +0.000 HD
ATOM     25  H   UNL     1      -0.341  11.489  22.458  0.00  0.00    +0.000 HD
ENDBRANCH  22  23
ENDBRANCH  21  22
ENDBRANCH  20  21
ENDBRANCH  19  20
BRANCH  19  26
ATOM     26  O   UNL     1       2.039   7.574  19.450  0.00  0.00    +0.000 OA
BRANCH  26  27
ATOM     27  C   UNL     1       1.969   6.609  20.491  0.00  0.00    +0.000 C 
BRANCH  27  28
ATOM     28  C   UNL     1       2.266   5.205  20.056  0.00  0.00    +0.000 C 
BRANCH  28  29
ATOM     29  C   UNL     1       2.748   5.256  18.634  0.00  0.00    +0.000 C 
BRANCH  29  30
ATOM     30  N   UNL     1       1.680   4.845  17.748  0.00  0.00    +0.000 NA
ATOM     31  H   UNL     1       1.541   5.596  17.033  0.00  0.00    +0.000 HD
ATOM     32  H   UNL     1       0.816   4.782  18.327  0.00  0.00    +0.000 HD
ENDBRANCH  29  30
ENDBRANCH  28  29
ENDBRANCH  27  28
ENDBRANCH  26  27
ENDBRANCH  19  26
ENDBRANCH   1  19
TORSDOF 11
ENDMDL
