MODEL 1
REMARK VINA RESULT:      -8.2      0.000      0.000
REMARK  Name = 
REMARK  3 active torsions:
REMARK  status: ('A' for Active; 'I' for Inactive)
REMARK    1  A    between atoms: C_1  and  N_2
REMARK    2  A    between atoms: C_7  and  C_8
REMARK    3  A    between atoms: C_17  and  N_18
REMARK                            x       y       z     vdW  Elec       q    Type
REMARK                         _______ _______ _______ _____ _____    ______ ____
ROOT
ATOM      1  C   UNL     1       5.336   4.563  16.028  0.00  0.00    +0.000 C 
ATOM      2  O   UNL     1       5.833   5.361  16.820  0.00  0.00    +0.000 OA
ATOM      3  N   UNL     1       4.307   3.699  16.333  0.00  0.00    +0.000 N 
ATOM      4  C   UNL     1       3.757   3.626  17.601  0.00  0.00    +0.000 A 
ATOM      5  N   UNL     1       3.623   2.429  18.164  0.00  0.00    +0.000 NA
ATOM      6  S   UNL     1       3.101   2.622  19.718  0.00  0.00    +0.000 S 
ATOM      7  C   UNL     1       2.803   4.312  19.613  0.00  0.00    +0.000 A 
ATOM      8  C   UNL     1       2.250   5.181  20.570  0.00  0.00    +0.000 A 
ATOM      9  C   UNL     1       2.022   6.512  20.208  0.00  0.00    +0.000 A 
ATOM     10  C   UNL     1       2.352   6.957  18.925  0.00  0.00    +0.000 A 
ATOM     11  C   UNL     1       2.952   6.094  17.993  0.00  0.00    +0.000 A 
ATOM     12  C   UNL     1       3.200   4.741  18.343  0.00  0.00    +0.000 A 
ATOM     13  H   UNL     1       4.205   2.858  15.770  0.00  0.00    +0.000 HD
ENDROOT
BRANCH   1  20
ATOM     14  C   UNL     1       4.775   2.730  11.469  0.00  0.00    +0.000 C 
ATOM     15  N   UNL     1       5.602   3.504  12.401  0.00  0.00    +0.000 N 
ATOM     16  C   UNL     1       6.839   3.993  12.023  0.00  0.00    +0.000 A 
ATOM     17  C   UNL     1       7.642   4.707  12.821  0.00  0.00    +0.000 A 
ATOM     18  C   UNL     1       7.171   5.005  14.194  0.00  0.00    +0.000 A 
ATOM     19  O   UNL     1       7.849   5.730  14.926  0.00  0.00    +0.000 OA
ATOM     20  C   UNL     1       5.871   4.430  14.637  0.00  0.00    +0.000 A 
ATOM     21  C   UNL     1       5.178   3.742  13.712  0.00  0.00    +0.000 A 
ENDBRANCH   1  20
BRANCH  10  22
ATOM     22  N   UNL     1       2.050   8.341  18.536  0.00  0.00    +0.000 N 
ATOM     23  O   UNL     1       1.460   9.056  19.360  0.00  0.00    +0.000 OA
ATOM     24  O   UNL     1       2.388   8.710  17.402  0.00  0.00    +0.000 OA
ENDBRANCH  10  22
TORSDOF 2
ENDMDL
MODEL 2
REMARK VINA RESULT:      -8.0      2.883      7.387
REMARK  Name = 
REMARK  3 active torsions:
REMARK  status: ('A' for Active; 'I' for Inactive)
REMARK    1  A    between atoms: C_1  and  N_2
REMARK    2  A    between atoms: C_7  and  C_8
REMARK    3  A    between atoms: C_17  and  N_18
REMARK                            x       y       z     vdW  Elec       q    Type
REMARK                         _______ _______ _______ _____ _____    ______ ____
ROOT
ATOM      1  C   UNL     1       2.138   7.955  18.492  0.00  0.00    +0.000 C 
ATOM      2  O   UNL     1       2.651   8.228  17.408  0.00  0.00    +0.000 OA
ATOM      3  N   UNL     1       2.081   6.689  19.031  0.00  0.00    +0.000 N 
ATOM      4  C   UNL     1       2.571   5.580  18.365  0.00  0.00    +0.000 A 
ATOM      5  N   UNL     1       1.790   4.510  18.258  0.00  0.00    +0.000 NA
ATOM      6  S   UNL     1       2.534   3.397  17.291  0.00  0.00    +0.000 S 
ATOM      7  C   UNL     1       4.041   4.216  17.179  0.00  0.00    +0.000 A 
ATOM      8  C   UNL     1       5.234   3.808  16.555  0.00  0.00    +0.000 A 
ATOM      9  C   UNL     1       6.364   4.620  16.683  0.00  0.00    +0.000 A 
ATOM     10  C   UNL     1       6.293   5.812  17.407  0.00  0.00    +0.000 A 
ATOM     11  C   UNL     1       5.085   6.237  17.984  0.00  0.00    +0.000 A 
ATOM     12  C   UNL     1       3.923   5.432  17.858  0.00  0.00    +0.000 A 
ATOM     13  H   UNL     1       1.354   6.494  19.716  0.00  0.00    +0.000 HD
ENDROOT
BRANCH   1  20
ATOM     14  C   UNL     1       0.318  12.547  18.739  0.00  0.00    +0.000 C 
ATOM     15  N   UNL     1       0.595  11.284  19.432  0.00  0.00    +0.000 N 
ATOM     16  C   UNL     1       0.328  11.135  20.780  0.00  0.00    +0.000 A 
ATOM     17  C   UNL     1       0.553  10.011  21.472  0.00  0.00    +0.000 A 
ATOM     18  C   UNL     1       1.112   8.847  20.745  0.00  0.00    +0.000 A 
ATOM     19  O   UNL     1       1.254   7.773  21.334  0.00  0.00    +0.000 OA
ATOM     20  C   UNL     1       1.467   9.014  19.309  0.00  0.00    +0.000 A 
ATOM     21  C   UNL     1       1.169  10.204  18.756  0.00  0.00    +0.000 A 
ENDBRANCH   1  20
BRANCH  10  22
ATOM     22  N   UNL     1       7.504   6.626  17.588  0.00  0.00    +0.000 N 
ATOM     23  O   UNL     1       8.113   6.520  18.662  0.00  0.00    +0.000 OA
ATOM     24  O   UNL     1       7.837   7.380  16.663  0.00  0.00    +0.000 OA
ENDBRANCH  10  22
TORSDOF 2
ENDMDL
MODEL 3
REMARK VINA RESULT:      -7.9      2.989      7.452
REMARK  Name = 
REMARK  3 active torsions:
REMARK  status: ('A' for Active; 'I' for Inactive)
REMARK    1  A    between atoms: C_1  and  N_2
REMARK    2  A    between atoms: C_7  and  C_8
REMARK    3  A    between atoms: C_17  and  N_18
REMARK                            x       y       z     vdW  Elec       q    Type
REMARK                         _______ _______ _______ _____ _____    ______ ____
ROOT
ATOM      1  C   UNL     1       1.912   8.397  18.661  0.00  0.00    +0.000 C 
ATOM      2  O   UNL     1       1.984   8.145  17.460  0.00  0.00    +0.000 OA
ATOM      3  N   UNL     1       2.150   7.485  19.666  0.00  0.00    +0.000 N 
ATOM      4  C   UNL     1       2.457   6.162  19.403  0.00  0.00    +0.000 A 
ATOM      5  N   UNL     1       1.775   5.215  20.042  0.00  0.00    +0.000 NA
ATOM      6  S   UNL     1       2.212   3.741  19.440  0.00  0.00    +0.000 S 
ATOM      7  C   UNL     1       3.512   4.307  18.468  0.00  0.00    +0.000 A 
ATOM      8  C   UNL     1       4.434   3.575  17.698  0.00  0.00    +0.000 A 
ATOM      9  C   UNL     1       5.469   4.268  17.062  0.00  0.00    +0.000 A 
ATOM     10  C   UNL     1       5.566   5.656  17.189  0.00  0.00    +0.000 A 
ATOM     11  C   UNL     1       4.612   6.384  17.920  0.00  0.00    +0.000 A 
ATOM     12  C   UNL     1       3.548   5.701  18.565  0.00  0.00    +0.000 A 
ATOM     13  H   UNL     1       1.731   7.658  20.577  0.00  0.00    +0.000 HD
ENDROOT
BRANCH   1  20
ATOM     14  C   UNL     1       2.165  13.304  18.102  0.00  0.00    +0.000 C 
ATOM     15  N   UNL     1       1.642  12.170  18.870  0.00  0.00    +0.000 N 
ATOM     16  C   UNL     1       0.887  12.366  20.011  0.00  0.00    +0.000 A 
ATOM     17  C   UNL     1       0.378  11.377  20.756  0.00  0.00    +0.000 A 
ATOM     18  C   UNL     1       0.627   9.982  20.324  0.00  0.00    +0.000 A 
ATOM     19  O   UNL     1       0.103   9.051  20.939  0.00  0.00    +0.000 OA
ATOM     20  C   UNL     1       1.494   9.754  19.134  0.00  0.00    +0.000 A 
ATOM     21  C   UNL     1       1.921  10.854  18.488  0.00  0.00    +0.000 A 
ENDBRANCH   1  20
BRANCH  10  22
ATOM     22  N   UNL     1       6.694   6.365  16.569  0.00  0.00    +0.000 N 
ATOM     23  O   UNL     1       7.362   5.755  15.721  0.00  0.00    +0.000 OA
ATOM     24  O   UNL     1       6.922   7.525  16.941  0.00  0.00    +0.000 OA
ENDBRANCH  10  22
TORSDOF 2
ENDMDL
MODEL 4
REMARK VINA RESULT:      -7.8      3.994      7.939
REMARK  Name = 
REMARK  3 active torsions:
REMARK  status: ('A' for Active; 'I' for Inactive)
REMARK    1  A    between atoms: C_1  and  N_2
REMARK    2  A    between atoms: C_7  and  C_8
REMARK    3  A    between atoms: C_17  and  N_18
REMARK                            x       y       z     vdW  Elec       q    Type
REMARK                         _______ _______ _______ _____ _____    ______ ____
ROOT
ATOM      1  C   UNL     1       1.877   8.074  19.742  0.00  0.00    +0.000 C 
ATOM      2  O   UNL     1       2.301   7.306  20.604  0.00  0.00    +0.000 OA
ATOM      3  N   UNL     1       2.194   7.996  18.404  0.00  0.00    +0.000 N 
ATOM      4  C   UNL     1       3.072   7.049  17.907  0.00  0.00    +0.000 A 
ATOM      5  N   UNL     1       4.059   7.456  17.114  0.00  0.00    +0.000 NA
ATOM      6  S   UNL     1       5.051   6.176  16.791  0.00  0.00    +0.000 S 
ATOM      7  C   UNL     1       4.054   4.974  17.510  0.00  0.00    +0.000 A 
ATOM      8  C   UNL     1       4.225   3.578  17.548  0.00  0.00    +0.000 A 
ATOM      9  C   UNL     1       3.216   2.798  18.119  0.00  0.00    +0.000 A 
ATOM     10  C   UNL     1       2.074   3.406  18.647  0.00  0.00    +0.000 A 
ATOM     11  C   UNL     1       1.934   4.804  18.650  0.00  0.00    +0.000 A 
ATOM     12  C   UNL     1       2.951   5.614  18.083  0.00  0.00    +0.000 A 
ATOM     13  H   UNL     1       2.109   8.841  17.842  0.00  0.00    +0.000 HD
ENDROOT
BRANCH   1  20
ATOM     14  C   UNL     1      -0.912  10.301  23.165  0.00  0.00    +0.000 C 
ATOM     15  N   UNL     1      -0.399  10.303  21.791  0.00  0.00    +0.000 N 
ATOM     16  C   UNL     1      -0.794  11.266  20.881  0.00  0.00    +0.000 A 
ATOM     17  C   UNL     1      -0.363  11.327  19.616  0.00  0.00    +0.000 A 
ATOM     18  C   UNL     1       0.610  10.306  19.161  0.00  0.00    +0.000 A 
ATOM     19  O   UNL     1       1.089  10.383  18.028  0.00  0.00    +0.000 OA
ATOM     20  C   UNL     1       0.993   9.224  20.109  0.00  0.00    +0.000 A 
ATOM     21  C   UNL     1       0.480   9.309  21.350  0.00  0.00    +0.000 A 
ENDBRANCH   1  20
BRANCH  10  22
ATOM     22  N   UNL     1       0.991   2.571  19.187  0.00  0.00    +0.000 N 
ATOM     23  O   UNL     1       0.886   2.491  20.419  0.00  0.00    +0.000 OA
ATOM     24  O   UNL     1       0.255   1.985  18.380  0.00  0.00    +0.000 OA
ENDBRANCH  10  22
TORSDOF 2
ENDMDL
MODEL 5
REMARK VINA RESULT:      -7.7      4.133      7.876
REMARK  Name = 
REMARK  3 active torsions:
REMARK  status: ('A' for Active; 'I' for Inactive)
REMARK    1  A    between atoms: C_1  and  N_2
REMARK    2  A    between atoms: C_7  and  C_8
REMARK    3  A    between atoms: C_17  and  N_18
REMARK                            x       y       z     vdW  Elec       q    Type
REMARK                         _______ _______ _______ _____ _____    ______ ____
ROOT
ATOM      1  C   UNL     1       1.739   8.316  19.674  0.00  0.00    +0.000 C 
ATOM      2  O   UNL     1       2.143   7.584  20.576  0.00  0.00    +0.000 OA
ATOM      3  N   UNL     1       2.110   8.202  18.352  0.00  0.00    +0.000 N 
ATOM      4  C   UNL     1       3.024   7.256  17.921  0.00  0.00    +0.000 A 
ATOM      5  N   UNL     1       4.033   7.656  17.153  0.00  0.00    +0.000 NA
ATOM      6  S   UNL     1       5.060   6.386  16.912  0.00  0.00    +0.000 S 
ATOM      7  C   UNL     1       4.057   5.188  17.630  0.00  0.00    +0.000 A 
ATOM      8  C   UNL     1       4.252   3.799  17.720  0.00  0.00    +0.000 A 
ATOM      9  C   UNL     1       3.235   3.018  18.277  0.00  0.00    +0.000 A 
ATOM     10  C   UNL     1       2.063   3.620  18.740  0.00  0.00    +0.000 A 
ATOM     11  C   UNL     1       1.897   5.014  18.692  0.00  0.00    +0.000 A 
ATOM     12  C   UNL     1       2.922   5.826  18.139  0.00  0.00    +0.000 A 
ATOM     13  H   UNL     1       2.031   9.026  17.760  0.00  0.00    +0.000 HD
ENDROOT
BRANCH   1  20
ATOM     14  C   UNL     1      -1.695  11.475  18.036  0.00  0.00    +0.000 C 
ATOM     15  N   UNL     1      -0.852  11.029  19.150  0.00  0.00    +0.000 N 
ATOM     16  C   UNL     1      -0.854  11.697  20.361  0.00  0.00    +0.000 A 
ATOM     17  C   UNL     1      -0.112  11.342  21.417  0.00  0.00    +0.000 A 
ATOM     18  C   UNL     1       0.758  10.149  21.287  0.00  0.00    +0.000 A 
ATOM     19  O   UNL     1       1.390   9.748  22.266  0.00  0.00    +0.000 OA
ATOM     20  C   UNL     1       0.821   9.460  19.969  0.00  0.00    +0.000 A 
ATOM     21  C   UNL     1       0.006   9.933  19.009  0.00  0.00    +0.000 A 
ENDBRANCH   1  20
BRANCH  10  22
ATOM     22  N   UNL     1       0.975   2.782  19.265  0.00  0.00    +0.000 N 
ATOM     23  O   UNL     1       0.257   2.190  18.446  0.00  0.00    +0.000 OA
ATOM     24  O   UNL     1       0.829   2.728  20.494  0.00  0.00    +0.000 OA
ENDBRANCH  10  22
TORSDOF 2
ENDMDL
MODEL 6
REMARK VINA RESULT:      -7.7      2.752      7.508
REMARK  Name = 
REMARK  3 active torsions:
REMARK  status: ('A' for Active; 'I' for Inactive)
REMARK    1  A    between atoms: C_1  and  N_2
REMARK    2  A    between atoms: C_7  and  C_8
REMARK    3  A    between atoms: C_17  and  N_18
REMARK                            x       y       z     vdW  Elec       q    Type
REMARK                         _______ _______ _______ _____ _____    ______ ____
ROOT
ATOM      1  C   UNL     1       1.885   7.800  19.135  0.00  0.00    +0.000 C 
ATOM      2  O   UNL     1       1.964   7.816  17.909  0.00  0.00    +0.000 OA
ATOM      3  N   UNL     1       2.172   6.706  19.923  0.00  0.00    +0.000 N 
ATOM      4  C   UNL     1       2.544   5.487  19.384  0.00  0.00    +0.000 A 
ATOM      5  N   UNL     1       1.912   4.393  19.800  0.00  0.00    +0.000 NA
ATOM      6  S   UNL     1       2.420   3.106  18.899  0.00  0.00    +0.000 S 
ATOM      7  C   UNL     1       3.686   3.931  18.079  0.00  0.00    +0.000 A 
ATOM      8  C   UNL     1       4.640   3.429  17.176  0.00  0.00    +0.000 A 
ATOM      9  C   UNL     1       5.636   4.293  16.711  0.00  0.00    +0.000 A 
ATOM     10  C   UNL     1       5.664   5.623  17.134  0.00  0.00    +0.000 A 
ATOM     11  C   UNL     1       4.678   6.129  17.997  0.00  0.00    +0.000 A 
ATOM     12  C   UNL     1       3.652   5.272  18.473  0.00  0.00    +0.000 A 
ATOM     13  H   UNL     1       1.748   6.658  20.847  0.00  0.00    +0.000 HD
ENDROOT
BRANCH   1  20
ATOM     14  C   UNL     1      -0.113   9.647  23.265  0.00  0.00    +0.000 C 
ATOM     15  N   UNL     1       0.394   9.901  21.913  0.00  0.00    +0.000 N 
ATOM     16  C   UNL     1       0.334  11.163  21.352  0.00  0.00    +0.000 A 
ATOM     17  C   UNL     1       0.780  11.464  20.126  0.00  0.00    +0.000 A 
ATOM     18  C   UNL     1       1.390  10.379  19.322  0.00  0.00    +0.000 A 
ATOM     19  O   UNL     1       1.885  10.639  18.224  0.00  0.00    +0.000 OA
ATOM     20  C   UNL     1       1.401   9.001  19.886  0.00  0.00    +0.000 A 
ATOM     21  C   UNL     1       0.923   8.865  21.137  0.00  0.00    +0.000 A 
ENDBRANCH   1  20
BRANCH  10  22
ATOM     22  N   UNL     1       6.753   6.504  16.688  0.00  0.00    +0.000 N 
ATOM     23  O   UNL     1       6.788   7.655  17.147  0.00  0.00    +0.000 OA
ATOM     24  O   UNL     1       7.565   6.051  15.869  0.00  0.00    +0.000 OA
ENDBRANCH  10  22
TORSDOF 2
ENDMDL
MODEL 7
REMARK VINA RESULT:      -7.6      2.918      7.469
REMARK  Name = 
REMARK  3 active torsions:
REMARK  status: ('A' for Active; 'I' for Inactive)
REMARK    1  A    between atoms: C_1  and  N_2
REMARK    2  A    between atoms: C_7  and  C_8
REMARK    3  A    between atoms: C_17  and  N_18
REMARK                            x       y       z     vdW  Elec       q    Type
REMARK                         _______ _______ _______ _____ _____    ______ ____
ROOT
ATOM      1  C   UNL     1       1.711   8.208  18.990  0.00  0.00    +0.000 C 
ATOM      2  O   UNL     1       1.501   7.821  17.842  0.00  0.00    +0.000 OA
ATOM      3  N   UNL     1       2.239   7.424  19.993  0.00  0.00    +0.000 N 
ATOM      4  C   UNL     1       2.546   6.089  19.801  0.00  0.00    +0.000 A 
ATOM      5  N   UNL     1       2.096   5.203  20.685  0.00  0.00    +0.000 NA
ATOM      6  S   UNL     1       2.455   3.682  20.150  0.00  0.00    +0.000 S 
ATOM      7  C   UNL     1       3.443   4.170  18.831  0.00  0.00    +0.000 A 
ATOM      8  C   UNL     1       4.187   3.381  17.935  0.00  0.00    +0.000 A 
ATOM      9  C   UNL     1       4.994   4.026  16.993  0.00  0.00    +0.000 A 
ATOM     10  C   UNL     1       5.041   5.421  16.947  0.00  0.00    +0.000 A 
ATOM     11  C   UNL     1       4.256   6.200  17.812  0.00  0.00    +0.000 A 
ATOM     12  C   UNL     1       3.422   5.566  18.770  0.00  0.00    +0.000 A 
ATOM     13  H   UNL     1       2.047   7.688  20.957  0.00  0.00    +0.000 HD
ENDROOT
BRANCH   1  20
ATOM     14  C   UNL     1      -0.557  11.150  22.254  0.00  0.00    +0.000 C 
ATOM     15  N   UNL     1       0.206  11.039  21.006  0.00  0.00    +0.000 N 
ATOM     16  C   UNL     1       0.480  12.153  20.234  0.00  0.00    +0.000 A 
ATOM     17  C   UNL     1       1.171  12.122  19.089  0.00  0.00    +0.000 A 
ATOM     18  C   UNL     1       1.690  10.814  18.623  0.00  0.00    +0.000 A 
ATOM     19  O   UNL     1       2.400  10.764  17.617  0.00  0.00    +0.000 OA
ATOM     20  C   UNL     1       1.346   9.597  19.409  0.00  0.00    +0.000 A 
ATOM     21  C   UNL     1       0.650   9.797  20.544  0.00  0.00    +0.000 A 
ENDBRANCH   1  20
BRANCH  10  22
ATOM     22  N   UNL     1       5.942   6.086  15.994  0.00  0.00    +0.000 N 
ATOM     23  O   UNL     1       5.430   6.800  15.120  0.00  0.00    +0.000 OA
ATOM     24  O   UNL     1       7.159   5.884  16.111  0.00  0.00    +0.000 OA
ENDBRANCH  10  22
TORSDOF 2
ENDMDL
MODEL 8
REMARK VINA RESULT:      -7.6      4.349      6.654
REMARK  Name = 
REMARK  3 active torsions:
REMARK  status: ('A' for Active; 'I' for Inactive)
REMARK    1  A    between atoms: C_1  and  N_2
REMARK    2  A    between atoms: C_7  and  C_8
REMARK    3  A    between atoms: C_17  and  N_18
REMARK                            x       y       z     vdW  Elec       q    Type
REMARK                         _______ _______ _______ _____ _____    ______ ____
ROOT
ATOM      1  C   UNL     1       2.162   8.385  18.348  0.00  0.00    +0.000 C 
ATOM      2  O   UNL     1       2.198   9.246  17.470  0.00  0.00    +0.000 OA
ATOM      3  N   UNL     1       1.487   8.516  19.542  0.00  0.00    +0.000 N 
ATOM      4  C   UNL     1       0.810   9.674  19.884  0.00  0.00    +0.000 A 
ATOM      5  N   UNL     1       1.038  10.211  21.078  0.00  0.00    +0.000 NA
ATOM      6  S   UNL     1       0.243  11.655  21.178  0.00  0.00    +0.000 S 
ATOM      7  C   UNL     1      -0.635  11.493  19.708  0.00  0.00    +0.000 A 
ATOM      8  C   UNL     1      -1.613  12.339  19.157  0.00  0.00    +0.000 A 
ATOM      9  C   UNL     1      -2.255  11.937  17.981  0.00  0.00    +0.000 A 
ATOM     10  C   UNL     1      -1.912  10.727  17.373  0.00  0.00    +0.000 A 
ATOM     11  C   UNL     1      -0.898   9.913  17.904  0.00  0.00    +0.000 A 
ATOM     12  C   UNL     1      -0.228  10.306  19.092  0.00  0.00    +0.000 A 
ATOM     13  H   UNL     1       1.794   7.948  20.329  0.00  0.00    +0.000 HD
ENDROOT
BRANCH   1  20
ATOM     14  C   UNL     1       5.672   5.841  15.969  0.00  0.00    +0.000 C 
ATOM     15  N   UNL     1       4.634   5.849  17.005  0.00  0.00    +0.000 N 
ATOM     16  C   UNL     1       4.329   4.706  17.721  0.00  0.00    +0.000 A 
ATOM     17  C   UNL     1       3.397   4.646  18.680  0.00  0.00    +0.000 A 
ATOM     18  C   UNL     1       2.651   5.884  19.005  0.00  0.00    +0.000 A 
ATOM     19  O   UNL     1       1.845   5.882  19.937  0.00  0.00    +0.000 OA
ATOM     20  C   UNL     1       2.921   7.105  18.196  0.00  0.00    +0.000 A 
ATOM     21  C   UNL     1       3.896   7.006  17.275  0.00  0.00    +0.000 A 
ENDBRANCH   1  20
BRANCH  10  22
ATOM     22  N   UNL     1      -2.637  10.286  16.173  0.00  0.00    +0.000 N 
ATOM     23  O   UNL     1      -3.054   9.119  16.149  0.00  0.00    +0.000 OA
ATOM     24  O   UNL     1      -2.778  11.101  15.251  0.00  0.00    +0.000 OA
ENDBRANCH  10  22
TORSDOF 2
ENDMDL
MODEL 9
REMARK VINA RESULT:      -7.5      3.412      7.654
REMARK  Name = 
REMARK  3 active torsions:
REMARK  status: ('A' for Active; 'I' for Inactive)
REMARK    1  A    between atoms: C_1  and  N_2
REMARK    2  A    between atoms: C_7  and  C_8
REMARK    3  A    between atoms: C_17  and  N_18
REMARK                            x       y       z     vdW  Elec       q    Type
REMARK                         _______ _______ _______ _____ _____    ______ ____
ROOT
ATOM      1  C   UNL     1       1.412   9.097  18.453  0.00  0.00    +0.000 C 
ATOM      2  O   UNL     1       1.221   8.494  17.399  0.00  0.00    +0.000 OA
ATOM      3  N   UNL     1       1.885   8.516  19.609  0.00  0.00    +0.000 N 
ATOM      4  C   UNL     1       2.154   7.162  19.699  0.00  0.00    +0.000 A 
ATOM      5  N   UNL     1       1.651   6.484  20.726  0.00  0.00    +0.000 NA
ATOM      6  S   UNL     1       1.974   4.878  20.518  0.00  0.00    +0.000 S 
ATOM      7  C   UNL     1       3.015   5.064  19.162  0.00  0.00    +0.000 A 
ATOM      8  C   UNL     1       3.757   4.093  18.467  0.00  0.00    +0.000 A 
ATOM      9  C   UNL     1       4.611   4.514  17.443  0.00  0.00    +0.000 A 
ATOM     10  C   UNL     1       4.705   5.870  17.121  0.00  0.00    +0.000 A 
ATOM     11  C   UNL     1       3.921   6.828  17.787  0.00  0.00    +0.000 A 
ATOM     12  C   UNL     1       3.041   6.420  18.823  0.00  0.00    +0.000 A 
ATOM     13  H   UNL     1       1.675   8.973  20.494  0.00  0.00    +0.000 HD
ENDROOT
BRANCH   1  20
ATOM     14  C   UNL     1       2.963  13.788  18.258  0.00  0.00    +0.000 C 
ATOM     15  N   UNL     1       1.856  12.858  18.501  0.00  0.00    +0.000 N 
ATOM     16  C   UNL     1       0.615  13.314  18.906  0.00  0.00    +0.000 A 
ATOM     17  C   UNL     1      -0.438  12.521  19.142  0.00  0.00    +0.000 A 
ATOM     18  C   UNL     1      -0.268  11.062  18.945  0.00  0.00    +0.000 A 
ATOM     19  O   UNL     1      -1.239  10.314  19.073  0.00  0.00    +0.000 OA
ATOM     20  C   UNL     1       1.080  10.551  18.574  0.00  0.00    +0.000 A 
ATOM     21  C   UNL     1       2.032  11.478  18.363  0.00  0.00    +0.000 A 
ENDBRANCH   1  20
BRANCH  10  22
ATOM     22  N   UNL     1       5.653   6.307  16.086  0.00  0.00    +0.000 N 
ATOM     23  O   UNL     1       6.863   6.164  16.315  0.00  0.00    +0.000 OA
ATOM     24  O   UNL     1       5.189   6.806  15.051  0.00  0.00    +0.000 OA
ENDBRANCH  10  22
TORSDOF 2
ENDMDL
