MODEL 1
REMARK VINA RESULT:      -8.5      0.000      0.000
REMARK  Name = 
REMARK  3 active torsions:
REMARK  status: ('A' for Active; 'I' for Inactive)
REMARK    1  A    between atoms: C_2  and  C_4
REMARK    2  A    between atoms: C_13  and  S_14
REMARK    3  A    between atoms: S_14  and  C_17
REMARK                            x       y       z     vdW  Elec       q    Type
REMARK                         _______ _______ _______ _____ _____    ______ ____
ROOT
ATOM      1  C   UNL     1       2.270   4.578  20.487  0.00  0.00    +0.000 A 
ATOM      2  N   UNL     1       1.693   5.821  20.632  0.00  0.00    +0.000 N 
ATOM      3  C   UNL     1       2.134   6.694  19.669  0.00  0.00    +0.000 A 
ATOM      4  C   UNL     1       1.823   8.048  19.483  0.00  0.00    +0.000 A 
ATOM      5  C   UNL     1       2.387   8.697  18.381  0.00  0.00    +0.000 A 
ATOM      6 CL   UNL     1       2.038  10.362  18.112  0.00  0.00    +0.000 Cl
ATOM      7  C   UNL     1       3.220   8.019  17.499  0.00  0.00    +0.000 A 
ATOM      8  C   UNL     1       3.533   6.672  17.715  0.00  0.00    +0.000 A 
ATOM      9  C   UNL     1       2.996   5.985  18.831  0.00  0.00    +0.000 A 
ATOM     10  C   UNL     1       3.102   4.664  19.375  0.00  0.00    +0.000 A 
ATOM     11  H   UNL     1       1.035   6.049  21.368  0.00  0.00    +0.000 HD
ENDROOT
BRANCH   1  13
ATOM     12  N   UNL     1       0.823   2.774  21.086  0.00  0.00    +0.000 N 
ATOM     13  C   UNL     1       1.920   3.511  21.390  0.00  0.00    +0.000 C 
ATOM     14  O   UNL     1       2.598   3.231  22.374  0.00  0.00    +0.000 OA
ATOM     15  H   UNL     1       0.634   1.965  21.662  0.00  0.00    +0.000 HD
ATOM     16  H   UNL     1       0.388   2.801  20.165  0.00  0.00    +0.000 HD
ENDBRANCH   1  13
BRANCH  10  17
ATOM     17  S   UNL     1       4.080   3.381  18.737  0.00  0.00    +0.000 S 
ATOM     18  O   UNL     1       4.874   2.871  19.835  0.00  0.00    +0.000 OA
ATOM     19  O   UNL     1       3.118   2.545  18.038  0.00  0.00    +0.000 OA
BRANCH  17  20
ATOM     20  C   UNL     1       5.201   4.068  17.555  0.00  0.00    +0.000 A 
ATOM     21  C   UNL     1       6.407   4.639  17.968  0.00  0.00    +0.000 A 
ATOM     22  C   UNL     1       7.288   5.140  17.010  0.00  0.00    +0.000 A 
ATOM     23  C   UNL     1       6.967   5.067  15.653  0.00  0.00    +0.000 A 
ATOM     24  C   UNL     1       5.757   4.504  15.246  0.00  0.00    +0.000 A 
ATOM     25  C   UNL     1       4.866   4.007  16.196  0.00  0.00    +0.000 A 
ENDBRANCH  17  20
ENDBRANCH  10  17
TORSDOF 3
ENDMDL
MODEL 2
REMARK VINA RESULT:      -8.5      0.071      1.037
REMARK  Name = 
REMARK  3 active torsions:
REMARK  status: ('A' for Active; 'I' for Inactive)
REMARK    1  A    between atoms: C_2  and  C_4
REMARK    2  A    between atoms: C_13  and  S_14
REMARK    3  A    between atoms: S_14  and  C_17
REMARK                            x       y       z     vdW  Elec       q    Type
REMARK                         _______ _______ _______ _____ _____    ______ ____
ROOT
ATOM      1  C   UNL     1       2.270   4.524  20.461  0.00  0.00    +0.000 A 
ATOM      2  N   UNL     1       1.682   5.762  20.593  0.00  0.00    +0.000 N 
ATOM      3  C   UNL     1       2.138   6.639  19.640  0.00  0.00    +0.000 A 
ATOM      4  C   UNL     1       1.822   7.991  19.447  0.00  0.00    +0.000 A 
ATOM      5  C   UNL     1       2.405   8.643  18.358  0.00  0.00    +0.000 A 
ATOM      6 CL   UNL     1       2.052  10.306  18.082  0.00  0.00    +0.000 Cl
ATOM      7  C   UNL     1       3.261   7.971  17.494  0.00  0.00    +0.000 A 
ATOM      8  C   UNL     1       3.579   6.626  17.717  0.00  0.00    +0.000 A 
ATOM      9  C   UNL     1       3.022   5.936  18.821  0.00  0.00    +0.000 A 
ATOM     10  C   UNL     1       3.125   4.615  19.367  0.00  0.00    +0.000 A 
ATOM     11  H   UNL     1       1.007   5.986  21.315  0.00  0.00    +0.000 HD
ENDROOT
BRANCH   1  13
ATOM     12  N   UNL     1       0.781   2.757  21.067  0.00  0.00    +0.000 N 
ATOM     13  C   UNL     1       1.908   3.454  21.356  0.00  0.00    +0.000 C 
ATOM     14  O   UNL     1       2.599   3.137  22.319  0.00  0.00    +0.000 OA
ATOM     15  H   UNL     1       0.581   1.944  21.636  0.00  0.00    +0.000 HD
ATOM     16  H   UNL     1       0.326   2.811  20.157  0.00  0.00    +0.000 HD
ENDBRANCH   1  13
BRANCH  10  17
ATOM     17  S   UNL     1       4.125   3.339  18.749  0.00  0.00    +0.000 S 
ATOM     18  O   UNL     1       4.934   2.867  19.853  0.00  0.00    +0.000 OA
ATOM     19  O   UNL     1       3.176   2.470  18.073  0.00  0.00    +0.000 OA
BRANCH  17  20
ATOM     20  C   UNL     1       5.227   4.023  17.548  0.00  0.00    +0.000 A 
ATOM     21  C   UNL     1       4.910   3.981  16.188  0.00  0.00    +0.000 A 
ATOM     22  C   UNL     1       5.781   4.562  15.266  0.00  0.00    +0.000 A 
ATOM     23  C   UNL     1       6.954   5.180  15.701  0.00  0.00    +0.000 A 
ATOM     24  C   UNL     1       7.271   5.211  17.060  0.00  0.00    +0.000 A 
ATOM     25  C   UNL     1       6.410   4.628  17.989  0.00  0.00    +0.000 A 
ENDBRANCH  17  20
ENDBRANCH  10  17
TORSDOF 3
ENDMDL
MODEL 3
REMARK VINA RESULT:      -8.1      3.777      4.953
REMARK  Name = 
REMARK  3 active torsions:
REMARK  status: ('A' for Active; 'I' for Inactive)
REMARK    1  A    between atoms: C_2  and  C_4
REMARK    2  A    between atoms: C_13  and  S_14
REMARK    3  A    between atoms: S_14  and  C_17
REMARK                            x       y       z     vdW  Elec       q    Type
REMARK                         _______ _______ _______ _____ _____    ______ ____
ROOT
ATOM      1  C   UNL     1       6.368   4.629  18.421  0.00  0.00    +0.000 A 
ATOM      2  N   UNL     1       5.655   3.855  19.309  0.00  0.00    +0.000 N 
ATOM      3  C   UNL     1       4.311   3.876  19.026  0.00  0.00    +0.000 A 
ATOM      4  C   UNL     1       3.248   3.257  19.698  0.00  0.00    +0.000 A 
ATOM      5  C   UNL     1       1.967   3.411  19.163  0.00  0.00    +0.000 A 
ATOM      6 CL   UNL     1       0.627   2.673  19.956  0.00  0.00    +0.000 Cl
ATOM      7  C   UNL     1       1.758   4.145  18.002  0.00  0.00    +0.000 A 
ATOM      8  C   UNL     1       2.831   4.771  17.357  0.00  0.00    +0.000 A 
ATOM      9  C   UNL     1       4.142   4.654  17.880  0.00  0.00    +0.000 A 
ATOM     10  C   UNL     1       5.439   5.152  17.527  0.00  0.00    +0.000 A 
ATOM     11  H   UNL     1       6.081   3.348  20.076  0.00  0.00    +0.000 HD
ENDROOT
BRANCH   1  13
ATOM     12  N   UNL     1       8.297   5.541  19.496  0.00  0.00    +0.000 N 
ATOM     13  C   UNL     1       7.802   4.722  18.535  0.00  0.00    +0.000 C 
ATOM     14  O   UNL     1       8.563   4.061  17.835  0.00  0.00    +0.000 OA
ATOM     15  H   UNL     1       9.298   5.530  19.643  0.00  0.00    +0.000 HD
ATOM     16  H   UNL     1       7.720   5.901  20.254  0.00  0.00    +0.000 HD
ENDBRANCH   1  13
BRANCH  10  17
ATOM     17  S   UNL     1       5.791   6.204  16.194  0.00  0.00    +0.000 S 
ATOM     18  O   UNL     1       4.589   6.965  15.930  0.00  0.00    +0.000 OA
ATOM     19  O   UNL     1       7.030   6.849  16.597  0.00  0.00    +0.000 OA
BRANCH  17  20
ATOM     20  C   UNL     1       6.107   5.211  14.766  0.00  0.00    +0.000 A 
ATOM     21  C   UNL     1       5.157   4.290  14.317  0.00  0.00    +0.000 A 
ATOM     22  C   UNL     1       5.418   3.546  13.166  0.00  0.00    +0.000 A 
ATOM     23  C   UNL     1       6.615   3.725  12.470  0.00  0.00    +0.000 A 
ATOM     24  C   UNL     1       7.564   4.640  12.928  0.00  0.00    +0.000 A 
ATOM     25  C   UNL     1       7.316   5.383  14.081  0.00  0.00    +0.000 A 
ENDBRANCH  17  20
ENDBRANCH  10  17
TORSDOF 3
ENDMDL
MODEL 4
REMARK VINA RESULT:      -8.1      4.148      6.130
REMARK  Name = 
REMARK  3 active torsions:
REMARK  status: ('A' for Active; 'I' for Inactive)
REMARK    1  A    between atoms: C_2  and  C_4
REMARK    2  A    between atoms: C_13  and  S_14
REMARK    3  A    between atoms: S_14  and  C_17
REMARK                            x       y       z     vdW  Elec       q    Type
REMARK                         _______ _______ _______ _____ _____    ______ ____
ROOT
ATOM      1  C   UNL     1       7.096   6.402  17.094  0.00  0.00    +0.000 A 
ATOM      2  N   UNL     1       7.691   6.084  15.893  0.00  0.00    +0.000 N 
ATOM      3  C   UNL     1       6.907   5.231  15.156  0.00  0.00    +0.000 A 
ATOM      4  C   UNL     1       7.156   4.646  13.907  0.00  0.00    +0.000 A 
ATOM      5  C   UNL     1       6.155   3.841  13.358  0.00  0.00    +0.000 A 
ATOM      6 CL   UNL     1       6.416   3.096  11.827  0.00  0.00    +0.000 Cl
ATOM      7  C   UNL     1       4.954   3.635  14.025  0.00  0.00    +0.000 A 
ATOM      8  C   UNL     1       4.734   4.213  15.281  0.00  0.00    +0.000 A 
ATOM      9  C   UNL     1       5.732   5.021  15.878  0.00  0.00    +0.000 A 
ATOM     10  C   UNL     1       5.876   5.735  17.113  0.00  0.00    +0.000 A 
ATOM     11  H   UNL     1       8.598   6.435  15.609  0.00  0.00    +0.000 HD
ENDROOT
BRANCH   1  13
ATOM     12  N   UNL     1       8.291   6.769  19.130  0.00  0.00    +0.000 N 
ATOM     13  C   UNL     1       7.752   7.305  18.007  0.00  0.00    +0.000 C 
ATOM     14  O   UNL     1       7.871   8.504  17.777  0.00  0.00    +0.000 OA
ATOM     15  H   UNL     1       8.837   7.384  19.720  0.00  0.00    +0.000 HD
ATOM     16  H   UNL     1       8.442   5.767  19.237  0.00  0.00    +0.000 HD
ENDBRANCH   1  13
BRANCH  10  17
ATOM     17  S   UNL     1       4.711   5.780  18.398  0.00  0.00    +0.000 S 
ATOM     18  O   UNL     1       5.450   5.669  19.638  0.00  0.00    +0.000 OA
ATOM     19  O   UNL     1       3.917   6.957  18.086  0.00  0.00    +0.000 OA
BRANCH  17  20
ATOM     20  C   UNL     1       3.682   4.349  18.271  0.00  0.00    +0.000 A 
ATOM     21  C   UNL     1       4.203   3.075  18.510  0.00  0.00    +0.000 A 
ATOM     22  C   UNL     1       3.359   1.967  18.438  0.00  0.00    +0.000 A 
ATOM     23  C   UNL     1       2.006   2.133  18.134  0.00  0.00    +0.000 A 
ATOM     24  C   UNL     1       1.492   3.407  17.887  0.00  0.00    +0.000 A 
ATOM     25  C   UNL     1       2.330   4.520  17.949  0.00  0.00    +0.000 A 
ENDBRANCH  17  20
ENDBRANCH  10  17
TORSDOF 3
ENDMDL
MODEL 5
REMARK VINA RESULT:      -8.0      2.512      4.748
REMARK  Name = 
REMARK  3 active torsions:
REMARK  status: ('A' for Active; 'I' for Inactive)
REMARK    1  A    between atoms: C_2  and  C_4
REMARK    2  A    between atoms: C_13  and  S_14
REMARK    3  A    between atoms: S_14  and  C_17
REMARK                            x       y       z     vdW  Elec       q    Type
REMARK                         _______ _______ _______ _____ _____    ______ ____
ROOT
ATOM      1  C   UNL     1       4.934   5.939  16.678  0.00  0.00    +0.000 A 
ATOM      2  N   UNL     1       4.444   7.221  16.564  0.00  0.00    +0.000 N 
ATOM      3  C   UNL     1       3.522   7.495  17.544  0.00  0.00    +0.000 A 
ATOM      4  C   UNL     1       2.770   8.658  17.762  0.00  0.00    +0.000 A 
ATOM      5  C   UNL     1       1.926   8.685  18.875  0.00  0.00    +0.000 A 
ATOM      6 CL   UNL     1       0.979  10.090  19.182  0.00  0.00    +0.000 Cl
ATOM      7  C   UNL     1       1.843   7.599  19.737  0.00  0.00    +0.000 A 
ATOM      8  C   UNL     1       2.587   6.439  19.490  0.00  0.00    +0.000 A 
ATOM      9  C   UNL     1       3.440   6.367  18.361  0.00  0.00    +0.000 A 
ATOM     10  C   UNL     1       4.306   5.381  17.788  0.00  0.00    +0.000 A 
ATOM     11  H   UNL     1       4.730   7.866  15.836  0.00  0.00    +0.000 HD
ENDROOT
BRANCH   1  13
ATOM     12  N   UNL     1       5.524   4.599  14.791  0.00  0.00    +0.000 N 
ATOM     13  C   UNL     1       5.932   5.463  15.753  0.00  0.00    +0.000 C 
ATOM     14  O   UNL     1       7.097   5.846  15.786  0.00  0.00    +0.000 OA
ATOM     15  H   UNL     1       6.200   4.343  14.083  0.00  0.00    +0.000 HD
ATOM     16  H   UNL     1       4.540   4.457  14.568  0.00  0.00    +0.000 HD
ENDBRANCH   1  13
BRANCH  10  17
ATOM     17  S   UNL     1       4.552   3.774  18.393  0.00  0.00    +0.000 S 
ATOM     18  O   UNL     1       4.525   2.886  17.250  0.00  0.00    +0.000 OA
ATOM     19  O   UNL     1       5.735   3.909  19.226  0.00  0.00    +0.000 OA
BRANCH  17  20
ATOM     20  C   UNL     1       3.179   3.347  19.420  0.00  0.00    +0.000 A 
ATOM     21  C   UNL     1       3.336   3.229  20.803  0.00  0.00    +0.000 A 
ATOM     22  C   UNL     1       2.226   2.927  21.593  0.00  0.00    +0.000 A 
ATOM     23  C   UNL     1       0.973   2.749  21.005  0.00  0.00    +0.000 A 
ATOM     24  C   UNL     1       0.823   2.859  19.622  0.00  0.00    +0.000 A 
ATOM     25  C   UNL     1       1.927   3.153  18.823  0.00  0.00    +0.000 A 
ENDBRANCH  17  20
ENDBRANCH  10  17
TORSDOF 3
ENDMDL
MODEL 6
REMARK VINA RESULT:      -8.0      1.159      1.690
REMARK  Name = 
REMARK  3 active torsions:
REMARK  status: ('A' for Active; 'I' for Inactive)
REMARK    1  A    between atoms: C_2  and  C_4
REMARK    2  A    between atoms: C_13  and  S_14
REMARK    3  A    between atoms: S_14  and  C_17
REMARK                            x       y       z     vdW  Elec       q    Type
REMARK                         _______ _______ _______ _____ _____    ______ ____
ROOT
ATOM      1  C   UNL     1       2.039   5.021  20.597  0.00  0.00    +0.000 A 
ATOM      2  N   UNL     1       1.390   6.162  21.016  0.00  0.00    +0.000 N 
ATOM      3  C   UNL     1       1.632   7.216  20.169  0.00  0.00    +0.000 A 
ATOM      4  C   UNL     1       1.194   8.545  20.251  0.00  0.00    +0.000 A 
ATOM      5  C   UNL     1       1.556   9.411  19.217  0.00  0.00    +0.000 A 
ATOM      6 CL   UNL     1       1.046  11.055  19.275  0.00  0.00    +0.000 Cl
ATOM      7  C   UNL     1       2.317   8.967  18.143  0.00  0.00    +0.000 A 
ATOM      8  C   UNL     1       2.761   7.640  18.091  0.00  0.00    +0.000 A 
ATOM      9  C   UNL     1       2.430   6.736  19.130  0.00  0.00    +0.000 A 
ATOM     10  C   UNL     1       2.709   5.363  19.427  0.00  0.00    +0.000 A 
ATOM     11  H   UNL     1       0.818   6.205  21.851  0.00  0.00    +0.000 HD
ENDROOT
BRANCH   1  13
ATOM     12  N   UNL     1       1.005   2.886  20.874  0.00  0.00    +0.000 N 
ATOM     13  C   UNL     1       1.895   3.795  21.342  0.00  0.00    +0.000 C 
ATOM     14  O   UNL     1       2.572   3.542  22.333  0.00  0.00    +0.000 OA
ATOM     15  H   UNL     1       0.976   1.987  21.336  0.00  0.00    +0.000 HD
ATOM     16  H   UNL     1       0.618   2.937  19.933  0.00  0.00    +0.000 HD
ENDBRANCH   1  13
BRANCH  10  17
ATOM     17  S   UNL     1       3.693   4.300  18.472  0.00  0.00    +0.000 S 
ATOM     18  O   UNL     1       3.942   3.122  19.276  0.00  0.00    +0.000 OA
ATOM     19  O   UNL     1       2.975   4.225  17.211  0.00  0.00    +0.000 OA
BRANCH  17  20
ATOM     20  C   UNL     1       5.253   5.083  18.193  0.00  0.00    +0.000 A 
ATOM     21  C   UNL     1       5.552   5.648  16.951  0.00  0.00    +0.000 A 
ATOM     22  C   UNL     1       6.776   6.292  16.771  0.00  0.00    +0.000 A 
ATOM     23  C   UNL     1       7.690   6.371  17.823  0.00  0.00    +0.000 A 
ATOM     24  C   UNL     1       7.391   5.796  19.059  0.00  0.00    +0.000 A 
ATOM     25  C   UNL     1       6.173   5.145  19.247  0.00  0.00    +0.000 A 
ENDBRANCH  17  20
ENDBRANCH  10  17
TORSDOF 3
ENDMDL
MODEL 7
REMARK VINA RESULT:      -8.0      3.784      4.885
REMARK  Name = 
REMARK  3 active torsions:
REMARK  status: ('A' for Active; 'I' for Inactive)
REMARK    1  A    between atoms: C_2  and  C_4
REMARK    2  A    between atoms: C_13  and  S_14
REMARK    3  A    between atoms: S_14  and  C_17
REMARK                            x       y       z     vdW  Elec       q    Type
REMARK                         _______ _______ _______ _____ _____    ______ ____
ROOT
ATOM      1  C   UNL     1       6.363   4.610  18.433  0.00  0.00    +0.000 A 
ATOM      2  N   UNL     1       5.653   3.817  19.307  0.00  0.00    +0.000 N 
ATOM      3  C   UNL     1       4.308   3.842  19.026  0.00  0.00    +0.000 A 
ATOM      4  C   UNL     1       3.247   3.209  19.688  0.00  0.00    +0.000 A 
ATOM      5  C   UNL     1       1.965   3.371  19.158  0.00  0.00    +0.000 A 
ATOM      6 CL   UNL     1       0.628   2.616  19.938  0.00  0.00    +0.000 Cl
ATOM      7  C   UNL     1       1.753   4.128  18.012  0.00  0.00    +0.000 A 
ATOM      8  C   UNL     1       2.824   4.769  17.379  0.00  0.00    +0.000 A 
ATOM      9  C   UNL     1       4.136   4.643  17.897  0.00  0.00    +0.000 A 
ATOM     10  C   UNL     1       5.431   5.150  17.552  0.00  0.00    +0.000 A 
ATOM     11  H   UNL     1       6.080   3.295  20.062  0.00  0.00    +0.000 HD
ENDROOT
BRANCH   1  13
ATOM     12  N   UNL     1       8.292   5.501  19.525  0.00  0.00    +0.000 N 
ATOM     13  C   UNL     1       7.797   4.703  18.546  0.00  0.00    +0.000 C 
ATOM     14  O   UNL     1       8.558   4.059  17.830  0.00  0.00    +0.000 OA
ATOM     15  H   UNL     1       9.294   5.488  19.669  0.00  0.00    +0.000 HD
ATOM     16  H   UNL     1       7.716   5.842  20.292  0.00  0.00    +0.000 HD
ENDBRANCH   1  13
BRANCH  10  17
ATOM     17  S   UNL     1       5.780   6.229  16.239  0.00  0.00    +0.000 S 
ATOM     18  O   UNL     1       4.580   7.004  16.002  0.00  0.00    +0.000 OA
ATOM     19  O   UNL     1       7.026   6.857  16.647  0.00  0.00    +0.000 OA
BRANCH  17  20
ATOM     20  C   UNL     1       6.078   5.266  14.787  0.00  0.00    +0.000 A 
ATOM     21  C   UNL     1       7.287   5.377  14.097  0.00  0.00    +0.000 A 
ATOM     22  C   UNL     1       7.508   4.577  12.975  0.00  0.00    +0.000 A 
ATOM     23  C   UNL     1       6.531   3.675  12.551  0.00  0.00    +0.000 A 
ATOM     24  C   UNL     1       5.320   3.576  13.238  0.00  0.00    +0.000 A 
ATOM     25  C   UNL     1       5.087   4.375  14.357  0.00  0.00    +0.000 A 
ENDBRANCH  17  20
ENDBRANCH  10  17
TORSDOF 3
ENDMDL
MODEL 8
REMARK VINA RESULT:      -8.0      3.970      5.988
REMARK  Name = 
REMARK  3 active torsions:
REMARK  status: ('A' for Active; 'I' for Inactive)
REMARK    1  A    between atoms: C_2  and  C_4
REMARK    2  A    between atoms: C_13  and  S_14
REMARK    3  A    between atoms: S_14  and  C_17
REMARK                            x       y       z     vdW  Elec       q    Type
REMARK                         _______ _______ _______ _____ _____    ______ ____
ROOT
ATOM      1  C   UNL     1       7.135   5.712  17.645  0.00  0.00    +0.000 A 
ATOM      2  N   UNL     1       7.827   5.369  16.504  0.00  0.00    +0.000 N 
ATOM      3  C   UNL     1       6.992   4.847  15.548  0.00  0.00    +0.000 A 
ATOM      4  C   UNL     1       7.295   4.349  14.273  0.00  0.00    +0.000 A 
ATOM      5  C   UNL     1       6.233   3.911  13.479  0.00  0.00    +0.000 A 
ATOM      6 CL   UNL     1       6.556   3.287  11.906  0.00  0.00    +0.000 Cl
ATOM      7  C   UNL     1       4.922   3.976  13.935  0.00  0.00    +0.000 A 
ATOM      8  C   UNL     1       4.643   4.458  15.220  0.00  0.00    +0.000 A 
ATOM      9  C   UNL     1       5.695   4.893  16.062  0.00  0.00    +0.000 A 
ATOM     10  C   UNL     1       5.800   5.407  17.395  0.00  0.00    +0.000 A 
ATOM     11  H   UNL     1       8.829   5.485  16.402  0.00  0.00    +0.000 HD
ENDROOT
BRANCH   1  13
ATOM     12  N   UNL     1       7.979   5.535  19.872  0.00  0.00    +0.000 N 
ATOM     13  C   UNL     1       7.831   6.299  18.762  0.00  0.00    +0.000 C 
ATOM     14  O   UNL     1       8.318   7.424  18.717  0.00  0.00    +0.000 OA
ATOM     15  H   UNL     1       8.552   5.908  20.617  0.00  0.00    +0.000 HD
ATOM     16  H   UNL     1       7.825   4.528  19.864  0.00  0.00    +0.000 HD
ENDBRANCH   1  13
BRANCH  10  17
ATOM     17  S   UNL     1       4.482   5.637  18.499  0.00  0.00    +0.000 S 
ATOM     18  O   UNL     1       5.053   5.702  19.828  0.00  0.00    +0.000 OA
ATOM     19  O   UNL     1       3.757   6.758  17.924  0.00  0.00    +0.000 OA
BRANCH  17  20
ATOM     20  C   UNL     1       3.449   4.203  18.443  0.00  0.00    +0.000 A 
ATOM     21  C   UNL     1       2.066   4.329  18.288  0.00  0.00    +0.000 A 
ATOM     22  C   UNL     1       1.281   3.179  18.210  0.00  0.00    +0.000 A 
ATOM     23  C   UNL     1       1.873   1.917  18.282  0.00  0.00    +0.000 A 
ATOM     24  C   UNL     1       3.254   1.797  18.445  0.00  0.00    +0.000 A 
ATOM     25  C   UNL     1       4.047   2.940  18.532  0.00  0.00    +0.000 A 
ENDBRANCH  17  20
ENDBRANCH  10  17
TORSDOF 3
ENDMDL
MODEL 9
REMARK VINA RESULT:      -8.0      2.509      4.864
REMARK  Name = 
REMARK  3 active torsions:
REMARK  status: ('A' for Active; 'I' for Inactive)
REMARK    1  A    between atoms: C_2  and  C_4
REMARK    2  A    between atoms: C_13  and  S_14
REMARK    3  A    between atoms: S_14  and  C_17
REMARK                            x       y       z     vdW  Elec       q    Type
REMARK                         _______ _______ _______ _____ _____    ______ ____
ROOT
ATOM      1  C   UNL     1       4.940   5.951  16.666  0.00  0.00    +0.000 A 
ATOM      2  N   UNL     1       4.465   7.238  16.542  0.00  0.00    +0.000 N 
ATOM      3  C   UNL     1       3.537   7.526  17.513  0.00  0.00    +0.000 A 
ATOM      4  C   UNL     1       2.796   8.697  17.720  0.00  0.00    +0.000 A 
ATOM      5  C   UNL     1       1.942   8.737  18.825  0.00  0.00    +0.000 A 
ATOM      6 CL   UNL     1       1.007  10.153  19.118  0.00  0.00    +0.000 Cl
ATOM      7  C   UNL     1       1.840   7.655  19.691  0.00  0.00    +0.000 A 
ATOM      8  C   UNL     1       2.575   6.487  19.455  0.00  0.00    +0.000 A 
ATOM      9  C   UNL     1       3.437   6.402  18.334  0.00  0.00    +0.000 A 
ATOM     10  C   UNL     1       4.298   5.404  17.772  0.00  0.00    +0.000 A 
ATOM     11  H   UNL     1       4.764   7.877  15.814  0.00  0.00    +0.000 HD
ENDROOT
BRANCH   1  13
ATOM     12  N   UNL     1       5.536   4.585  14.799  0.00  0.00    +0.000 N 
ATOM     13  C   UNL     1       5.941   5.461  15.752  0.00  0.00    +0.000 C 
ATOM     14  O   UNL     1       7.107   5.842  15.785  0.00  0.00    +0.000 OA
ATOM     15  H   UNL     1       6.214   4.318  14.097  0.00  0.00    +0.000 HD
ATOM     16  H   UNL     1       4.553   4.442  14.574  0.00  0.00    +0.000 HD
ENDBRANCH   1  13
BRANCH  10  17
ATOM     17  S   UNL     1       4.522   3.797  18.386  0.00  0.00    +0.000 S 
ATOM     18  O   UNL     1       4.486   2.904  17.248  0.00  0.00    +0.000 OA
ATOM     19  O   UNL     1       5.705   3.922  19.222  0.00  0.00    +0.000 OA
BRANCH  17  20
ATOM     20  C   UNL     1       3.141   3.393  19.412  0.00  0.00    +0.000 A 
ATOM     21  C   UNL     1       1.880   3.174  18.853  0.00  0.00    +0.000 A 
ATOM     22  C   UNL     1       0.816   2.821  19.683  0.00  0.00    +0.000 A 
ATOM     23  C   UNL     1       1.013   2.685  21.058  0.00  0.00    +0.000 A 
ATOM     24  C   UNL     1       2.273   2.914  21.614  0.00  0.00    +0.000 A 
ATOM     25  C   UNL     1       3.341   3.274  20.793  0.00  0.00    +0.000 A 
ENDBRANCH  17  20
ENDBRANCH  10  17
TORSDOF 3
ENDMDL
