MODEL 1
REMARK VINA RESULT:      -8.9      0.000      0.000
REMARK  Name = 
REMARK  7 active torsions:
REMARK  status: ('A' for Active; 'I' for Inactive)
REMARK    1  A    between atoms: N_1  and  C_2
REMARK    2  A    between atoms: C_6  and  C_7
REMARK    3  A    between atoms: C_8  and  C_9
REMARK    4  A    between atoms: C_21  and  C_22
REMARK    5  A    between atoms: C_22  and  C_23
REMARK    6  A    between atoms: C_23  and  C_24
REMARK    7  A    between atoms: C_24  and  C_25
REMARK                            x       y       z     vdW  Elec       q    Type
REMARK                         _______ _______ _______ _____ _____    ______ ____
ROOT
ATOM      1  C   UNL     1       5.502   4.121  16.716  0.00  0.00    +0.000 A 
ATOM      2  N   UNL     1       6.073   3.730  15.568  0.00  0.00    +0.000 NA
ATOM      3  C   UNL     1       6.991   4.552  15.045  0.00  0.00    +0.000 A 
ATOM      4  N   UNL     1       7.388   5.717  15.564  0.00  0.00    +0.000 NA
ATOM      5  C   UNL     1       6.794   6.063  16.721  0.00  0.00    +0.000 A 
ATOM      6  C   UNL     1       5.822   5.306  17.361  0.00  0.00    +0.000 A 
ENDROOT
BRANCH   1   7
ATOM      7  N   UNL     1       4.589   3.209  17.242  0.00  0.00    +0.000 N 
ATOM      8  H   UNL     1       4.940   2.277  17.029  0.00  0.00    +0.000 HD
ATOM      9  H   UNL     1       3.653   3.337  16.882  0.00  0.00    +0.000 HD
ENDBRANCH   1   7
BRANCH   5  10
ATOM     10  C   UNL     1       7.313   7.279  17.279  0.00  0.00    +0.000 C 
ATOM     11  C   UNL     1       7.769   8.312  17.689  0.00  0.00    +0.000 C 
BRANCH  11  12
ATOM     12  C   UNL     1       8.320   9.573  18.094  0.00  0.00    +0.000 A 
ATOM     13  C   UNL     1       9.122   9.647  19.220  0.00  0.00    +0.000 A 
ATOM     14  C   UNL     1       9.607  10.888  19.624  0.00  0.00    +0.000 A 
ATOM     15  C   UNL     1       9.293  12.047  18.907  0.00  0.00    +0.000 A 
ATOM     16  N   UNL     1       9.832  13.246  19.344  0.00  0.00    +0.000 N 
ATOM     17  C   UNL     1       9.967  14.373  18.417  0.00  0.00    +0.000 C 
ATOM     18  C   UNL     1      11.101  15.268  18.971  0.00  0.00    +0.000 C 
ATOM     19  O   UNL     1      10.830  15.711  20.318  0.00  0.00    +0.000 OA
ATOM     20  C   UNL     1      10.629  14.590  21.198  0.00  0.00    +0.000 C 
ATOM     21  C   UNL     1       9.485  13.692  20.702  0.00  0.00    +0.000 C 
ATOM     22  N   UNL     1       8.548  11.981  17.784  0.00  0.00    +0.000 NA
ATOM     23  C   UNL     1       8.068  10.758  17.415  0.00  0.00    +0.000 A 
ENDBRANCH  11  12
ENDBRANCH   5  10
BRANCH   6  24
ATOM     24  C   UNL     1       5.192   5.727  18.660  0.00  0.00    +0.000 C 
BRANCH  24  25
ATOM     25  C   UNL     1       3.691   6.028  18.566  0.00  0.00    +0.000 C 
BRANCH  25  26
ATOM     26  C   UNL     1       3.353   7.253  17.708  0.00  0.00    +0.000 C 
BRANCH  26  27
ATOM     27  C   UNL     1       2.433   8.192  18.453  0.00  0.00    +0.000 A 
ATOM     28  C   UNL     1       2.037   7.894  19.765  0.00  0.00    +0.000 A 
ATOM     29  C   UNL     1       1.127   8.714  20.434  0.00  0.00    +0.000 A 
ATOM     30  C   UNL     1       0.609   9.837  19.792  0.00  0.00    +0.000 A 
ATOM     31 BR   UNL     1      -0.654  10.925  20.683  0.00  0.00    +0.000 Br
ATOM     32  C   UNL     1       1.004  10.154  18.495  0.00  0.00    +0.000 A 
ATOM     33  C   UNL     1       1.915   9.332  17.826  0.00  0.00    +0.000 A 
ENDBRANCH  26  27
ENDBRANCH  25  26
ENDBRANCH  24  25
ENDBRANCH   6  24
TORSDOF 7
ENDMDL
MODEL 2
REMARK VINA RESULT:      -8.7      0.807      1.640
REMARK  Name = 
REMARK  7 active torsions:
REMARK  status: ('A' for Active; 'I' for Inactive)
REMARK    1  A    between atoms: N_1  and  C_2
REMARK    2  A    between atoms: C_6  and  C_7
REMARK    3  A    between atoms: C_8  and  C_9
REMARK    4  A    between atoms: C_21  and  C_22
REMARK    5  A    between atoms: C_22  and  C_23
REMARK    6  A    between atoms: C_23  and  C_24
REMARK    7  A    between atoms: C_24  and  C_25
REMARK                            x       y       z     vdW  Elec       q    Type
REMARK                         _______ _______ _______ _____ _____    ______ ____
ROOT
ATOM      1  C   UNL     1       5.597   4.092  16.601  0.00  0.00    +0.000 A 
ATOM      2  N   UNL     1       6.202   3.736  15.459  0.00  0.00    +0.000 NA
ATOM      3  C   UNL     1       7.105   4.592  14.966  0.00  0.00    +0.000 A 
ATOM      4  N   UNL     1       7.457   5.760  15.509  0.00  0.00    +0.000 NA
ATOM      5  C   UNL     1       6.830   6.071  16.660  0.00  0.00    +0.000 A 
ATOM      6  C   UNL     1       5.869   5.277  17.269  0.00  0.00    +0.000 A 
ENDROOT
BRANCH   1   7
ATOM      7  N   UNL     1       4.701   3.147  17.096  0.00  0.00    +0.000 N 
ATOM      8  H   UNL     1       4.273   3.548  17.928  0.00  0.00    +0.000 HD
ATOM      9  H   UNL     1       5.139   2.259  17.303  0.00  0.00    +0.000 HD
ENDBRANCH   1   7
BRANCH   5  10
ATOM     10  C   UNL     1       7.302   7.294  17.245  0.00  0.00    +0.000 C 
ATOM     11  C   UNL     1       7.747   8.313  17.699  0.00  0.00    +0.000 C 
BRANCH  11  12
ATOM     12  C   UNL     1       8.337   9.532  18.172  0.00  0.00    +0.000 A 
ATOM     13  C   UNL     1       8.172  10.703  17.453  0.00  0.00    +0.000 A 
ATOM     14  C   UNL     1       8.793  11.866  17.903  0.00  0.00    +0.000 A 
ATOM     15  C   UNL     1       9.574  11.857  19.063  0.00  0.00    +0.000 A 
ATOM     16  N   UNL     1      10.140  13.053  19.472  0.00  0.00    +0.000 N 
ATOM     17  C   UNL     1      10.532  13.240  20.872  0.00  0.00    +0.000 C 
ATOM     18  C   UNL     1      10.524  14.764  21.135  0.00  0.00    +0.000 C 
ATOM     19  O   UNL     1      11.401  15.473  20.233  0.00  0.00    +0.000 OA
ATOM     20  C   UNL     1      11.043  15.218  18.862  0.00  0.00    +0.000 C 
ATOM     21  C   UNL     1      11.074  13.715  18.549  0.00  0.00    +0.000 C 
ATOM     22  N   UNL     1       9.708  10.731  19.794  0.00  0.00    +0.000 NA
ATOM     23  C   UNL     1       9.105   9.599  19.327  0.00  0.00    +0.000 A 
ENDBRANCH  11  12
ENDBRANCH   5  10
BRANCH   6  24
ATOM     24  C   UNL     1       5.201   5.660  18.561  0.00  0.00    +0.000 C 
BRANCH  24  25
ATOM     25  C   UNL     1       3.675   5.786  18.471  0.00  0.00    +0.000 C 
BRANCH  25  26
ATOM     26  C   UNL     1       3.009   6.249  19.771  0.00  0.00    +0.000 C 
BRANCH  26  27
ATOM     27  C   UNL     1       2.190   7.498  19.539  0.00  0.00    +0.000 A 
ATOM     28  C   UNL     1       2.187   8.111  18.278  0.00  0.00    +0.000 A 
ATOM     29  C   UNL     1       1.497   9.307  18.074  0.00  0.00    +0.000 A 
ATOM     30  C   UNL     1       0.806   9.894  19.132  0.00  0.00    +0.000 A 
ATOM     31 BR   UNL     1      -0.096  11.534  18.865  0.00  0.00    +0.000 Br
ATOM     32  C   UNL     1       0.787   9.290  20.386  0.00  0.00    +0.000 A 
ATOM     33  C   UNL     1       1.479   8.093  20.590  0.00  0.00    +0.000 A 
ENDBRANCH  26  27
ENDBRANCH  25  26
ENDBRANCH  24  25
ENDBRANCH   6  24
TORSDOF 7
ENDMDL
MODEL 3
REMARK VINA RESULT:      -8.5      2.052      2.805
REMARK  Name = 
REMARK  7 active torsions:
REMARK  status: ('A' for Active; 'I' for Inactive)
REMARK    1  A    between atoms: N_1  and  C_2
REMARK    2  A    between atoms: C_6  and  C_7
REMARK    3  A    between atoms: C_8  and  C_9
REMARK    4  A    between atoms: C_21  and  C_22
REMARK    5  A    between atoms: C_22  and  C_23
REMARK    6  A    between atoms: C_23  and  C_24
REMARK    7  A    between atoms: C_24  and  C_25
REMARK                            x       y       z     vdW  Elec       q    Type
REMARK                         _______ _______ _______ _____ _____    ______ ____
ROOT
ATOM      1  C   UNL     1       5.263   4.570  16.371  0.00  0.00    +0.000 A 
ATOM      2  N   UNL     1       6.092   3.958  15.514  0.00  0.00    +0.000 NA
ATOM      3  C   UNL     1       7.255   4.571  15.264  0.00  0.00    +0.000 A 
ATOM      4  N   UNL     1       7.661   5.730  15.791  0.00  0.00    +0.000 NA
ATOM      5  C   UNL     1       6.799   6.302  16.652  0.00  0.00    +0.000 A 
ATOM      6  C   UNL     1       5.560   5.775  16.990  0.00  0.00    +0.000 A 
ENDROOT
BRANCH   1   7
ATOM      7  N   UNL     1       4.088   3.868  16.634  0.00  0.00    +0.000 N 
ATOM      8  H   UNL     1       3.468   4.015  15.838  0.00  0.00    +0.000 HD
ATOM      9  H   UNL     1       3.645   4.150  17.497  0.00  0.00    +0.000 HD
ENDBRANCH   1   7
BRANCH   5  10
ATOM     10  C   UNL     1       7.315   7.500  17.252  0.00  0.00    +0.000 C 
ATOM     11  C   UNL     1       7.786   8.508  17.706  0.00  0.00    +0.000 C 
BRANCH  11  12
ATOM     12  C   UNL     1       8.384   9.727  18.167  0.00  0.00    +0.000 A 
ATOM     13  C   UNL     1       8.211  10.896  17.446  0.00  0.00    +0.000 A 
ATOM     14  C   UNL     1       8.840  12.059  17.884  0.00  0.00    +0.000 A 
ATOM     15  C   UNL     1       9.637  12.053  19.033  0.00  0.00    +0.000 A 
ATOM     16  N   UNL     1      10.210  13.249  19.431  0.00  0.00    +0.000 N 
ATOM     17  C   UNL     1      10.621  13.440  20.825  0.00  0.00    +0.000 C 
ATOM     18  C   UNL     1      10.619  14.965  21.082  0.00  0.00    +0.000 C 
ATOM     19  O   UNL     1      11.485  15.669  20.167  0.00  0.00    +0.000 OA
ATOM     20  C   UNL     1      11.108  15.411  18.801  0.00  0.00    +0.000 C 
ATOM     21  C   UNL     1      11.132  13.906  18.493  0.00  0.00    +0.000 C 
ATOM     22  N   UNL     1       9.778  10.929  19.767  0.00  0.00    +0.000 NA
ATOM     23  C   UNL     1       9.167   9.797  19.312  0.00  0.00    +0.000 A 
ENDBRANCH  11  12
ENDBRANCH   5  10
BRANCH   6  24
ATOM     24  C   UNL     1       4.632   6.445  17.966  0.00  0.00    +0.000 C 
BRANCH  24  25
ATOM     25  C   UNL     1       3.658   7.443  17.328  0.00  0.00    +0.000 C 
BRANCH  25  26
ATOM     26  C   UNL     1       2.341   7.607  18.096  0.00  0.00    +0.000 C 
BRANCH  26  27
ATOM     27  C   UNL     1       2.047   6.379  18.924  0.00  0.00    +0.000 A 
ATOM     28  C   UNL     1       2.181   6.423  20.320  0.00  0.00    +0.000 A 
ATOM     29  C   UNL     1       1.987   5.274  21.087  0.00  0.00    +0.000 A 
ATOM     30  C   UNL     1       1.657   4.074  20.461  0.00  0.00    +0.000 A 
ATOM     31 BR   UNL     1       1.433   2.508  21.496  0.00  0.00    +0.000 Br
ATOM     32  C   UNL     1       1.506   4.016  19.078  0.00  0.00    +0.000 A 
ATOM     33  C   UNL     1       1.701   5.168  18.310  0.00  0.00    +0.000 A 
ENDBRANCH  26  27
ENDBRANCH  25  26
ENDBRANCH  24  25
ENDBRANCH   6  24
TORSDOF 7
ENDMDL
MODEL 4
REMARK VINA RESULT:      -8.4      6.367      8.508
REMARK  Name = 
REMARK  7 active torsions:
REMARK  status: ('A' for Active; 'I' for Inactive)
REMARK    1  A    between atoms: N_1  and  C_2
REMARK    2  A    between atoms: C_6  and  C_7
REMARK    3  A    between atoms: C_8  and  C_9
REMARK    4  A    between atoms: C_21  and  C_22
REMARK    5  A    between atoms: C_22  and  C_23
REMARK    6  A    between atoms: C_23  and  C_24
REMARK    7  A    between atoms: C_24  and  C_25
REMARK                            x       y       z     vdW  Elec       q    Type
REMARK                         _______ _______ _______ _____ _____    ______ ____
ROOT
ATOM      1  C   UNL     1       2.392   3.349  18.758  0.00  0.00    +0.000 A 
ATOM      2  N   UNL     1       2.348   2.402  19.706  0.00  0.00    +0.000 NA
ATOM      3  C   UNL     1       2.063   2.809  20.948  0.00  0.00    +0.000 A 
ATOM      4  N   UNL     1       1.819   4.067  21.325  0.00  0.00    +0.000 NA
ATOM      5  C   UNL     1       1.866   4.982  20.338  0.00  0.00    +0.000 A 
ATOM      6  C   UNL     1       2.157   4.692  19.012  0.00  0.00    +0.000 A 
ENDROOT
BRANCH   1   7
ATOM      7  N   UNL     1       2.645   2.867  17.475  0.00  0.00    +0.000 N 
ATOM      8  H   UNL     1       2.468   3.634  16.828  0.00  0.00    +0.000 HD
ATOM      9  H   UNL     1       2.087   2.057  17.242  0.00  0.00    +0.000 HD
ENDBRANCH   1   7
BRANCH   5  10
ATOM     10  C   UNL     1       1.515   6.303  20.778  0.00  0.00    +0.000 C 
ATOM     11  C   UNL     1       1.172   7.405  21.111  0.00  0.00    +0.000 C 
BRANCH  11  12
ATOM     12  C   UNL     1       0.680   8.702  21.476  0.00  0.00    +0.000 A 
ATOM     13  C   UNL     1      -0.037   8.864  22.649  0.00  0.00    +0.000 A 
ATOM     14  C   UNL     1      -0.548  10.121  22.961  0.00  0.00    +0.000 A 
ATOM     15  C   UNL     1      -0.344  11.208  22.106  0.00  0.00    +0.000 A 
ATOM     16  N   UNL     1      -0.853  12.438  22.488  0.00  0.00    +0.000 N 
ATOM     17  C   UNL     1      -0.286  13.673  21.938  0.00  0.00    +0.000 C 
ATOM     18  C   UNL     1      -0.592  14.794  22.959  0.00  0.00    +0.000 C 
ATOM     19  O   UNL     1      -2.007  14.922  23.213  0.00  0.00    +0.000 OA
ATOM     20  C   UNL     1      -2.559  13.678  23.684  0.00  0.00    +0.000 C 
ATOM     21  C   UNL     1      -2.308  12.542  22.681  0.00  0.00    +0.000 C 
ATOM     22  N   UNL     1       0.388  11.072  20.981  0.00  0.00    +0.000 NA
ATOM     23  C   UNL     1       0.866   9.828  20.685  0.00  0.00    +0.000 A 
ENDBRANCH  11  12
ENDBRANCH   5  10
BRANCH   6  24
ATOM     24  C   UNL     1       2.188   5.746  17.940  0.00  0.00    +0.000 C 
BRANCH  24  25
ATOM     25  C   UNL     1       3.390   6.696  18.022  0.00  0.00    +0.000 C 
BRANCH  25  26
ATOM     26  C   UNL     1       4.744   5.984  18.114  0.00  0.00    +0.000 C 
BRANCH  26  27
ATOM     27  C   UNL     1       5.144   5.418  16.771  0.00  0.00    +0.000 A 
ATOM     28  C   UNL     1       5.597   4.094  16.674  0.00  0.00    +0.000 A 
ATOM     29  C   UNL     1       6.042   3.587  15.452  0.00  0.00    +0.000 A 
ATOM     30  C   UNL     1       6.037   4.402  14.323  0.00  0.00    +0.000 A 
ATOM     31 BR   UNL     1       6.677   3.727  12.677  0.00  0.00    +0.000 Br
ATOM     32  C   UNL     1       5.577   5.714  14.400  0.00  0.00    +0.000 A 
ATOM     33  C   UNL     1       5.131   6.222  15.624  0.00  0.00    +0.000 A 
ENDBRANCH  26  27
ENDBRANCH  25  26
ENDBRANCH  24  25
ENDBRANCH   6  24
TORSDOF 7
ENDMDL
MODEL 5
REMARK VINA RESULT:      -8.3      5.869      8.050
REMARK  Name = 
REMARK  7 active torsions:
REMARK  status: ('A' for Active; 'I' for Inactive)
REMARK    1  A    between atoms: N_1  and  C_2
REMARK    2  A    between atoms: C_6  and  C_7
REMARK    3  A    between atoms: C_8  and  C_9
REMARK    4  A    between atoms: C_21  and  C_22
REMARK    5  A    between atoms: C_22  and  C_23
REMARK    6  A    between atoms: C_23  and  C_24
REMARK    7  A    between atoms: C_24  and  C_25
REMARK                            x       y       z     vdW  Elec       q    Type
REMARK                         _______ _______ _______ _____ _____    ______ ____
ROOT
ATOM      1  C   UNL     1       3.592   3.001  19.590  0.00  0.00    +0.000 A 
ATOM      2  N   UNL     1       2.617   2.093  19.728  0.00  0.00    +0.000 NA
ATOM      3  C   UNL     1       1.431   2.547  20.152  0.00  0.00    +0.000 A 
ATOM      4  N   UNL     1       1.136   3.816  20.446  0.00  0.00    +0.000 NA
ATOM      5  C   UNL     1       2.144   4.693  20.283  0.00  0.00    +0.000 A 
ATOM      6  C   UNL     1       3.421   4.351  19.859  0.00  0.00    +0.000 A 
ENDROOT
BRANCH   1   7
ATOM      7  N   UNL     1       4.792   2.486  19.102  0.00  0.00    +0.000 N 
ATOM      8  H   UNL     1       5.478   2.566  19.850  0.00  0.00    +0.000 HD
ATOM      9  H   UNL     1       5.110   2.954  18.264  0.00  0.00    +0.000 HD
ENDBRANCH   1   7
BRANCH   5  10
ATOM     10  C   UNL     1       1.753   6.052  20.530  0.00  0.00    +0.000 C 
ATOM     11  C   UNL     1       1.453   7.205  20.685  0.00  0.00    +0.000 C 
BRANCH  11  12
ATOM     12  C   UNL     1       1.114   8.595  20.782  0.00  0.00    +0.000 A 
ATOM     13  C   UNL     1       0.997   9.359  19.633  0.00  0.00    +0.000 A 
ATOM     14  C   UNL     1       0.715  10.717  19.751  0.00  0.00    +0.000 A 
ATOM     15  C   UNL     1       0.550  11.308  21.008  0.00  0.00    +0.000 A 
ATOM     16  N   UNL     1       0.242  12.657  21.055  0.00  0.00    +0.000 N 
ATOM     17  C   UNL     1      -0.414  13.221  22.238  0.00  0.00    +0.000 C 
ATOM     18  C   UNL     1      -1.156  14.495  21.769  0.00  0.00    +0.000 C 
ATOM     19  O   UNL     1      -0.261  15.444  21.149  0.00  0.00    +0.000 OA
ATOM     20  C   UNL     1       0.426  14.848  20.033  0.00  0.00    +0.000 C 
ATOM     21  C   UNL     1       1.206  13.597  20.463  0.00  0.00    +0.000 C 
ATOM     22  N   UNL     1       0.620  10.565  22.132  0.00  0.00    +0.000 NA
ATOM     23  C   UNL     1       0.914   9.239  21.996  0.00  0.00    +0.000 A 
ENDBRANCH  11  12
ENDBRANCH   5  10
BRANCH   6  24
ATOM     24  C   UNL     1       4.515   5.367  19.681  0.00  0.00    +0.000 C 
BRANCH  24  25
ATOM     25  C   UNL     1       4.637   5.922  18.257  0.00  0.00    +0.000 C 
BRANCH  25  26
ATOM     26  C   UNL     1       6.065   5.899  17.698  0.00  0.00    +0.000 C 
BRANCH  26  27
ATOM     27  C   UNL     1       6.108   5.183  16.368  0.00  0.00    +0.000 A 
ATOM     28  C   UNL     1       7.128   5.470  15.449  0.00  0.00    +0.000 A 
ATOM     29  C   UNL     1       7.134   4.872  14.188  0.00  0.00    +0.000 A 
ATOM     30  C   UNL     1       6.118   3.985  13.840  0.00  0.00    +0.000 A 
ATOM     31 BR   UNL     1       6.103   3.206  12.118  0.00  0.00    +0.000 Br
ATOM     32  C   UNL     1       5.106   3.679  14.747  0.00  0.00    +0.000 A 
ATOM     33  C   UNL     1       5.100   4.278  16.010  0.00  0.00    +0.000 A 
ENDBRANCH  26  27
ENDBRANCH  25  26
ENDBRANCH  24  25
ENDBRANCH   6  24
TORSDOF 7
ENDMDL
MODEL 6
REMARK VINA RESULT:      -8.3      6.178      8.263
REMARK  Name = 
REMARK  7 active torsions:
REMARK  status: ('A' for Active; 'I' for Inactive)
REMARK    1  A    between atoms: N_1  and  C_2
REMARK    2  A    between atoms: C_6  and  C_7
REMARK    3  A    between atoms: C_8  and  C_9
REMARK    4  A    between atoms: C_21  and  C_22
REMARK    5  A    between atoms: C_22  and  C_23
REMARK    6  A    between atoms: C_23  and  C_24
REMARK    7  A    between atoms: C_24  and  C_25
REMARK                            x       y       z     vdW  Elec       q    Type
REMARK                         _______ _______ _______ _____ _____    ______ ____
ROOT
ATOM      1  C   UNL     1       3.183   5.328  18.399  0.00  0.00    +0.000 A 
ATOM      2  N   UNL     1       3.002   4.162  19.035  0.00  0.00    +0.000 NA
ATOM      3  C   UNL     1       2.400   4.218  20.229  0.00  0.00    +0.000 A 
ATOM      4  N   UNL     1       1.965   5.324  20.838  0.00  0.00    +0.000 NA
ATOM      5  C   UNL     1       2.160   6.469  20.157  0.00  0.00    +0.000 A 
ATOM      6  C   UNL     1       2.778   6.549  18.916  0.00  0.00    +0.000 A 
ENDROOT
BRANCH   1   7
ATOM      7  N   UNL     1       3.771   5.210  17.141  0.00  0.00    +0.000 N 
ATOM      8  H   UNL     1       4.776   5.138  17.287  0.00  0.00    +0.000 HD
ATOM      9  H   UNL     1       3.546   5.982  16.527  0.00  0.00    +0.000 HD
ENDBRANCH   1   7
BRANCH   5  10
ATOM     10  C   UNL     1       1.601   7.617  20.814  0.00  0.00    +0.000 C 
ATOM     11  C   UNL     1       1.091   8.579  21.320  0.00  0.00    +0.000 C 
BRANCH  11  12
ATOM     12  C   UNL     1       0.409   9.713  21.872  0.00  0.00    +0.000 A 
ATOM     13  C   UNL     1      -0.631   9.525  22.766  0.00  0.00    +0.000 A 
ATOM     14  C   UNL     1      -1.313  10.638  23.254  0.00  0.00    +0.000 A 
ATOM     15  C   UNL     1      -0.957  11.929  22.850  0.00  0.00    +0.000 A 
ATOM     16  N   UNL     1      -1.655  12.994  23.395  0.00  0.00    +0.000 N 
ATOM     17  C   UNL     1      -1.054  14.331  23.422  0.00  0.00    +0.000 C 
ATOM     18  C   UNL     1      -1.737  15.100  24.577  0.00  0.00    +0.000 C 
ATOM     19  O   UNL     1      -3.171  15.160  24.413  0.00  0.00    +0.000 OA
ATOM     20  C   UNL     1      -3.732  13.838  24.317  0.00  0.00    +0.000 C 
ATOM     21  C   UNL     1      -3.105  13.050  23.157  0.00  0.00    +0.000 C 
ATOM     22  N   UNL     1       0.082  12.126  22.013  0.00  0.00    +0.000 NA
ATOM     23  C   UNL     1       0.726  11.022  21.534  0.00  0.00    +0.000 A 
ENDBRANCH  11  12
ENDBRANCH   5  10
BRANCH   6  24
ATOM     24  C   UNL     1       2.966   7.851  18.187  0.00  0.00    +0.000 C 
BRANCH  24  25
ATOM     25  C   UNL     1       1.665   8.482  17.675  0.00  0.00    +0.000 C 
BRANCH  25  26
ATOM     26  C   UNL     1       1.514   9.968  18.021  0.00  0.00    +0.000 C 
BRANCH  26  27
ATOM     27  C   UNL     1       0.061  10.382  17.984  0.00  0.00    +0.000 A 
ATOM     28  C   UNL     1      -0.332  11.615  18.524  0.00  0.00    +0.000 A 
ATOM     29  C   UNL     1      -1.680  11.972  18.565  0.00  0.00    +0.000 A 
ATOM     30  C   UNL     1      -2.642  11.097  18.065  0.00  0.00    +0.000 A 
ATOM     31 BR   UNL     1      -4.471  11.564  18.157  0.00  0.00    +0.000 Br
ATOM     32  C   UNL     1      -2.266   9.875  17.512  0.00  0.00    +0.000 A 
ATOM     33  C   UNL     1      -0.916   9.517  17.472  0.00  0.00    +0.000 A 
ENDBRANCH  26  27
ENDBRANCH  25  26
ENDBRANCH  24  25
ENDBRANCH   6  24
TORSDOF 7
ENDMDL
MODEL 7
REMARK VINA RESULT:      -8.3      5.517      7.370
REMARK  Name = 
REMARK  7 active torsions:
REMARK  status: ('A' for Active; 'I' for Inactive)
REMARK    1  A    between atoms: N_1  and  C_2
REMARK    2  A    between atoms: C_6  and  C_7
REMARK    3  A    between atoms: C_8  and  C_9
REMARK    4  A    between atoms: C_21  and  C_22
REMARK    5  A    between atoms: C_22  and  C_23
REMARK    6  A    between atoms: C_23  and  C_24
REMARK    7  A    between atoms: C_24  and  C_25
REMARK                            x       y       z     vdW  Elec       q    Type
REMARK                         _______ _______ _______ _____ _____    ______ ____
ROOT
ATOM      1  C   UNL     1       3.766   2.710  19.224  0.00  0.00    +0.000 A 
ATOM      2  N   UNL     1       2.734   1.947  18.840  0.00  0.00    +0.000 NA
ATOM      3  C   UNL     1       1.619   2.589  18.471  0.00  0.00    +0.000 A 
ATOM      4  N   UNL     1       1.446   3.913  18.450  0.00  0.00    +0.000 NA
ATOM      5  C   UNL     1       2.513   4.638  18.835  0.00  0.00    +0.000 A 
ATOM      6  C   UNL     1       3.722   4.096  19.248  0.00  0.00    +0.000 A 
ENDROOT
BRANCH   1   7
ATOM      7  N   UNL     1       4.917   1.996  19.552  0.00  0.00    +0.000 N 
ATOM      8  H   UNL     1       4.909   1.144  18.994  0.00  0.00    +0.000 HD
ATOM      9  H   UNL     1       4.982   1.785  20.538  0.00  0.00    +0.000 HD
ENDBRANCH   1   7
BRANCH   5  10
ATOM     10  C   UNL     1       2.305   6.053  18.716  0.00  0.00    +0.000 C 
ATOM     11  C   UNL     1       2.112   7.238  18.675  0.00  0.00    +0.000 C 
BRANCH  11  12
ATOM     12  C   UNL     1       1.879   8.653  18.716  0.00  0.00    +0.000 A 
ATOM     13  C   UNL     1       1.088   9.193  19.716  0.00  0.00    +0.000 A 
ATOM     14  C   UNL     1       0.834  10.563  19.710  0.00  0.00    +0.000 A 
ATOM     15  C   UNL     1       1.366  11.385  18.713  0.00  0.00    +0.000 A 
ATOM     16  N   UNL     1       1.100  12.743  18.781  0.00  0.00    +0.000 N 
ATOM     17  C   UNL     1       1.983  13.701  18.109  0.00  0.00    +0.000 C 
ATOM     18  C   UNL     1       1.818  15.049  18.848  0.00  0.00    +0.000 C 
ATOM     19  O   UNL     1       0.446  15.498  18.854  0.00  0.00    +0.000 OA
ATOM     20  C   UNL     1      -0.415  14.512  19.453  0.00  0.00    +0.000 C 
ATOM     21  C   UNL     1      -0.308  13.164  18.726  0.00  0.00    +0.000 C 
ATOM     22  N   UNL     1       2.172  10.876  17.758  0.00  0.00    +0.000 NA
ATOM     23  C   UNL     1       2.395   9.530  17.771  0.00  0.00    +0.000 A 
ENDBRANCH  11  12
ENDBRANCH   5  10
BRANCH   6  24
ATOM     24  C   UNL     1       4.893   4.946  19.661  0.00  0.00    +0.000 C 
BRANCH  24  25
ATOM     25  C   UNL     1       6.120   4.817  18.749  0.00  0.00    +0.000 C 
BRANCH  25  26
ATOM     26  C   UNL     1       6.211   5.900  17.669  0.00  0.00    +0.000 C 
BRANCH  26  27
ATOM     27  C   UNL     1       6.144   5.288  16.289  0.00  0.00    +0.000 A 
ATOM     28  C   UNL     1       5.102   4.409  15.960  0.00  0.00    +0.000 A 
ATOM     29  C   UNL     1       5.074   3.779  14.715  0.00  0.00    +0.000 A 
ATOM     30  C   UNL     1       6.089   4.026  13.794  0.00  0.00    +0.000 A 
ATOM     31 BR   UNL     1       6.072   3.141  12.123  0.00  0.00    +0.000 Br
ATOM     32  C   UNL     1       7.122   4.907  14.099  0.00  0.00    +0.000 A 
ATOM     33  C   UNL     1       7.151   5.538  15.346  0.00  0.00    +0.000 A 
ENDBRANCH  26  27
ENDBRANCH  25  26
ENDBRANCH  24  25
ENDBRANCH   6  24
TORSDOF 7
ENDMDL
MODEL 8
REMARK VINA RESULT:      -8.3      5.869      8.457
REMARK  Name = 
REMARK  7 active torsions:
REMARK  status: ('A' for Active; 'I' for Inactive)
REMARK    1  A    between atoms: N_1  and  C_2
REMARK    2  A    between atoms: C_6  and  C_7
REMARK    3  A    between atoms: C_8  and  C_9
REMARK    4  A    between atoms: C_21  and  C_22
REMARK    5  A    between atoms: C_22  and  C_23
REMARK    6  A    between atoms: C_23  and  C_24
REMARK    7  A    between atoms: C_24  and  C_25
REMARK                            x       y       z     vdW  Elec       q    Type
REMARK                         _______ _______ _______ _____ _____    ______ ____
ROOT
ATOM      1  C   UNL     1       3.266   3.167  19.269  0.00  0.00    +0.000 A 
ATOM      2  N   UNL     1       2.477   2.230  19.812  0.00  0.00    +0.000 NA
ATOM      3  C   UNL     1       1.494   2.663  20.610  0.00  0.00    +0.000 A 
ATOM      4  N   UNL     1       1.231   3.938  20.911  0.00  0.00    +0.000 NA
ATOM      5  C   UNL     1       2.044   4.843  20.335  0.00  0.00    +0.000 A 
ATOM      6  C   UNL     1       3.103   4.526  19.496  0.00  0.00    +0.000 A 
ENDROOT
BRANCH   1   7
ATOM      7  N   UNL     1       4.243   2.668  18.409  0.00  0.00    +0.000 N 
ATOM      8  H   UNL     1       4.669   3.469  17.944  0.00  0.00    +0.000 HD
ATOM      9  H   UNL     1       3.876   2.009  17.736  0.00  0.00    +0.000 HD
ENDBRANCH   1   7
BRANCH   5  10
ATOM     10  C   UNL     1       1.669   6.199  20.622  0.00  0.00    +0.000 C 
ATOM     11  C   UNL     1       1.303   7.312  20.889  0.00  0.00    +0.000 C 
BRANCH  11  12
ATOM     12  C   UNL     1       0.808   8.604  21.265  0.00  0.00    +0.000 A 
ATOM     13  C   UNL     1       0.133   8.762  22.463  0.00  0.00    +0.000 A 
ATOM     14  C   UNL     1      -0.383  10.014  22.787  0.00  0.00    +0.000 A 
ATOM     15  C   UNL     1      -0.226  11.100  21.920  0.00  0.00    +0.000 A 
ATOM     16  N   UNL     1      -0.737  12.325  22.315  0.00  0.00    +0.000 N 
ATOM     17  C   UNL     1      -0.206  13.565  21.739  0.00  0.00    +0.000 C 
ATOM     18  C   UNL     1      -0.490  14.687  22.765  0.00  0.00    +0.000 C 
ATOM     19  O   UNL     1      -1.897  14.797  23.070  0.00  0.00    +0.000 OA
ATOM     20  C   UNL     1      -2.414  13.549  23.567  0.00  0.00    +0.000 C 
ATOM     21  C   UNL     1      -2.185  12.411  22.561  0.00  0.00    +0.000 C 
ATOM     22  N   UNL     1       0.467  10.968  20.770  0.00  0.00    +0.000 NA
ATOM     23  C   UNL     1       0.950   9.729  20.463  0.00  0.00    +0.000 A 
ENDBRANCH  11  12
ENDBRANCH   5  10
BRANCH   6  24
ATOM     24  C   UNL     1       3.980   5.573  18.866  0.00  0.00    +0.000 C 
BRANCH  24  25
ATOM     25  C   UNL     1       5.445   5.525  19.317  0.00  0.00    +0.000 C 
BRANCH  25  26
ATOM     26  C   UNL     1       6.419   6.212  18.352  0.00  0.00    +0.000 C 
BRANCH  26  27
ATOM     27  C   UNL     1       6.318   5.610  16.970  0.00  0.00    +0.000 A 
ATOM     28  C   UNL     1       5.500   6.210  16.001  0.00  0.00    +0.000 A 
ATOM     29  C   UNL     1       5.339   5.621  14.747  0.00  0.00    +0.000 A 
ATOM     30  C   UNL     1       5.996   4.427  14.456  0.00  0.00    +0.000 A 
ATOM     31 BR   UNL     1       5.747   3.607  12.771  0.00  0.00    +0.000 Br
ATOM     32  C   UNL     1       6.823   3.826  15.402  0.00  0.00    +0.000 A 
ATOM     33  C   UNL     1       6.983   4.417  16.659  0.00  0.00    +0.000 A 
ENDBRANCH  26  27
ENDBRANCH  25  26
ENDBRANCH  24  25
ENDBRANCH   6  24
TORSDOF 7
ENDMDL
MODEL 9
REMARK VINA RESULT:      -8.3      5.539      7.372
REMARK  Name = 
REMARK  7 active torsions:
REMARK  status: ('A' for Active; 'I' for Inactive)
REMARK    1  A    between atoms: N_1  and  C_2
REMARK    2  A    between atoms: C_6  and  C_7
REMARK    3  A    between atoms: C_8  and  C_9
REMARK    4  A    between atoms: C_21  and  C_22
REMARK    5  A    between atoms: C_22  and  C_23
REMARK    6  A    between atoms: C_23  and  C_24
REMARK    7  A    between atoms: C_24  and  C_25
REMARK                            x       y       z     vdW  Elec       q    Type
REMARK                         _______ _______ _______ _____ _____    ______ ____
ROOT
ATOM      1  C   UNL     1       3.664   2.582  19.133  0.00  0.00    +0.000 A 
ATOM      2  N   UNL     1       2.632   1.899  18.619  0.00  0.00    +0.000 NA
ATOM      3  C   UNL     1       1.562   2.616  18.253  0.00  0.00    +0.000 A 
ATOM      4  N   UNL     1       1.434   3.942  18.352  0.00  0.00    +0.000 NA
ATOM      5  C   UNL     1       2.500   4.585  18.866  0.00  0.00    +0.000 A 
ATOM      6  C   UNL     1       3.664   3.960  19.291  0.00  0.00    +0.000 A 
ENDROOT
BRANCH   1   7
ATOM      7  N   UNL     1       4.769   1.796  19.454  0.00  0.00    +0.000 N 
ATOM      8  H   UNL     1       5.517   2.056  18.812  0.00  0.00    +0.000 HD
ATOM      9  H   UNL     1       4.576   0.805  19.405  0.00  0.00    +0.000 HD
ENDBRANCH   1   7
BRANCH   5  10
ATOM     10  C   UNL     1       2.345   6.012  18.875  0.00  0.00    +0.000 C 
ATOM     11  C   UNL     1       2.155   7.198  18.887  0.00  0.00    +0.000 C 
BRANCH  11  12
ATOM     12  C   UNL     1       1.844   8.597  18.934  0.00  0.00    +0.000 A 
ATOM     13  C   UNL     1       2.290   9.437  17.927  0.00  0.00    +0.000 A 
ATOM     14  C   UNL     1       2.019  10.800  18.015  0.00  0.00    +0.000 A 
ATOM     15  C   UNL     1       1.309  11.321  19.102  0.00  0.00    +0.000 A 
ATOM     16  N   UNL     1       1.048  12.681  19.115  0.00  0.00    +0.000 N 
ATOM     17  C   UNL     1      -0.066  13.209  19.909  0.00  0.00    +0.000 C 
ATOM     18  C   UNL     1      -0.475  14.552  19.260  0.00  0.00    +0.000 C 
ATOM     19  O   UNL     1       0.629  15.481  19.200  0.00  0.00    +0.000 OA
ATOM     20  C   UNL     1       1.738  14.915  18.477  0.00  0.00    +0.000 C 
ATOM     21  C   UNL     1       2.200  13.595  19.111  0.00  0.00    +0.000 C 
ATOM     22  N   UNL     1       0.833  10.506  20.067  0.00  0.00    +0.000 NA
ATOM     23  C   UNL     1       1.123   9.176  19.970  0.00  0.00    +0.000 A 
ENDBRANCH  11  12
ENDBRANCH   5  10
BRANCH   6  24
ATOM     24  C   UNL     1       4.835   4.720  19.850  0.00  0.00    +0.000 C 
BRANCH  24  25
ATOM     25  C   UNL     1       6.037   4.815  18.903  0.00  0.00    +0.000 C 
BRANCH  25  26
ATOM     26  C   UNL     1       5.917   5.924  17.851  0.00  0.00    +0.000 C 
BRANCH  26  27
ATOM     27  C   UNL     1       5.973   5.348  16.456  0.00  0.00    +0.000 A 
ATOM     28  C   UNL     1       4.918   4.555  15.981  0.00  0.00    +0.000 A 
ATOM     29  C   UNL     1       4.995   3.954  14.723  0.00  0.00    +0.000 A 
ATOM     30  C   UNL     1       6.128   4.144  13.935  0.00  0.00    +0.000 A 
ATOM     31 BR   UNL     1       6.249   3.298  12.249  0.00  0.00    +0.000 Br
ATOM     32  C   UNL     1       7.177   4.940  14.387  0.00  0.00    +0.000 A 
ATOM     33  C   UNL     1       7.100   5.541  15.647  0.00  0.00    +0.000 A 
ENDBRANCH  26  27
ENDBRANCH  25  26
ENDBRANCH  24  25
ENDBRANCH   6  24
TORSDOF 7
ENDMDL
