MODEL 1
REMARK VINA RESULT:      -7.9      0.000      0.000
REMARK  Name = 
REMARK  11 active torsions:
REMARK  status: ('A' for Active; 'I' for Inactive)
REMARK    1  A    between atoms: C_1  and  O_2
REMARK    2  A    between atoms: O_2  and  C_3
REMARK    3  A    between atoms: C_6  and  N_7
REMARK    4  A    between atoms: C_13  and  C_14
REMARK    5  A    between atoms: C_13  and  C_15
REMARK    6  A    between atoms: C_17  and  N_18
REMARK    7  A    between atoms: C_19  and  C_21
REMARK    8  A    between atoms: C_21  and  C_22
REMARK    9  A    between atoms: C_22  and  C_23
REMARK   10  A    between atoms: C_24  and  C_25
REMARK   11  A    between atoms: C_28  and  C_29
REMARK                            x       y       z     vdW  Elec       q    Type
REMARK                         _______ _______ _______ _____ _____    ______ ____
ROOT
ATOM      1  N   UNL     1       0.676   9.815  19.399  0.00  0.00    +0.000 N 
ATOM      2  N   UNL     1       0.925  10.585  20.495  0.00  0.00    +0.000 NA
ATOM      3  C   UNL     1       0.071  11.606  20.394  0.00  0.00    +0.000 A 
ATOM      4  C   UNL     1      -0.853  11.435  19.350  0.00  0.00    +0.000 A 
ATOM      5  C   UNL     1      -0.430  10.291  18.712  0.00  0.00    +0.000 A 
ATOM      6  C   UNL     1      -1.063   9.661  17.533  0.00  0.00    +0.000 C 
ATOM      7  C   UNL     1      -2.455  10.253  17.187  0.00  0.00    +0.000 C 
ATOM      8  C   UNL     1      -3.554   9.324  17.745  0.00  0.00    +0.000 C 
ATOM      9  C   UNL     1      -2.573  10.238  15.643  0.00  0.00    +0.000 C 
ATOM     10  C   UNL     1      -2.707  11.724  17.652  0.00  0.00    +0.000 C 
ATOM     11  C   UNL     1      -2.017  12.260  18.935  0.00  0.00    +0.000 C 
ENDROOT
BRANCH   1  15
ATOM     12  C   UNL     1       3.049   6.413  18.527  0.00  0.00    +0.000 A 
ATOM     13  C   UNL     1       2.399   6.538  19.757  0.00  0.00    +0.000 A 
ATOM     14  C   UNL     1       1.636   7.672  20.056  0.00  0.00    +0.000 A 
ATOM     15  C   UNL     1       1.497   8.691  19.110  0.00  0.00    +0.000 A 
ATOM     16  C   UNL     1       2.183   8.584  17.893  0.00  0.00    +0.000 A 
ATOM     17  C   UNL     1       2.954   7.452  17.605  0.00  0.00    +0.000 A 
BRANCH  12  19
ATOM     18  C   UNL     1       5.109   5.435  17.887  0.00  0.00    +0.000 C 
ATOM     19  O   UNL     1       3.778   5.268  18.359  0.00  0.00    +0.000 OA
ENDBRANCH  12  19
ENDBRANCH   1  15
BRANCH  11  20
ATOM     20  N   UNL     1      -2.948  12.379  20.046  0.00  0.00    +0.000 N 
ATOM     21  C   UNL     1      -3.047  13.554  20.769  0.00  0.00    +0.000 C 
ATOM     22  O   UNL     1      -2.386  14.552  20.497  0.00  0.00    +0.000 OA
ATOM     23  H   UNL     1      -3.478  11.565  20.333  0.00  0.00    +0.000 HD
BRANCH  21  24
ATOM     24  C   UNL     1      -4.014  13.494  21.924  0.00  0.00    +0.000 C 
BRANCH  24  25
ATOM     25  C   UNL     1      -5.439  13.833  21.479  0.00  0.00    +0.000 C 
BRANCH  25  26
ATOM     26  C   UNL     1      -6.398  12.711  21.709  0.00  0.00    +0.000 A 
ATOM     27  C   UNL     1      -7.162  12.414  22.873  0.00  0.00    +0.000 A 
ATOM     28  C   UNL     1      -7.215  13.119  24.175  0.00  0.00    +0.000 C 
ATOM     29  N   UNL     1      -7.916  11.322  22.697  0.00  0.00    +0.000 NA
ATOM     30  O   UNL     1      -7.640  10.873  21.424  0.00  0.00    +0.000 OA
ATOM     31  C   UNL     1      -6.733  11.696  20.840  0.00  0.00    +0.000 A 
ATOM     32  C   UNL     1      -6.313  11.331  19.471  0.00  0.00    +0.000 C 
ENDBRANCH  25  26
ENDBRANCH  24  25
ENDBRANCH  21  24
ENDBRANCH  11  20
TORSDOF 6
ENDMDL
MODEL 2
REMARK VINA RESULT:      -7.4      2.530      9.465
REMARK  Name = 
REMARK  11 active torsions:
REMARK  status: ('A' for Active; 'I' for Inactive)
REMARK    1  A    between atoms: C_1  and  O_2
REMARK    2  A    between atoms: O_2  and  C_3
REMARK    3  A    between atoms: C_6  and  N_7
REMARK    4  A    between atoms: C_13  and  C_14
REMARK    5  A    between atoms: C_13  and  C_15
REMARK    6  A    between atoms: C_17  and  N_18
REMARK    7  A    between atoms: C_19  and  C_21
REMARK    8  A    between atoms: C_21  and  C_22
REMARK    9  A    between atoms: C_22  and  C_23
REMARK   10  A    between atoms: C_24  and  C_25
REMARK   11  A    between atoms: C_28  and  C_29
REMARK                            x       y       z     vdW  Elec       q    Type
REMARK                         _______ _______ _______ _____ _____    ______ ____
ROOT
ATOM      1  N   UNL     1      -2.768  11.015  18.110  0.00  0.00    +0.000 N 
ATOM      2  N   UNL     1      -2.546   9.974  17.260  0.00  0.00    +0.000 NA
ATOM      3  C   UNL     1      -1.225   9.780  17.299  0.00  0.00    +0.000 A 
ATOM      4  C   UNL     1      -0.595  10.555  18.286  0.00  0.00    +0.000 A 
ATOM      5  C   UNL     1      -1.602  11.355  18.777  0.00  0.00    +0.000 A 
ATOM      6  C   UNL     1      -1.471  12.368  19.847  0.00  0.00    +0.000 C 
ATOM      7  C   UNL     1      -0.120  12.297  20.606  0.00  0.00    +0.000 C 
ATOM      8  C   UNL     1      -0.321  11.535  21.932  0.00  0.00    +0.000 C 
ATOM      9  C   UNL     1       0.267  13.755  20.961  0.00  0.00    +0.000 C 
ATOM     10  C   UNL     1       1.079  11.686  19.810  0.00  0.00    +0.000 C 
ATOM     11  C   UNL     1       0.821  10.595  18.736  0.00  0.00    +0.000 C 
ENDROOT
BRANCH   1  15
ATOM     12  C   UNL     1      -6.600  12.790  18.468  0.00  0.00    +0.000 A 
ATOM     13  C   UNL     1      -5.807  12.562  19.595  0.00  0.00    +0.000 A 
ATOM     14  C   UNL     1      -4.553  11.953  19.481  0.00  0.00    +0.000 A 
ATOM     15  C   UNL     1      -4.067  11.583  18.224  0.00  0.00    +0.000 A 
ATOM     16  C   UNL     1      -4.880  11.774  17.099  0.00  0.00    +0.000 A 
ATOM     17  C   UNL     1      -6.138  12.373  17.221  0.00  0.00    +0.000 A 
BRANCH  12  19
ATOM     18  C   UNL     1      -7.916  14.136  19.906  0.00  0.00    +0.000 C 
ATOM     19  O   UNL     1      -7.812  13.376  18.708  0.00  0.00    +0.000 OA
ENDBRANCH  12  19
ENDBRANCH   1  15
BRANCH  11  20
ATOM     20  N   UNL     1       1.222   9.274  19.192  0.00  0.00    +0.000 N 
ATOM     21  C   UNL     1       2.047   8.475  18.421  0.00  0.00    +0.000 C 
ATOM     22  O   UNL     1       2.498   8.843  17.342  0.00  0.00    +0.000 OA
ATOM     23  H   UNL     1       0.834   8.912  20.055  0.00  0.00    +0.000 HD
BRANCH  21  24
ATOM     24  C   UNL     1       2.320   7.113  19.010  0.00  0.00    +0.000 C 
BRANCH  24  25
ATOM     25  C   UNL     1       1.933   5.996  18.038  0.00  0.00    +0.000 C 
BRANCH  25  26
ATOM     26  C   UNL     1       2.541   4.681  18.399  0.00  0.00    +0.000 A 
ATOM     27  C   UNL     1       2.136   3.753  19.399  0.00  0.00    +0.000 A 
ATOM     28  C   UNL     1       1.013   3.833  20.363  0.00  0.00    +0.000 C 
ATOM     29  N   UNL     1       2.932   2.678  19.422  0.00  0.00    +0.000 NA
ATOM     30  O   UNL     1       3.887   2.894  18.451  0.00  0.00    +0.000 OA
ATOM     31  C   UNL     1       3.658   4.088  17.849  0.00  0.00    +0.000 A 
ATOM     32  C   UNL     1       4.618   4.478  16.795  0.00  0.00    +0.000 C 
ENDBRANCH  25  26
ENDBRANCH  24  25
ENDBRANCH  21  24
ENDBRANCH  11  20
TORSDOF 6
ENDMDL
MODEL 3
REMARK VINA RESULT:      -7.4      2.456      9.746
REMARK  Name = 
REMARK  11 active torsions:
REMARK  status: ('A' for Active; 'I' for Inactive)
REMARK    1  A    between atoms: C_1  and  O_2
REMARK    2  A    between atoms: O_2  and  C_3
REMARK    3  A    between atoms: C_6  and  N_7
REMARK    4  A    between atoms: C_13  and  C_14
REMARK    5  A    between atoms: C_13  and  C_15
REMARK    6  A    between atoms: C_17  and  N_18
REMARK    7  A    between atoms: C_19  and  C_21
REMARK    8  A    between atoms: C_21  and  C_22
REMARK    9  A    between atoms: C_22  and  C_23
REMARK   10  A    between atoms: C_24  and  C_25
REMARK   11  A    between atoms: C_28  and  C_29
REMARK                            x       y       z     vdW  Elec       q    Type
REMARK                         _______ _______ _______ _____ _____    ______ ____
ROOT
ATOM      1  N   UNL     1      -2.815  11.126  18.177  0.00  0.00    +0.000 N 
ATOM      2  N   UNL     1      -2.694   9.969  17.469  0.00  0.00    +0.000 NA
ATOM      3  C   UNL     1      -1.381   9.734  17.423  0.00  0.00    +0.000 A 
ATOM      4  C   UNL     1      -0.646  10.615  18.233  0.00  0.00    +0.000 A 
ATOM      5  C   UNL     1      -1.586  11.513  18.688  0.00  0.00    +0.000 A 
ATOM      6  C   UNL     1      -1.337  12.660  19.589  0.00  0.00    +0.000 C 
ATOM      7  C   UNL     1       0.074  12.647  20.233  0.00  0.00    +0.000 C 
ATOM      8  C   UNL     1      -0.027  12.085  21.666  0.00  0.00    +0.000 C 
ATOM      9  C   UNL     1       0.526  14.125  20.343  0.00  0.00    +0.000 C 
ATOM     10  C   UNL     1       1.183  11.887  19.434  0.00  0.00    +0.000 C 
ATOM     11  C   UNL     1       0.804  10.667  18.552  0.00  0.00    +0.000 C 
ENDROOT
BRANCH   1  15
ATOM     12  C   UNL     1      -6.556  13.072  18.601  0.00  0.00    +0.000 A 
ATOM     13  C   UNL     1      -5.676  12.967  19.681  0.00  0.00    +0.000 A 
ATOM     14  C   UNL     1      -4.452  12.303  19.549  0.00  0.00    +0.000 A 
ATOM     15  C   UNL     1      -4.084  11.751  18.319  0.00  0.00    +0.000 A 
ATOM     16  C   UNL     1      -4.985  11.820  17.248  0.00  0.00    +0.000 A 
ATOM     17  C   UNL     1      -6.213  12.476  17.390  0.00  0.00    +0.000 A 
BRANCH  12  19
ATOM     18  C   UNL     1      -7.908  14.196  20.189  0.00  0.00    +0.000 C 
ATOM     19  O   UNL     1      -7.728  13.728  18.858  0.00  0.00    +0.000 OA
ENDBRANCH  12  19
ENDBRANCH   1  15
BRANCH  11  20
ATOM     20  N   UNL     1       1.212   9.409  19.156  0.00  0.00    +0.000 N 
ATOM     21  C   UNL     1       2.004   8.511  18.464  0.00  0.00    +0.000 C 
ATOM     22  O   UNL     1       2.421   8.737  17.332  0.00  0.00    +0.000 OA
ATOM     23  H   UNL     1       0.852   9.162  20.070  0.00  0.00    +0.000 HD
BRANCH  21  24
ATOM     24  C   UNL     1       2.288   7.231  19.209  0.00  0.00    +0.000 C 
BRANCH  24  25
ATOM     25  C   UNL     1       2.344   6.032  18.259  0.00  0.00    +0.000 C 
BRANCH  25  26
ATOM     26  C   UNL     1       3.618   5.261  18.376  0.00  0.00    +0.000 A 
ATOM     27  C   UNL     1       3.940   4.197  19.267  0.00  0.00    +0.000 A 
ATOM     28  C   UNL     1       3.115   3.568  20.325  0.00  0.00    +0.000 C 
ATOM     29  N   UNL     1       5.187   3.754  19.068  0.00  0.00    +0.000 NA
ATOM     30  O   UNL     1       5.710   4.534  18.060  0.00  0.00    +0.000 OA
ATOM     31  C   UNL     1       4.779   5.434  17.654  0.00  0.00    +0.000 A 
ATOM     32  C   UNL     1       5.199   6.366  16.588  0.00  0.00    +0.000 C 
ENDBRANCH  25  26
ENDBRANCH  24  25
ENDBRANCH  21  24
ENDBRANCH  11  20
TORSDOF 6
ENDMDL
MODEL 4
REMARK VINA RESULT:      -7.3      0.588      1.045
REMARK  Name = 
REMARK  11 active torsions:
REMARK  status: ('A' for Active; 'I' for Inactive)
REMARK    1  A    between atoms: C_1  and  O_2
REMARK    2  A    between atoms: O_2  and  C_3
REMARK    3  A    between atoms: C_6  and  N_7
REMARK    4  A    between atoms: C_13  and  C_14
REMARK    5  A    between atoms: C_13  and  C_15
REMARK    6  A    between atoms: C_17  and  N_18
REMARK    7  A    between atoms: C_19  and  C_21
REMARK    8  A    between atoms: C_21  and  C_22
REMARK    9  A    between atoms: C_22  and  C_23
REMARK   10  A    between atoms: C_24  and  C_25
REMARK   11  A    between atoms: C_28  and  C_29
REMARK                            x       y       z     vdW  Elec       q    Type
REMARK                         _______ _______ _______ _____ _____    ______ ____
ROOT
ATOM      1  N   UNL     1       0.807   9.848  19.407  0.00  0.00    +0.000 N 
ATOM      2  N   UNL     1       1.127  10.749  20.377  0.00  0.00    +0.000 NA
ATOM      3  C   UNL     1       0.344  11.802  20.135  0.00  0.00    +0.000 A 
ATOM      4  C   UNL     1      -0.607  11.548  19.133  0.00  0.00    +0.000 A 
ATOM      5  C   UNL     1      -0.275  10.296  18.666  0.00  0.00    +0.000 A 
ATOM      6  C   UNL     1      -0.969   9.549  17.594  0.00  0.00    +0.000 C 
ATOM      7  C   UNL     1      -2.322  10.181  17.175  0.00  0.00    +0.000 C 
ATOM      8  C   UNL     1      -3.473   9.422  17.869  0.00  0.00    +0.000 C 
ATOM      9  C   UNL     1      -2.467   9.951  15.650  0.00  0.00    +0.000 C 
ATOM     10  C   UNL     1      -2.465  11.718  17.422  0.00  0.00    +0.000 C 
ATOM     11  C   UNL     1      -1.718  12.384  18.610  0.00  0.00    +0.000 C 
ENDROOT
BRANCH   1  15
ATOM     12  C   UNL     1       3.083   6.291  19.042  0.00  0.00    +0.000 A 
ATOM     13  C   UNL     1       3.088   7.253  18.029  0.00  0.00    +0.000 A 
ATOM     14  C   UNL     1       2.318   8.416  18.137  0.00  0.00    +0.000 A 
ATOM     15  C   UNL     1       1.545   8.639  19.279  0.00  0.00    +0.000 A 
ATOM     16  C   UNL     1       1.507   7.655  20.276  0.00  0.00    +0.000 A 
ATOM     17  C   UNL     1       2.271   6.488  20.156  0.00  0.00    +0.000 A 
BRANCH  12  19
ATOM     18  C   UNL     1       5.188   5.442  18.364  0.00  0.00    +0.000 C 
ATOM     19  O   UNL     1       3.862   5.191  18.814  0.00  0.00    +0.000 OA
ENDBRANCH  12  19
ENDBRANCH   1  15
BRANCH  11  20
ATOM     20  N   UNL     1      -2.620  12.728  19.697  0.00  0.00    +0.000 N 
ATOM     21  C   UNL     1      -2.438  13.883  20.435  0.00  0.00    +0.000 C 
ATOM     22  O   UNL     1      -1.536  14.681  20.197  0.00  0.00    +0.000 OA
ATOM     23  H   UNL     1      -3.349  12.074  19.958  0.00  0.00    +0.000 HD
BRANCH  21  24
ATOM     24  C   UNL     1      -3.422  14.062  21.564  0.00  0.00    +0.000 C 
BRANCH  24  25
ATOM     25  C   UNL     1      -4.844  14.270  21.038  0.00  0.00    +0.000 C 
BRANCH  25  26
ATOM     26  C   UNL     1      -5.790  13.211  21.499  0.00  0.00    +0.000 A 
ATOM     27  C   UNL     1      -6.432  13.074  22.762  0.00  0.00    +0.000 A 
ATOM     28  C   UNL     1      -6.336  13.929  23.969  0.00  0.00    +0.000 C 
ATOM     29  N   UNL     1      -7.217  11.990  22.798  0.00  0.00    +0.000 NA
ATOM     30  O   UNL     1      -7.084  11.386  21.566  0.00  0.00    +0.000 OA
ATOM     31  C   UNL     1      -6.231  12.109  20.797  0.00  0.00    +0.000 A 
ATOM     32  C   UNL     1      -5.964  11.574  19.446  0.00  0.00    +0.000 C 
ENDBRANCH  25  26
ENDBRANCH  24  25
ENDBRANCH  21  24
ENDBRANCH  11  20
TORSDOF 6
ENDMDL
MODEL 5
REMARK VINA RESULT:      -7.3      2.559      9.545
REMARK  Name = 
REMARK  11 active torsions:
REMARK  status: ('A' for Active; 'I' for Inactive)
REMARK    1  A    between atoms: C_1  and  O_2
REMARK    2  A    between atoms: O_2  and  C_3
REMARK    3  A    between atoms: C_6  and  N_7
REMARK    4  A    between atoms: C_13  and  C_14
REMARK    5  A    between atoms: C_13  and  C_15
REMARK    6  A    between atoms: C_17  and  N_18
REMARK    7  A    between atoms: C_19  and  C_21
REMARK    8  A    between atoms: C_21  and  C_22
REMARK    9  A    between atoms: C_22  and  C_23
REMARK   10  A    between atoms: C_24  and  C_25
REMARK   11  A    between atoms: C_28  and  C_29
REMARK                            x       y       z     vdW  Elec       q    Type
REMARK                         _______ _______ _______ _____ _____    ______ ____
ROOT
ATOM      1  N   UNL     1      -2.763  10.871  18.400  0.00  0.00    +0.000 N 
ATOM      2  N   UNL     1      -2.473   9.935  17.454  0.00  0.00    +0.000 NA
ATOM      3  C   UNL     1      -1.146   9.800  17.505  0.00  0.00    +0.000 A 
ATOM      4  C   UNL     1      -0.573  10.497  18.581  0.00  0.00    +0.000 A 
ATOM      5  C   UNL     1      -1.628  11.195  19.127  0.00  0.00    +0.000 A 
ATOM      6  C   UNL     1      -1.568  12.096  20.298  0.00  0.00    +0.000 C 
ATOM      7  C   UNL     1      -0.230  12.011  21.077  0.00  0.00    +0.000 C 
ATOM      8  C   UNL     1      -0.419  11.107  22.313  0.00  0.00    +0.000 C 
ATOM      9  C   UNL     1       0.078  13.441  21.590  0.00  0.00    +0.000 C 
ATOM     10  C   UNL     1       1.013  11.543  20.253  0.00  0.00    +0.000 C 
ATOM     11  C   UNL     1       0.829  10.558  19.067  0.00  0.00    +0.000 C 
ENDROOT
BRANCH   1  15
ATOM     12  C   UNL     1      -6.697  12.405  18.764  0.00  0.00    +0.000 A 
ATOM     13  C   UNL     1      -5.625  13.019  19.416  0.00  0.00    +0.000 A 
ATOM     14  C   UNL     1      -4.330  12.499  19.317  0.00  0.00    +0.000 A 
ATOM     15  C   UNL     1      -4.090  11.362  18.541  0.00  0.00    +0.000 A 
ATOM     16  C   UNL     1      -5.172  10.723  17.921  0.00  0.00    +0.000 A 
ATOM     17  C   UNL     1      -6.467  11.242  18.033  0.00  0.00    +0.000 A 
BRANCH  12  19
ATOM     18  C   UNL     1      -7.917  14.222  19.673  0.00  0.00    +0.000 C 
ATOM     19  O   UNL     1      -7.916  12.996  18.950  0.00  0.00    +0.000 OA
ENDBRANCH  12  19
ENDBRANCH   1  15
BRANCH  11  20
ATOM     20  N   UNL     1       1.287   9.218  19.395  0.00  0.00    +0.000 N 
ATOM     21  C   UNL     1       2.102   8.511  18.529  0.00  0.00    +0.000 C 
ATOM     22  O   UNL     1       2.499   8.982  17.468  0.00  0.00    +0.000 OA
ATOM     23  H   UNL     1       0.944   8.773  20.239  0.00  0.00    +0.000 HD
BRANCH  21  24
ATOM     24  C   UNL     1       2.437   7.115  18.990  0.00  0.00    +0.000 C 
BRANCH  24  25
ATOM     25  C   UNL     1       2.033   6.070  17.949  0.00  0.00    +0.000 C 
BRANCH  25  26
ATOM     26  C   UNL     1       2.548   4.705  18.271  0.00  0.00    +0.000 A 
ATOM     27  C   UNL     1       3.652   4.010  17.702  0.00  0.00    +0.000 A 
ATOM     28  C   UNL     1       4.588   4.433  16.634  0.00  0.00    +0.000 C 
ATOM     29  N   UNL     1       3.807   2.801  18.255  0.00  0.00    +0.000 NA
ATOM     30  O   UNL     1       2.792   2.675  19.179  0.00  0.00    +0.000 OA
ATOM     31  C   UNL     1       2.040   3.805  19.183  0.00  0.00    +0.000 A 
ATOM     32  C   UNL     1       0.889   3.815  20.110  0.00  0.00    +0.000 C 
ENDBRANCH  25  26
ENDBRANCH  24  25
ENDBRANCH  21  24
ENDBRANCH  11  20
TORSDOF 6
ENDMDL
MODEL 6
REMARK VINA RESULT:      -7.3      2.510      9.912
REMARK  Name = 
REMARK  11 active torsions:
REMARK  status: ('A' for Active; 'I' for Inactive)
REMARK    1  A    between atoms: C_1  and  O_2
REMARK    2  A    between atoms: O_2  and  C_3
REMARK    3  A    between atoms: C_6  and  N_7
REMARK    4  A    between atoms: C_13  and  C_14
REMARK    5  A    between atoms: C_13  and  C_15
REMARK    6  A    between atoms: C_17  and  N_18
REMARK    7  A    between atoms: C_19  and  C_21
REMARK    8  A    between atoms: C_21  and  C_22
REMARK    9  A    between atoms: C_22  and  C_23
REMARK   10  A    between atoms: C_24  and  C_25
REMARK   11  A    between atoms: C_28  and  C_29
REMARK                            x       y       z     vdW  Elec       q    Type
REMARK                         _______ _______ _______ _____ _____    ______ ____
ROOT
ATOM      1  N   UNL     1      -2.792  10.870  18.356  0.00  0.00    +0.000 N 
ATOM      2  N   UNL     1      -2.524   9.944  17.394  0.00  0.00    +0.000 NA
ATOM      3  C   UNL     1      -1.198   9.794  17.425  0.00  0.00    +0.000 A 
ATOM      4  C   UNL     1      -0.604  10.472  18.502  0.00  0.00    +0.000 A 
ATOM      5  C   UNL     1      -1.643  11.173  19.071  0.00  0.00    +0.000 A 
ATOM      6  C   UNL     1      -1.559  12.058  20.253  0.00  0.00    +0.000 C 
ATOM      7  C   UNL     1      -0.211  11.950  21.013  0.00  0.00    +0.000 C 
ATOM      8  C   UNL     1      -0.393  11.031  22.240  0.00  0.00    +0.000 C 
ATOM      9  C   UNL     1       0.118  13.369  21.539  0.00  0.00    +0.000 C 
ATOM     10  C   UNL     1       1.016  11.479  20.166  0.00  0.00    +0.000 C 
ATOM     11  C   UNL     1       0.806  10.512  18.970  0.00  0.00    +0.000 C 
ENDROOT
BRANCH   1  15
ATOM     12  C   UNL     1      -6.706  12.436  18.787  0.00  0.00    +0.000 A 
ATOM     13  C   UNL     1      -5.608  13.081  19.362  0.00  0.00    +0.000 A 
ATOM     14  C   UNL     1      -4.319  12.552  19.242  0.00  0.00    +0.000 A 
ATOM     15  C   UNL     1      -4.111  11.373  18.521  0.00  0.00    +0.000 A 
ATOM     16  C   UNL     1      -5.218  10.704  17.980  0.00  0.00    +0.000 A 
ATOM     17  C   UNL     1      -6.507  11.234  18.114  0.00  0.00    +0.000 A 
BRANCH  12  19
ATOM     18  C   UNL     1      -7.916  14.178  19.843  0.00  0.00    +0.000 C 
ATOM     19  O   UNL     1      -7.916  13.041  18.988  0.00  0.00    +0.000 OA
ENDBRANCH  12  19
ENDBRANCH   1  15
BRANCH  11  20
ATOM     20  N   UNL     1       1.254   9.162  19.275  0.00  0.00    +0.000 N 
ATOM     21  C   UNL     1       2.109   8.487  18.423  0.00  0.00    +0.000 C 
ATOM     22  O   UNL     1       2.551   8.993  17.396  0.00  0.00    +0.000 OA
ATOM     23  H   UNL     1       0.876   8.690  20.088  0.00  0.00    +0.000 HD
BRANCH  21  24
ATOM     24  C   UNL     1       2.429   7.077  18.853  0.00  0.00    +0.000 C 
BRANCH  24  25
ATOM     25  C   UNL     1       3.141   6.302  17.743  0.00  0.00    +0.000 C 
BRANCH  25  26
ATOM     26  C   UNL     1       4.304   5.511  18.246  0.00  0.00    +0.000 A 
ATOM     27  C   UNL     1       5.696   5.765  18.082  0.00  0.00    +0.000 A 
ATOM     28  C   UNL     1       6.377   6.868  17.364  0.00  0.00    +0.000 C 
ATOM     29  N   UNL     1       6.439   4.828  18.682  0.00  0.00    +0.000 NA
ATOM     30  O   UNL     1       5.546   3.931  19.231  0.00  0.00    +0.000 OA
ATOM     31  C   UNL     1       4.278   4.335  18.965  0.00  0.00    +0.000 A 
ATOM     32  C   UNL     1       3.200   3.460  19.469  0.00  0.00    +0.000 C 
ENDBRANCH  25  26
ENDBRANCH  24  25
ENDBRANCH  21  24
ENDBRANCH  11  20
TORSDOF 6
ENDMDL
MODEL 7
REMARK VINA RESULT:      -7.2      0.818      1.630
REMARK  Name = 
REMARK  11 active torsions:
REMARK  status: ('A' for Active; 'I' for Inactive)
REMARK    1  A    between atoms: C_1  and  O_2
REMARK    2  A    between atoms: O_2  and  C_3
REMARK    3  A    between atoms: C_6  and  N_7
REMARK    4  A    between atoms: C_13  and  C_14
REMARK    5  A    between atoms: C_13  and  C_15
REMARK    6  A    between atoms: C_17  and  N_18
REMARK    7  A    between atoms: C_19  and  C_21
REMARK    8  A    between atoms: C_21  and  C_22
REMARK    9  A    between atoms: C_22  and  C_23
REMARK   10  A    between atoms: C_24  and  C_25
REMARK   11  A    between atoms: C_28  and  C_29
REMARK                            x       y       z     vdW  Elec       q    Type
REMARK                         _______ _______ _______ _____ _____    ______ ____
ROOT
ATOM      1  N   UNL     1       0.781   9.881  19.484  0.00  0.00    +0.000 N 
ATOM      2  N   UNL     1       1.093  10.748  20.487  0.00  0.00    +0.000 NA
ATOM      3  C   UNL     1       0.296  11.800  20.287  0.00  0.00    +0.000 A 
ATOM      4  C   UNL     1      -0.654  11.574  19.278  0.00  0.00    +0.000 A 
ATOM      5  C   UNL     1      -0.308  10.344  18.763  0.00  0.00    +0.000 A 
ATOM      6  C   UNL     1      -0.996   9.631  17.665  0.00  0.00    +0.000 C 
ATOM      7  C   UNL     1      -2.358  10.262  17.274  0.00  0.00    +0.000 C 
ATOM      8  C   UNL     1      -3.498   9.464  17.941  0.00  0.00    +0.000 C 
ATOM      9  C   UNL     1      -2.505  10.089  15.741  0.00  0.00    +0.000 C 
ATOM     10  C   UNL     1      -2.518  11.786  17.580  0.00  0.00    +0.000 C 
ATOM     11  C   UNL     1      -1.776  12.416  18.790  0.00  0.00    +0.000 C 
ENDROOT
BRANCH   1  15
ATOM     12  C   UNL     1       2.941   6.273  18.952  0.00  0.00    +0.000 A 
ATOM     13  C   UNL     1       2.272   6.539  20.150  0.00  0.00    +0.000 A 
ATOM     14  C   UNL     1       1.580   7.740  20.336  0.00  0.00    +0.000 A 
ATOM     15  C   UNL     1       1.532   8.686  19.309  0.00  0.00    +0.000 A 
ATOM     16  C   UNL     1       2.237   8.438  18.124  0.00  0.00    +0.000 A 
ATOM     17  C   UNL     1       2.937   7.239  17.948  0.00  0.00    +0.000 A 
BRANCH  12  19
ATOM     18  C   UNL     1       4.935   5.111  18.419  0.00  0.00    +0.000 C 
ATOM     19  O   UNL     1       3.595   5.074  18.896  0.00  0.00    +0.000 OA
ENDBRANCH  12  19
ENDBRANCH   1  15
BRANCH  11  20
ATOM     20  N   UNL     1      -2.679  12.707  19.892  0.00  0.00    +0.000 N 
ATOM     21  C   UNL     1      -2.578  13.890  20.601  0.00  0.00    +0.000 C 
ATOM     22  O   UNL     1      -1.753  14.756  20.324  0.00  0.00    +0.000 OA
ATOM     23  H   UNL     1      -3.343  12.000  20.184  0.00  0.00    +0.000 HD
BRANCH  21  24
ATOM     24  C   UNL     1      -3.548  14.012  21.749  0.00  0.00    +0.000 C 
BRANCH  24  25
ATOM     25  C   UNL     1      -4.287  12.695  21.998  0.00  0.00    +0.000 C 
BRANCH  25  26
ATOM     26  C   UNL     1      -5.762  12.813  21.791  0.00  0.00    +0.000 A 
ATOM     27  C   UNL     1      -6.563  12.275  20.744  0.00  0.00    +0.000 A 
ATOM     28  C   UNL     1      -6.164  11.464  19.570  0.00  0.00    +0.000 C 
ATOM     29  N   UNL     1      -7.853  12.593  20.903  0.00  0.00    +0.000 NA
ATOM     30  O   UNL     1      -7.916  13.363  22.044  0.00  0.00    +0.000 OA
ATOM     31  C   UNL     1      -6.671  13.499  22.568  0.00  0.00    +0.000 A 
ATOM     32  C   UNL     1      -6.568  14.324  23.789  0.00  0.00    +0.000 C 
ENDBRANCH  25  26
ENDBRANCH  24  25
ENDBRANCH  21  24
ENDBRANCH  11  20
TORSDOF 6
ENDMDL
MODEL 8
REMARK VINA RESULT:      -7.2      2.073      2.546
REMARK  Name = 
REMARK  11 active torsions:
REMARK  status: ('A' for Active; 'I' for Inactive)
REMARK    1  A    between atoms: C_1  and  O_2
REMARK    2  A    between atoms: O_2  and  C_3
REMARK    3  A    between atoms: C_6  and  N_7
REMARK    4  A    between atoms: C_13  and  C_14
REMARK    5  A    between atoms: C_13  and  C_15
REMARK    6  A    between atoms: C_17  and  N_18
REMARK    7  A    between atoms: C_19  and  C_21
REMARK    8  A    between atoms: C_21  and  C_22
REMARK    9  A    between atoms: C_22  and  C_23
REMARK   10  A    between atoms: C_24  and  C_25
REMARK   11  A    between atoms: C_28  and  C_29
REMARK                            x       y       z     vdW  Elec       q    Type
REMARK                         _______ _______ _______ _____ _____    ______ ____
ROOT
ATOM      1  N   UNL     1       1.021   9.848  19.337  0.00  0.00    +0.000 N 
ATOM      2  N   UNL     1       1.520  10.803  20.170  0.00  0.00    +0.000 NA
ATOM      3  C   UNL     1       0.870  11.920  19.836  0.00  0.00    +0.000 A 
ATOM      4  C   UNL     1      -0.168  11.686  18.920  0.00  0.00    +0.000 A 
ATOM      5  C   UNL     1      -0.037  10.354  18.598  0.00  0.00    +0.000 A 
ATOM      6  C   UNL     1      -0.892   9.591  17.662  0.00  0.00    +0.000 C 
ATOM      7  C   UNL     1      -2.173  10.353  17.232  0.00  0.00    +0.000 C 
ATOM      8  C   UNL     1      -3.368   9.851  18.070  0.00  0.00    +0.000 C 
ATOM      9  C   UNL     1      -2.445   9.968  15.756  0.00  0.00    +0.000 C 
ATOM     10  C   UNL     1      -2.093  11.913  17.292  0.00  0.00    +0.000 C 
ATOM     11  C   UNL     1      -1.189  12.602  18.349  0.00  0.00    +0.000 C 
ENDROOT
BRANCH   1  15
ATOM     12  C   UNL     1       2.771   5.988  19.313  0.00  0.00    +0.000 A 
ATOM     13  C   UNL     1       2.852   6.819  18.193  0.00  0.00    +0.000 A 
ATOM     14  C   UNL     1       2.253   8.083  18.191  0.00  0.00    +0.000 A 
ATOM     15  C   UNL     1       1.580   8.541  19.327  0.00  0.00    +0.000 A 
ATOM     16  C   UNL     1       1.464   7.691  20.435  0.00  0.00    +0.000 A 
ATOM     17  C   UNL     1       2.056   6.423  20.426  0.00  0.00    +0.000 A 
BRANCH  12  19
ATOM     18  C   UNL     1       3.406   4.211  17.881  0.00  0.00    +0.000 C 
ATOM     19  O   UNL     1       3.381   4.770  19.189  0.00  0.00    +0.000 OA
ENDBRANCH  12  19
ENDBRANCH   1  15
BRANCH  11  20
ATOM     20  N   UNL     1      -1.965  13.195  19.427  0.00  0.00    +0.000 N 
ATOM     21  C   UNL     1      -1.645  14.442  19.932  0.00  0.00    +0.000 C 
ATOM     22  O   UNL     1      -0.721  15.116  19.486  0.00  0.00    +0.000 OA
ATOM     23  H   UNL     1      -2.706  12.653  19.856  0.00  0.00    +0.000 HD
BRANCH  21  24
ATOM     24  C   UNL     1      -2.509  14.886  21.085  0.00  0.00    +0.000 C 
BRANCH  24  25
ATOM     25  C   UNL     1      -1.923  14.442  22.427  0.00  0.00    +0.000 C 
BRANCH  25  26
ATOM     26  C   UNL     1      -2.761  13.412  23.111  0.00  0.00    +0.000 A 
ATOM     27  C   UNL     1      -4.031  13.565  23.736  0.00  0.00    +0.000 A 
ATOM     28  C   UNL     1      -4.868  14.778  23.894  0.00  0.00    +0.000 C 
ATOM     29  N   UNL     1      -4.472  12.406  24.239  0.00  0.00    +0.000 NA
ATOM     30  O   UNL     1      -3.487  11.478  23.972  0.00  0.00    +0.000 OA
ATOM     31  C   UNL     1      -2.468  12.080  23.307  0.00  0.00    +0.000 A 
ATOM     32  C   UNL     1      -1.317  11.217  22.968  0.00  0.00    +0.000 C 
ENDBRANCH  25  26
ENDBRANCH  24  25
ENDBRANCH  21  24
ENDBRANCH  11  20
TORSDOF 6
ENDMDL
MODEL 9
REMARK VINA RESULT:      -7.1      1.135      1.938
REMARK  Name = 
REMARK  11 active torsions:
REMARK  status: ('A' for Active; 'I' for Inactive)
REMARK    1  A    between atoms: C_1  and  O_2
REMARK    2  A    between atoms: O_2  and  C_3
REMARK    3  A    between atoms: C_6  and  N_7
REMARK    4  A    between atoms: C_13  and  C_14
REMARK    5  A    between atoms: C_13  and  C_15
REMARK    6  A    between atoms: C_17  and  N_18
REMARK    7  A    between atoms: C_19  and  C_21
REMARK    8  A    between atoms: C_21  and  C_22
REMARK    9  A    between atoms: C_22  and  C_23
REMARK   10  A    between atoms: C_24  and  C_25
REMARK   11  A    between atoms: C_28  and  C_29
REMARK                            x       y       z     vdW  Elec       q    Type
REMARK                         _______ _______ _______ _____ _____    ______ ____
ROOT
ATOM      1  N   UNL     1       0.751   9.886  19.301  0.00  0.00    +0.000 N 
ATOM      2  N   UNL     1       1.022  10.704  20.355  0.00  0.00    +0.000 NA
ATOM      3  C   UNL     1       0.146  11.705  20.243  0.00  0.00    +0.000 A 
ATOM      4  C   UNL     1      -0.809  11.477  19.239  0.00  0.00    +0.000 A 
ATOM      5  C   UNL     1      -0.386  10.315  18.633  0.00  0.00    +0.000 A 
ATOM      6  C   UNL     1      -1.045   9.628  17.501  0.00  0.00    +0.000 C 
ATOM      7  C   UNL     1      -2.458  10.180  17.179  0.00  0.00    +0.000 C 
ATOM      8  C   UNL     1      -3.520   9.256  17.810  0.00  0.00    +0.000 C 
ATOM      9  C   UNL     1      -2.627  10.101  15.641  0.00  0.00    +0.000 C 
ATOM     10  C   UNL     1      -2.723  11.664  17.593  0.00  0.00    +0.000 C 
ATOM     11  C   UNL     1      -2.001  12.264  18.830  0.00  0.00    +0.000 C 
ENDROOT
BRANCH   1  15
ATOM     12  C   UNL     1       3.307   6.600  18.505  0.00  0.00    +0.000 A 
ATOM     13  C   UNL     1       3.158   7.634  17.578  0.00  0.00    +0.000 A 
ATOM     14  C   UNL     1       2.296   8.706  17.828  0.00  0.00    +0.000 A 
ATOM     15  C   UNL     1       1.584   8.766  19.029  0.00  0.00    +0.000 A 
ATOM     16  C   UNL     1       1.701   7.709  19.941  0.00  0.00    +0.000 A 
ATOM     17  C   UNL     1       2.557   6.633  19.679  0.00  0.00    +0.000 A 
BRANCH  12  19
ATOM     18  C   UNL     1       4.794   5.742  16.873  0.00  0.00    +0.000 C 
ATOM     19  O   UNL     1       4.165   5.599  18.141  0.00  0.00    +0.000 OA
ENDBRANCH  12  19
ENDBRANCH   1  15
BRANCH  11  20
ATOM     20  N   UNL     1      -2.897  12.411  19.966  0.00  0.00    +0.000 N 
ATOM     21  C   UNL     1      -2.855  13.540  20.764  0.00  0.00    +0.000 C 
ATOM     22  O   UNL     1      -2.092  14.475  20.542  0.00  0.00    +0.000 OA
ATOM     23  H   UNL     1      -3.509  11.643  20.213  0.00  0.00    +0.000 HD
BRANCH  21  24
ATOM     24  C   UNL     1      -3.807  13.511  21.933  0.00  0.00    +0.000 C 
BRANCH  24  25
ATOM     25  C   UNL     1      -5.219  13.926  21.516  0.00  0.00    +0.000 C 
BRANCH  25  26
ATOM     26  C   UNL     1      -6.225  13.720  22.601  0.00  0.00    +0.000 A 
ATOM     27  C   UNL     1      -7.188  12.681  22.741  0.00  0.00    +0.000 A 
ATOM     28  C   UNL     1      -7.469  11.527  21.855  0.00  0.00    +0.000 C 
ATOM     29  N   UNL     1      -7.916  12.834  23.854  0.00  0.00    +0.000 NA
ATOM     30  O   UNL     1      -7.457  13.990  24.450  0.00  0.00    +0.000 OA
ATOM     31  C   UNL     1      -6.457  14.519  23.700  0.00  0.00    +0.000 A 
ATOM     32  C   UNL     1      -5.873  15.782  24.197  0.00  0.00    +0.000 C 
ENDBRANCH  25  26
ENDBRANCH  24  25
ENDBRANCH  21  24
ENDBRANCH  11  20
TORSDOF 6
ENDMDL
