MODEL 1
REMARK VINA RESULT:      -7.5      0.000      0.000
REMARK  Name = 
REMARK  2 active torsions:
REMARK  status: ('A' for Active; 'I' for Inactive)
REMARK    1  A    between atoms: C_6  and  C_7
REMARK    2  A    between atoms: N_15  and  C_16
REMARK                            x       y       z     vdW  Elec       q    Type
REMARK                         _______ _______ _______ _____ _____    ______ ____
ROOT
ATOM      1  C   UNL     1       2.545   6.156  18.434  0.00  0.00    +0.000 A 
ATOM      2  N   UNL     1       1.596   5.337  18.853  0.00  0.00    +0.000 NA
ATOM      3  C   UNL     1       2.102   4.070  18.743  0.00  0.00    +0.000 A 
ATOM      4  C   UNL     1       1.485   2.842  19.007  0.00  0.00    +0.000 A 
ATOM      5  N   UNL     1       2.162   1.676  18.856  0.00  0.00    +0.000 NA
ATOM      6  C   UNL     1       3.440   1.732  18.433  0.00  0.00    +0.000 A 
ATOM      7  C   UNL     1       4.124   2.901  18.127  0.00  0.00    +0.000 A 
ATOM      8  C   UNL     1       3.424   4.100  18.299  0.00  0.00    +0.000 A 
ATOM      9  N   UNL     1       3.713   5.448  18.133  0.00  0.00    +0.000 N 
ENDROOT
BRANCH   1  15
ATOM     10  N   UNL     1       1.442   8.112  20.607  0.00  0.00    +0.000 N 
ATOM     11  C   UNL     1       1.782   8.485  19.356  0.00  0.00    +0.000 A 
ATOM     12  N   UNL     1       1.714   9.733  18.900  0.00  0.00    +0.000 NA
ATOM     13  O   UNL     1       2.165   9.668  17.591  0.00  0.00    +0.000 OA
ATOM     14  N   UNL     1       2.524   8.372  17.241  0.00  0.00    +0.000 NA
ATOM     15  C   UNL     1       2.294   7.640  18.336  0.00  0.00    +0.000 A 
ATOM     16  H   UNL     1       1.266   8.809  21.322  0.00  0.00    +0.000 HD
ATOM     17  H   UNL     1       1.663   7.176  20.941  0.00  0.00    +0.000 HD
ENDBRANCH   1  15
BRANCH   9  18
ATOM     18  C   UNL     1       4.989   6.069  17.762  0.00  0.00    +0.000 C 
ATOM     19  C   UNL     1       5.235   6.110  16.247  0.00  0.00    +0.000 C 
ATOM     20  C   UNL     1       5.891   4.833  15.735  0.00  0.00    +0.000 C 
ATOM     21  C   UNL     1       7.133   4.452  16.544  0.00  0.00    +0.000 C 
ATOM     22  N   UNL     1       6.894   4.400  17.982  0.00  0.00    +0.000 NA
ATOM     23  C   UNL     1       6.253   5.600  18.514  0.00  0.00    +0.000 C 
ATOM     24  H   UNL     1       7.767   4.219  18.478  0.00  0.00    +0.000 HD
ENDBRANCH   9  18
TORSDOF 2
ENDMDL
MODEL 2
REMARK VINA RESULT:      -7.4      2.350      5.199
REMARK  Name = 
REMARK  2 active torsions:
REMARK  status: ('A' for Active; 'I' for Inactive)
REMARK    1  A    between atoms: C_6  and  C_7
REMARK    2  A    between atoms: N_15  and  C_16
REMARK                            x       y       z     vdW  Elec       q    Type
REMARK                         _______ _______ _______ _____ _____    ______ ____
ROOT
ATOM      1  C   UNL     1       4.567   5.698  17.039  0.00  0.00    +0.000 A 
ATOM      2  N   UNL     1       4.261   6.980  17.149  0.00  0.00    +0.000 NA
ATOM      3  C   UNL     1       3.329   7.069  18.148  0.00  0.00    +0.000 A 
ATOM      4  C   UNL     1       2.643   8.193  18.624  0.00  0.00    +0.000 A 
ATOM      5  N   UNL     1       1.761   8.087  19.648  0.00  0.00    +0.000 NA
ATOM      6  C   UNL     1       1.553   6.870  20.187  0.00  0.00    +0.000 A 
ATOM      7  C   UNL     1       2.170   5.700  19.765  0.00  0.00    +0.000 A 
ATOM      8  C   UNL     1       3.090   5.818  18.718  0.00  0.00    +0.000 A 
ATOM      9  N   UNL     1       3.914   4.946  18.020  0.00  0.00    +0.000 N 
ENDROOT
BRANCH   1  15
ATOM     10  N   UNL     1       7.538   6.518  16.522  0.00  0.00    +0.000 N 
ATOM     11  C   UNL     1       6.854   5.634  15.766  0.00  0.00    +0.000 A 
ATOM     12  N   UNL     1       7.366   4.984  14.724  0.00  0.00    +0.000 NA
ATOM     13  O   UNL     1       6.339   4.181  14.255  0.00  0.00    +0.000 OA
ATOM     14  N   UNL     1       5.189   4.328  15.021  0.00  0.00    +0.000 NA
ATOM     15  C   UNL     1       5.510   5.222  15.962  0.00  0.00    +0.000 A 
ATOM     16  H   UNL     1       8.543   6.609  16.425  0.00  0.00    +0.000 HD
ATOM     17  H   UNL     1       7.141   6.861  17.395  0.00  0.00    +0.000 HD
ENDBRANCH   1  15
BRANCH   9  18
ATOM     18  C   UNL     1       4.133   3.515  18.253  0.00  0.00    +0.000 C 
ATOM     19  C   UNL     1       3.128   2.612  17.523  0.00  0.00    +0.000 C 
ATOM     20  C   UNL     1       1.859   2.387  18.337  0.00  0.00    +0.000 C 
ATOM     21  C   UNL     1       2.159   1.934  19.768  0.00  0.00    +0.000 C 
ATOM     22  N   UNL     1       3.104   2.799  20.465  0.00  0.00    +0.000 NA
ATOM     23  C   UNL     1       4.330   3.054  19.714  0.00  0.00    +0.000 C 
ATOM     24  H   UNL     1       3.328   2.412  21.381  0.00  0.00    +0.000 HD
ENDBRANCH   9  18
TORSDOF 2
ENDMDL
MODEL 3
REMARK VINA RESULT:      -7.4      1.114      1.114
REMARK  Name = 
REMARK  2 active torsions:
REMARK  status: ('A' for Active; 'I' for Inactive)
REMARK    1  A    between atoms: C_6  and  C_7
REMARK    2  A    between atoms: N_15  and  C_16
REMARK                            x       y       z     vdW  Elec       q    Type
REMARK                         _______ _______ _______ _____ _____    ______ ____
ROOT
ATOM      1  C   UNL     1       2.853   6.504  19.047  0.00  0.00    +0.000 A 
ATOM      2  N   UNL     1       2.182   5.833  19.968  0.00  0.00    +0.000 NA
ATOM      3  C   UNL     1       2.805   4.621  20.093  0.00  0.00    +0.000 A 
ATOM      4  C   UNL     1       2.461   3.525  20.895  0.00  0.00    +0.000 A 
ATOM      5  N   UNL     1       3.221   2.402  20.900  0.00  0.00    +0.000 NA
ATOM      6  C   UNL     1       4.308   2.364  20.103  0.00  0.00    +0.000 A 
ATOM      7  C   UNL     1       4.710   3.392  19.262  0.00  0.00    +0.000 A 
ATOM      8  C   UNL     1       3.930   4.553  19.272  0.00  0.00    +0.000 A 
ATOM      9  N   UNL     1       3.973   5.781  18.626  0.00  0.00    +0.000 N 
ENDROOT
BRANCH   1  15
ATOM     10  N   UNL     1       1.202   8.646  20.613  0.00  0.00    +0.000 N 
ATOM     11  C   UNL     1       1.626   8.798  19.341  0.00  0.00    +0.000 A 
ATOM     12  N   UNL     1       1.417   9.887  18.606  0.00  0.00    +0.000 NA
ATOM     13  O   UNL     1       2.025   9.626  17.388  0.00  0.00    +0.000 OA
ATOM     14  N   UNL     1       2.624   8.373  17.377  0.00  0.00    +0.000 NA
ATOM     15  C   UNL     1       2.384   7.862  18.589  0.00  0.00    +0.000 A 
ATOM     16  H   UNL     1       0.834   9.435  21.131  0.00  0.00    +0.000 HD
ATOM     17  H   UNL     1       1.527   7.858  21.171  0.00  0.00    +0.000 HD
ENDBRANCH   1  15
BRANCH   9  18
ATOM     18  C   UNL     1       4.994   6.293  17.706  0.00  0.00    +0.000 C 
ATOM     19  C   UNL     1       4.855   5.760  16.273  0.00  0.00    +0.000 C 
ATOM     20  C   UNL     1       5.577   4.431  16.080  0.00  0.00    +0.000 C 
ATOM     21  C   UNL     1       7.024   4.478  16.576  0.00  0.00    +0.000 C 
ATOM     22  N   UNL     1       7.154   4.972  17.941  0.00  0.00    +0.000 NA
ATOM     23  C   UNL     1       6.465   6.238  18.175  0.00  0.00    +0.000 C 
ATOM     24  H   UNL     1       8.139   5.056  18.195  0.00  0.00    +0.000 HD
ENDBRANCH   9  18
TORSDOF 2
ENDMDL
MODEL 4
REMARK VINA RESULT:      -7.3      1.563      3.943
REMARK  Name = 
REMARK  2 active torsions:
REMARK  status: ('A' for Active; 'I' for Inactive)
REMARK    1  A    between atoms: C_6  and  C_7
REMARK    2  A    between atoms: N_15  and  C_16
REMARK                            x       y       z     vdW  Elec       q    Type
REMARK                         _______ _______ _______ _____ _____    ______ ____
ROOT
ATOM      1  C   UNL     1       2.948   6.904  18.345  0.00  0.00    +0.000 A 
ATOM      2  N   UNL     1       3.835   7.412  17.506  0.00  0.00    +0.000 NA
ATOM      3  C   UNL     1       4.480   6.347  16.936  0.00  0.00    +0.000 A 
ATOM      4  C   UNL     1       5.539   6.339  16.021  0.00  0.00    +0.000 A 
ATOM      5  N   UNL     1       6.039   5.171  15.547  0.00  0.00    +0.000 NA
ATOM      6  C   UNL     1       5.498   4.019  15.990  0.00  0.00    +0.000 A 
ATOM      7  C   UNL     1       4.463   3.932  16.911  0.00  0.00    +0.000 A 
ATOM      8  C   UNL     1       3.942   5.141  17.385  0.00  0.00    +0.000 A 
ATOM      9  N   UNL     1       2.935   5.507  18.267  0.00  0.00    +0.000 N 
ENDROOT
BRANCH   1  15
ATOM     10  N   UNL     1       1.604   9.636  17.640  0.00  0.00    +0.000 N 
ATOM     11  C   UNL     1       1.528   9.045  18.851  0.00  0.00    +0.000 A 
ATOM     12  N   UNL     1       0.852   9.538  19.886  0.00  0.00    +0.000 NA
ATOM     13  O   UNL     1       1.028   8.618  20.907  0.00  0.00    +0.000 OA
ATOM     14  N   UNL     1       1.808   7.544  20.495  0.00  0.00    +0.000 NA
ATOM     15  C   UNL     1       2.111   7.804  19.220  0.00  0.00    +0.000 A 
ATOM     16  H   UNL     1       1.004  10.420  17.412  0.00  0.00    +0.000 HD
ATOM     17  H   UNL     1       2.003   9.133  16.849  0.00  0.00    +0.000 HD
ENDBRANCH   1  15
BRANCH   9  18
ATOM     18  C   UNL     1       1.982   4.645  18.973  0.00  0.00    +0.000 C 
ATOM     19  C   UNL     1       2.556   4.007  20.246  0.00  0.00    +0.000 C 
ATOM     20  C   UNL     1       3.281   2.698  19.958  0.00  0.00    +0.000 C 
ATOM     21  C   UNL     1       2.435   1.735  19.122  0.00  0.00    +0.000 C 
ATOM     22  N   UNL     1       1.902   2.338  17.906  0.00  0.00    +0.000 NA
ATOM     23  C   UNL     1       1.209   3.604  18.134  0.00  0.00    +0.000 C 
ATOM     24  H   UNL     1       1.285   1.682  17.427  0.00  0.00    +0.000 HD
ENDBRANCH   9  18
TORSDOF 2
ENDMDL
MODEL 5
REMARK VINA RESULT:      -7.0      3.078      5.271
REMARK  Name = 
REMARK  2 active torsions:
REMARK  status: ('A' for Active; 'I' for Inactive)
REMARK    1  A    between atoms: C_6  and  C_7
REMARK    2  A    between atoms: N_15  and  C_16
REMARK                            x       y       z     vdW  Elec       q    Type
REMARK                         _______ _______ _______ _____ _____    ______ ____
ROOT
ATOM      1  C   UNL     1       4.508   4.162  19.356  0.00  0.00    +0.000 A 
ATOM      2  N   UNL     1       5.399   5.115  19.575  0.00  0.00    +0.000 NA
ATOM      3  C   UNL     1       6.022   5.343  18.378  0.00  0.00    +0.000 A 
ATOM      4  C   UNL     1       7.076   6.215  18.078  0.00  0.00    +0.000 A 
ATOM      5  N   UNL     1       7.553   6.320  16.813  0.00  0.00    +0.000 NA
ATOM      6  C   UNL     1       6.995   5.553  15.856  0.00  0.00    +0.000 A 
ATOM      7  C   UNL     1       5.965   4.647  16.066  0.00  0.00    +0.000 A 
ATOM      8  C   UNL     1       5.467   4.554  17.370  0.00  0.00    +0.000 A 
ATOM      9  N   UNL     1       4.471   3.820  18.000  0.00  0.00    +0.000 N 
ENDROOT
BRANCH   1  15
ATOM     10  N   UNL     1       2.096   5.441  20.876  0.00  0.00    +0.000 N 
ATOM     11  C   UNL     1       2.607   4.224  21.154  0.00  0.00    +0.000 A 
ATOM     12  N   UNL     1       2.132   3.407  22.092  0.00  0.00    +0.000 NA
ATOM     13  O   UNL     1       2.931   2.276  22.029  0.00  0.00    +0.000 OA
ATOM     14  N   UNL     1       3.898   2.393  21.038  0.00  0.00    +0.000 NA
ATOM     15  C   UNL     1       3.693   3.595  20.491  0.00  0.00    +0.000 A 
ATOM     16  H   UNL     1       1.208   5.729  21.270  0.00  0.00    +0.000 HD
ATOM     17  H   UNL     1       2.403   5.948  20.048  0.00  0.00    +0.000 HD
ENDBRANCH   1  15
BRANCH   9  18
ATOM     18  C   UNL     1       3.508   2.889  17.405  0.00  0.00    +0.000 C 
ATOM     19  C   UNL     1       2.235   3.570  16.884  0.00  0.00    +0.000 C 
ATOM     20  C   UNL     1       1.176   3.720  17.971  0.00  0.00    +0.000 C 
ATOM     21  C   UNL     1       0.907   2.405  18.706  0.00  0.00    +0.000 C 
ATOM     22  N   UNL     1       2.116   1.766  19.212  0.00  0.00    +0.000 NA
ATOM     23  C   UNL     1       3.164   1.614  18.206  0.00  0.00    +0.000 C 
ATOM     24  H   UNL     1       1.891   0.860  19.623  0.00  0.00    +0.000 HD
ENDBRANCH   9  18
TORSDOF 2
ENDMDL
MODEL 6
REMARK VINA RESULT:      -6.9      1.305      3.766
REMARK  Name = 
REMARK  2 active torsions:
REMARK  status: ('A' for Active; 'I' for Inactive)
REMARK    1  A    between atoms: C_6  and  C_7
REMARK    2  A    between atoms: N_15  and  C_16
REMARK                            x       y       z     vdW  Elec       q    Type
REMARK                         _______ _______ _______ _____ _____    ______ ____
ROOT
ATOM      1  C   UNL     1       3.304   7.239  17.935  0.00  0.00    +0.000 A 
ATOM      2  N   UNL     1       4.430   7.666  17.389  0.00  0.00    +0.000 NA
ATOM      3  C   UNL     1       5.216   6.561  17.213  0.00  0.00    +0.000 A 
ATOM      4  C   UNL     1       6.524   6.471  16.719  0.00  0.00    +0.000 A 
ATOM      5  N   UNL     1       7.140   5.270  16.597  0.00  0.00    +0.000 NA
ATOM      6  C   UNL     1       6.466   4.166  16.974  0.00  0.00    +0.000 A 
ATOM      7  C   UNL     1       5.179   4.162  17.493  0.00  0.00    +0.000 A 
ATOM      8  C   UNL     1       4.543   5.403  17.604  0.00  0.00    +0.000 A 
ATOM      9  N   UNL     1       3.300   5.844  18.038  0.00  0.00    +0.000 N 
ENDROOT
BRANCH   1  15
ATOM     10  N   UNL     1       2.068   7.715  20.766  0.00  0.00    +0.000 N 
ATOM     11  C   UNL     1       1.698   8.386  19.656  0.00  0.00    +0.000 A 
ATOM     12  N   UNL     1       0.780   9.350  19.633  0.00  0.00    +0.000 NA
ATOM     13  O   UNL     1       0.725   9.769  18.313  0.00  0.00    +0.000 OA
ATOM     14  N   UNL     1       1.623   9.066  17.519  0.00  0.00    +0.000 NA
ATOM     15  C   UNL     1       2.231   8.215  18.352  0.00  0.00    +0.000 A 
ATOM     16  H   UNL     1       1.771   8.031  21.682  0.00  0.00    +0.000 HD
ATOM     17  H   UNL     1       2.881   7.102  20.747  0.00  0.00    +0.000 HD
ENDBRANCH   1  15
BRANCH   9  18
ATOM     18  C   UNL     1       2.153   5.047  18.483  0.00  0.00    +0.000 C 
ATOM     19  C   UNL     1       2.347   4.410  19.867  0.00  0.00    +0.000 C 
ATOM     20  C   UNL     1       3.050   3.060  19.786  0.00  0.00    +0.000 C 
ATOM     21  C   UNL     1       2.395   2.123  18.769  0.00  0.00    +0.000 C 
ATOM     22  N   UNL     1       2.223   2.724  17.452  0.00  0.00    +0.000 NA
ATOM     23  C   UNL     1       1.565   4.027  17.483  0.00  0.00    +0.000 C 
ATOM     24  H   UNL     1       1.715   2.089  16.837  0.00  0.00    +0.000 HD
ENDBRANCH   9  18
TORSDOF 2
ENDMDL
MODEL 7
REMARK VINA RESULT:      -6.7      2.460      5.392
REMARK  Name = 
REMARK  2 active torsions:
REMARK  status: ('A' for Active; 'I' for Inactive)
REMARK    1  A    between atoms: C_6  and  C_7
REMARK    2  A    between atoms: N_15  and  C_16
REMARK                            x       y       z     vdW  Elec       q    Type
REMARK                         _______ _______ _______ _____ _____    ______ ____
ROOT
ATOM      1  C   UNL     1       3.861   5.611  17.695  0.00  0.00    +0.000 A 
ATOM      2  N   UNL     1       3.699   6.923  17.679  0.00  0.00    +0.000 NA
ATOM      3  C   UNL     1       2.816   7.215  18.682  0.00  0.00    +0.000 A 
ATOM      4  C   UNL     1       2.271   8.451  19.053  0.00  0.00    +0.000 A 
ATOM      5  N   UNL     1       1.415   8.548  20.100  0.00  0.00    +0.000 NA
ATOM      6  C   UNL     1       1.093   7.421  20.766  0.00  0.00    +0.000 A 
ATOM      7  C   UNL     1       1.566   6.154  20.455  0.00  0.00    +0.000 A 
ATOM      8  C   UNL     1       2.460   6.063  19.383  0.00  0.00    +0.000 A 
ATOM      9  N   UNL     1       3.162   5.039  18.763  0.00  0.00    +0.000 N 
ENDROOT
BRANCH   1  15
ATOM     10  N   UNL     1       5.311   6.846  15.217  0.00  0.00    +0.000 N 
ATOM     11  C   UNL     1       5.345   5.536  15.539  0.00  0.00    +0.000 A 
ATOM     12  N   UNL     1       6.018   4.613  14.857  0.00  0.00    +0.000 NA
ATOM     13  O   UNL     1       5.793   3.424  15.533  0.00  0.00    +0.000 OA
ATOM     14  N   UNL     1       4.984   3.618  16.646  0.00  0.00    +0.000 NA
ATOM     15  C   UNL     1       4.712   4.927  16.654  0.00  0.00    +0.000 A 
ATOM     16  H   UNL     1       5.941   7.221  14.518  0.00  0.00    +0.000 HD
ATOM     17  H   UNL     1       4.909   7.522  15.864  0.00  0.00    +0.000 HD
ENDBRANCH   1  15
BRANCH   9  18
ATOM     18  C   UNL     1       3.232   3.623  19.137  0.00  0.00    +0.000 C 
ATOM     19  C   UNL     1       2.012   2.806  18.688  0.00  0.00    +0.000 C 
ATOM     20  C   UNL     1       0.879   2.855  19.707  0.00  0.00    +0.000 C 
ATOM     21  C   UNL     1       1.354   2.514  21.121  0.00  0.00    +0.000 C 
ATOM     22  N   UNL     1       2.504   3.299  21.552  0.00  0.00    +0.000 NA
ATOM     23  C   UNL     1       3.610   3.292  20.598  0.00  0.00    +0.000 C 
ATOM     24  H   UNL     1       2.827   2.981  22.466  0.00  0.00    +0.000 HD
ENDBRANCH   9  18
TORSDOF 2
ENDMDL
MODEL 8
REMARK VINA RESULT:      -6.7      2.455      5.007
REMARK  Name = 
REMARK  2 active torsions:
REMARK  status: ('A' for Active; 'I' for Inactive)
REMARK    1  A    between atoms: C_6  and  C_7
REMARK    2  A    between atoms: N_15  and  C_16
REMARK                            x       y       z     vdW  Elec       q    Type
REMARK                         _______ _______ _______ _____ _____    ______ ____
ROOT
ATOM      1  C   UNL     1       3.372   4.584  19.126  0.00  0.00    +0.000 A 
ATOM      2  N   UNL     1       2.537   5.111  20.006  0.00  0.00    +0.000 NA
ATOM      3  C   UNL     1       2.347   6.411  19.626  0.00  0.00    +0.000 A 
ATOM      4  C   UNL     1       1.595   7.416  20.248  0.00  0.00    +0.000 A 
ATOM      5  N   UNL     1       1.507   8.655  19.705  0.00  0.00    +0.000 NA
ATOM      6  C   UNL     1       2.173   8.898  18.559  0.00  0.00    +0.000 A 
ATOM      7  C   UNL     1       2.959   7.972  17.887  0.00  0.00    +0.000 A 
ATOM      8  C   UNL     1       3.033   6.691  18.444  0.00  0.00    +0.000 A 
ATOM      9  N   UNL     1       3.665   5.501  18.110  0.00  0.00    +0.000 N 
ENDROOT
BRANCH   1  15
ATOM     10  N   UNL     1       2.381   1.967  17.734  0.00  0.00    +0.000 N 
ATOM     11  C   UNL     1       3.383   2.012  18.637  0.00  0.00    +0.000 A 
ATOM     12  N   UNL     1       4.088   0.954  19.028  0.00  0.00    +0.000 NA
ATOM     13  O   UNL     1       5.009   1.446  19.940  0.00  0.00    +0.000 OA
ATOM     14  N   UNL     1       4.877   2.819  20.103  0.00  0.00    +0.000 NA
ATOM     15  C   UNL     1       3.875   3.172  19.291  0.00  0.00    +0.000 A 
ATOM     16  H   UNL     1       2.223   1.133  17.181  0.00  0.00    +0.000 HD
ATOM     17  H   UNL     1       1.988   2.830  17.363  0.00  0.00    +0.000 HD
ENDBRANCH   1  15
BRANCH   9  18
ATOM     18  C   UNL     1       4.459   5.192  16.917  0.00  0.00    +0.000 C 
ATOM     19  C   UNL     1       5.588   4.184  17.173  0.00  0.00    +0.000 C 
ATOM     20  C   UNL     1       6.867   4.861  17.653  0.00  0.00    +0.000 C 
ATOM     21  C   UNL     1       7.283   6.025  16.751  0.00  0.00    +0.000 C 
ATOM     22  N   UNL     1       6.214   6.990  16.520  0.00  0.00    +0.000 NA
ATOM     23  C   UNL     1       4.963   6.382  16.071  0.00  0.00    +0.000 C 
ATOM     24  H   UNL     1       6.517   7.701  15.854  0.00  0.00    +0.000 HD
ENDBRANCH   9  18
TORSDOF 2
ENDMDL
MODEL 9
REMARK VINA RESULT:      -6.6      2.526      5.267
REMARK  Name = 
REMARK  2 active torsions:
REMARK  status: ('A' for Active; 'I' for Inactive)
REMARK    1  A    between atoms: C_6  and  C_7
REMARK    2  A    between atoms: N_15  and  C_16
REMARK                            x       y       z     vdW  Elec       q    Type
REMARK                         _______ _______ _______ _____ _____    ______ ____
ROOT
ATOM      1  C   UNL     1       5.003   6.012  16.705  0.00  0.00    +0.000 A 
ATOM      2  N   UNL     1       4.590   7.267  16.743  0.00  0.00    +0.000 NA
ATOM      3  C   UNL     1       3.599   7.319  17.686  0.00  0.00    +0.000 A 
ATOM      4  C   UNL     1       2.800   8.401  18.075  0.00  0.00    +0.000 A 
ATOM      5  N   UNL     1       1.872   8.263  19.055  0.00  0.00    +0.000 NA
ATOM      6  C   UNL     1       1.731   7.055  19.634  0.00  0.00    +0.000 A 
ATOM      7  C   UNL     1       2.462   5.924  19.297  0.00  0.00    +0.000 A 
ATOM      8  C   UNL     1       3.428   6.076  18.296  0.00  0.00    +0.000 A 
ATOM      9  N   UNL     1       4.357   5.247  17.682  0.00  0.00    +0.000 N 
ENDROOT
BRANCH   1  15
ATOM     10  N   UNL     1       4.660   4.186  14.192  0.00  0.00    +0.000 N 
ATOM     11  C   UNL     1       5.833   4.732  14.577  0.00  0.00    +0.000 A 
ATOM     12  N   UNL     1       6.981   4.583  13.922  0.00  0.00    +0.000 NA
ATOM     13  O   UNL     1       7.911   5.312  14.646  0.00  0.00    +0.000 OA
ATOM     14  N   UNL     1       7.329   5.925  15.749  0.00  0.00    +0.000 NA
ATOM     15  C   UNL     1       6.040   5.573  15.702  0.00  0.00    +0.000 A 
ATOM     16  H   UNL     1       4.567   3.758  13.278  0.00  0.00    +0.000 HD
ATOM     17  H   UNL     1       3.792   4.465  14.646  0.00  0.00    +0.000 HD
ENDBRANCH   1  15
BRANCH   9  18
ATOM     18  C   UNL     1       4.676   3.849  17.988  0.00  0.00    +0.000 C 
ATOM     19  C   UNL     1       3.822   2.839  17.208  0.00  0.00    +0.000 C 
ATOM     20  C   UNL     1       2.508   2.527  17.915  0.00  0.00    +0.000 C 
ATOM     21  C   UNL     1       2.714   2.147  19.383  0.00  0.00    +0.000 C 
ATOM     22  N   UNL     1       3.512   3.113  20.126  0.00  0.00    +0.000 NA
ATOM     23  C   UNL     1       4.776   3.452  19.478  0.00  0.00    +0.000 C 
ATOM     24  H   UNL     1       3.684   2.776  21.074  0.00  0.00    +0.000 HD
ENDBRANCH   9  18
TORSDOF 2
ENDMDL
