MODEL 1
REMARK VINA RESULT:      -7.9      0.000      0.000
REMARK  Name = 
REMARK  6 active torsions:
REMARK  status: ('A' for Active; 'I' for Inactive)
REMARK    1  A    between atoms: N_1  and  C_2
REMARK    2  A    between atoms: N_10  and  C_11
REMARK    3  A    between atoms: C_11  and  C_12
REMARK    4  A    between atoms: N_18  and  C_19
REMARK    5  A    between atoms: C_22  and  O_23
REMARK    6  A    between atoms: C_24  and  O_25
REMARK                            x       y       z     vdW  Elec       q    Type
REMARK                         _______ _______ _______ _____ _____    ______ ____
ROOT
ATOM      1  C   UNL     1       1.672   9.357  18.749  0.00  0.00    +0.000 A 
ATOM      2  N   UNL     1       1.014   9.678  19.886  0.00  0.00    +0.000 NA
ATOM      3  C   UNL     1       0.914   8.739  20.851  0.00  0.00    +0.000 A 
ATOM      4  N   UNL     1       1.394   7.478  20.851  0.00  0.00    +0.000 NA
ATOM      5  C   UNL     1       2.044   7.211  19.702  0.00  0.00    +0.000 A 
ATOM      6  C   UNL     1       2.248   8.079  18.645  0.00  0.00    +0.000 A 
ATOM      7  N   UNL     1       3.013   7.488  17.666  0.00  0.00    +0.000 NA
ATOM      8  C   UNL     1       3.222   6.254  18.076  0.00  0.00    +0.000 A 
ATOM      9  N   UNL     1       3.900   5.301  17.406  0.00  0.00    +0.000 N 
ATOM     10  N   UNL     1       2.642   6.035  19.318  0.00  0.00    +0.000 N 
ATOM     11  H   UNL     1       3.833   4.309  17.585  0.00  0.00    +0.000 HD
ENDROOT
BRANCH  10  12
ATOM     12  C   UNL     1       2.742   4.832  20.122  0.00  0.00    +0.000 C 
ATOM     13  S   UNL     1       4.347   3.958  20.002  0.00  0.00    +0.000 S 
ATOM     14  C   UNL     1       3.627   2.285  19.986  0.00  0.00    +0.000 C 
ATOM     15  C   UNL     1       2.193   2.471  20.461  0.00  0.00    +0.000 C 
ATOM     16  C   UNL     1       1.666   3.770  19.836  0.00  0.00    +0.000 C 
BRANCH  15  17
ATOM     17  O   UNL     1       2.109   2.585  21.896  0.00  0.00    +0.000 OA
ATOM     18  H   UNL     1       2.547   3.414  22.166  0.00  0.00    +0.000 HD
ENDBRANCH  15  17
BRANCH  16  19
ATOM     19  O   UNL     1       0.421   4.113  20.463  0.00  0.00    +0.000 OA
ATOM     20  H   UNL     1      -0.195   4.346  19.736  0.00  0.00    +0.000 HD
ENDBRANCH  16  19
ENDBRANCH  10  12
BRANCH   1  21
ATOM     21  N   UNL     1       1.748  10.310  17.744  0.00  0.00    +0.000 N 
ATOM     22  H   UNL     1       1.771   9.906  16.819  0.00  0.00    +0.000 HD
ATOM     23  H   UNL     1       1.160  11.121  17.901  0.00  0.00    +0.000 HD
ENDBRANCH   1  21
BRANCH   9  24
ATOM     24  C   UNL     1       4.959   5.674  16.480  0.00  0.00    +0.000 C 
BRANCH  24  25
ATOM     25  C   UNL     1       6.177   6.195  17.205  0.00  0.00    +0.000 A 
ATOM     26  C   UNL     1       6.634   7.499  16.966  0.00  0.00    +0.000 A 
ATOM     27  C   UNL     1       7.704   8.024  17.693  0.00  0.00    +0.000 A 
ATOM     28  C   UNL     1       8.334   7.250  18.665  0.00  0.00    +0.000 A 
ATOM     29  C   UNL     1       7.899   5.948  18.906  0.00  0.00    +0.000 A 
ATOM     30  C   UNL     1       6.826   5.423  18.181  0.00  0.00    +0.000 A 
ENDBRANCH  24  25
ENDBRANCH   9  24
TORSDOF 6
ENDMDL
MODEL 2
REMARK VINA RESULT:      -7.8      2.074      5.570
REMARK  Name = 
REMARK  6 active torsions:
REMARK  status: ('A' for Active; 'I' for Inactive)
REMARK    1  A    between atoms: N_1  and  C_2
REMARK    2  A    between atoms: N_10  and  C_11
REMARK    3  A    between atoms: C_11  and  C_12
REMARK    4  A    between atoms: N_18  and  C_19
REMARK    5  A    between atoms: C_22  and  O_23
REMARK    6  A    between atoms: C_24  and  O_25
REMARK                            x       y       z     vdW  Elec       q    Type
REMARK                         _______ _______ _______ _____ _____    ______ ____
ROOT
ATOM      1  C   UNL     1       6.995   6.769  17.281  0.00  0.00    +0.000 A 
ATOM      2  N   UNL     1       7.790   5.678  17.206  0.00  0.00    +0.000 NA
ATOM      3  C   UNL     1       7.262   4.480  17.536  0.00  0.00    +0.000 A 
ATOM      4  N   UNL     1       6.007   4.197  17.943  0.00  0.00    +0.000 NA
ATOM      5  C   UNL     1       5.257   5.314  17.996  0.00  0.00    +0.000 A 
ATOM      6  C   UNL     1       5.654   6.596  17.663  0.00  0.00    +0.000 A 
ATOM      7  N   UNL     1       4.604   7.479  17.771  0.00  0.00    +0.000 NA
ATOM      8  C   UNL     1       3.592   6.772  18.230  0.00  0.00    +0.000 A 
ATOM      9  N   UNL     1       2.364   7.244  18.522  0.00  0.00    +0.000 N 
ATOM     10  N   UNL     1       3.945   5.440  18.389  0.00  0.00    +0.000 N 
ATOM     11  H   UNL     1       1.689   6.777  19.110  0.00  0.00    +0.000 HD
ENDROOT
BRANCH  10  12
ATOM     12  C   UNL     1       3.071   4.351  18.783  0.00  0.00    +0.000 C 
ATOM     13  S   UNL     1       3.894   2.994  19.697  0.00  0.00    +0.000 S 
ATOM     14  C   UNL     1       2.983   1.654  18.865  0.00  0.00    +0.000 C 
ATOM     15  C   UNL     1       1.806   2.342  18.188  0.00  0.00    +0.000 C 
ATOM     16  C   UNL     1       2.314   3.676  17.625  0.00  0.00    +0.000 C 
BRANCH  15  17
ATOM     17  O   UNL     1       0.733   2.612  19.112  0.00  0.00    +0.000 OA
ATOM     18  H   UNL     1       1.097   2.610  20.017  0.00  0.00    +0.000 HD
ENDBRANCH  15  17
BRANCH  16  19
ATOM     19  O   UNL     1       1.187   4.464  17.214  0.00  0.00    +0.000 OA
ATOM     20  H   UNL     1       0.835   4.036  16.405  0.00  0.00    +0.000 HD
ENDBRANCH  16  19
ENDBRANCH  10  12
BRANCH   1  21
ATOM     21  N   UNL     1       7.547   8.004  16.973  0.00  0.00    +0.000 N 
ATOM     22  H   UNL     1       8.492   7.936  16.623  0.00  0.00    +0.000 HD
ATOM     23  H   UNL     1       6.905   8.638  16.510  0.00  0.00    +0.000 HD
ENDBRANCH   1  21
BRANCH   9  24
ATOM     24  C   UNL     1       1.844   8.407  17.818  0.00  0.00    +0.000 C 
BRANCH  24  25
ATOM     25  C   UNL     1       0.914   9.218  18.690  0.00  0.00    +0.000 A 
ATOM     26  C   UNL     1       1.048   9.181  20.086  0.00  0.00    +0.000 A 
ATOM     27  C   UNL     1       0.255   9.993  20.899  0.00  0.00    +0.000 A 
ATOM     28  C   UNL     1      -0.684  10.849  20.328  0.00  0.00    +0.000 A 
ATOM     29  C   UNL     1      -0.836  10.889  18.943  0.00  0.00    +0.000 A 
ATOM     30  C   UNL     1      -0.041  10.079  18.127  0.00  0.00    +0.000 A 
ENDBRANCH  24  25
ENDBRANCH   9  24
TORSDOF 6
ENDMDL
MODEL 3
REMARK VINA RESULT:      -7.7      2.852      6.362
REMARK  Name = 
REMARK  6 active torsions:
REMARK  status: ('A' for Active; 'I' for Inactive)
REMARK    1  A    between atoms: N_1  and  C_2
REMARK    2  A    between atoms: N_10  and  C_11
REMARK    3  A    between atoms: C_11  and  C_12
REMARK    4  A    between atoms: N_18  and  C_19
REMARK    5  A    between atoms: C_22  and  O_23
REMARK    6  A    between atoms: C_24  and  O_25
REMARK                            x       y       z     vdW  Elec       q    Type
REMARK                         _______ _______ _______ _____ _____    ______ ____
ROOT
ATOM      1  C   UNL     1       1.524   2.667  19.180  0.00  0.00    +0.000 A 
ATOM      2  N   UNL     1       2.216   1.591  18.742  0.00  0.00    +0.000 NA
ATOM      3  C   UNL     1       3.449   1.791  18.231  0.00  0.00    +0.000 A 
ATOM      4  N   UNL     1       4.124   2.951  18.091  0.00  0.00    +0.000 NA
ATOM      5  C   UNL     1       3.395   3.988  18.546  0.00  0.00    +0.000 A 
ATOM      6  C   UNL     1       2.136   3.930  19.116  0.00  0.00    +0.000 A 
ATOM      7  N   UNL     1       1.727   5.177  19.529  0.00  0.00    +0.000 NA
ATOM      8  C   UNL     1       2.682   6.004  19.160  0.00  0.00    +0.000 A 
ATOM      9  N   UNL     1       2.683   7.341  19.332  0.00  0.00    +0.000 N 
ATOM     10  N   UNL     1       3.724   5.323  18.548  0.00  0.00    +0.000 N 
ATOM     11  H   UNL     1       3.267   7.990  18.825  0.00  0.00    +0.000 HD
ENDROOT
BRANCH  10  12
ATOM     12  C   UNL     1       4.982   5.886  18.096  0.00  0.00    +0.000 C 
ATOM     13  S   UNL     1       5.113   6.123  16.285  0.00  0.00    +0.000 S 
ATOM     14  C   UNL     1       6.848   5.579  16.169  0.00  0.00    +0.000 C 
ATOM     15  C   UNL     1       7.362   5.603  17.601  0.00  0.00    +0.000 C 
ATOM     16  C   UNL     1       6.234   5.090  18.505  0.00  0.00    +0.000 C 
BRANCH  15  17
ATOM     17  O   UNL     1       7.720   6.934  18.025  0.00  0.00    +0.000 OA
ATOM     18  H   UNL     1       7.899   7.473  17.232  0.00  0.00    +0.000 HD
ENDBRANCH  15  17
BRANCH  16  19
ATOM     19  O   UNL     1       6.585   5.343  19.873  0.00  0.00    +0.000 OA
ATOM     20  H   UNL     1       5.799   5.097  20.406  0.00  0.00    +0.000 HD
ENDBRANCH  16  19
ENDBRANCH  10  12
BRANCH   1  21
ATOM     21  N   UNL     1       0.243   2.465  19.675  0.00  0.00    +0.000 N 
ATOM     22  H   UNL     1      -0.335   1.914  19.056  0.00  0.00    +0.000 HD
ATOM     23  H   UNL     1       0.213   2.266  20.669  0.00  0.00    +0.000 HD
ENDBRANCH   1  21
BRANCH   9  24
ATOM     24  C   UNL     1       1.951   7.933  20.443  0.00  0.00    +0.000 C 
BRANCH  24  25
ATOM     25  C   UNL     1       1.034   9.040  19.981  0.00  0.00    +0.000 A 
ATOM     26  C   UNL     1       0.994   9.401  18.626  0.00  0.00    +0.000 A 
ATOM     27  C   UNL     1       0.087  10.360  18.171  0.00  0.00    +0.000 A 
ATOM     28  C   UNL     1      -0.789  10.973  19.064  0.00  0.00    +0.000 A 
ATOM     29  C   UNL     1      -0.754  10.632  20.416  0.00  0.00    +0.000 A 
ATOM     30  C   UNL     1       0.151   9.670  20.872  0.00  0.00    +0.000 A 
ENDBRANCH  24  25
ENDBRANCH   9  24
TORSDOF 6
ENDMDL
MODEL 4
REMARK VINA RESULT:      -7.7      2.188      5.654
REMARK  Name = 
REMARK  6 active torsions:
REMARK  status: ('A' for Active; 'I' for Inactive)
REMARK    1  A    between atoms: N_1  and  C_2
REMARK    2  A    between atoms: N_10  and  C_11
REMARK    3  A    between atoms: C_11  and  C_12
REMARK    4  A    between atoms: N_18  and  C_19
REMARK    5  A    between atoms: C_22  and  O_23
REMARK    6  A    between atoms: C_24  and  O_25
REMARK                            x       y       z     vdW  Elec       q    Type
REMARK                         _______ _______ _______ _____ _____    ______ ____
ROOT
ATOM      1  C   UNL     1       6.636   6.509  17.162  0.00  0.00    +0.000 A 
ATOM      2  N   UNL     1       7.266   5.316  17.075  0.00  0.00    +0.000 NA
ATOM      3  C   UNL     1       6.567   4.202  17.385  0.00  0.00    +0.000 A 
ATOM      4  N   UNL     1       5.282   4.099  17.782  0.00  0.00    +0.000 NA
ATOM      5  C   UNL     1       4.700   5.312  17.846  0.00  0.00    +0.000 A 
ATOM      6  C   UNL     1       5.281   6.528  17.534  0.00  0.00    +0.000 A 
ATOM      7  N   UNL     1       4.369   7.551  17.649  0.00  0.00    +0.000 NA
ATOM      8  C   UNL     1       3.263   6.992  18.092  0.00  0.00    +0.000 A 
ATOM      9  N   UNL     1       2.113   7.633  18.384  0.00  0.00    +0.000 N 
ATOM     10  N   UNL     1       3.418   5.621  18.234  0.00  0.00    +0.000 N 
ATOM     11  H   UNL     1       1.374   7.260  18.962  0.00  0.00    +0.000 HD
ENDROOT
BRANCH  10  12
ATOM     12  C   UNL     1       2.392   4.665  18.607  0.00  0.00    +0.000 C 
ATOM     13  S   UNL     1       2.077   4.539  20.408  0.00  0.00    +0.000 S 
ATOM     14  C   UNL     1       1.889   2.728  20.420  0.00  0.00    +0.000 C 
ATOM     15  C   UNL     1       1.700   2.344  18.958  0.00  0.00    +0.000 C 
ATOM     16  C   UNL     1       2.640   3.225  18.125  0.00  0.00    +0.000 C 
BRANCH  15  17
ATOM     17  O   UNL     1       0.347   2.566  18.511  0.00  0.00    +0.000 OA
ATOM     18  H   UNL     1      -0.103   3.139  19.161  0.00  0.00    +0.000 HD
ENDBRANCH  15  17
BRANCH  16  19
ATOM     19  O   UNL     1       2.304   3.079  16.738  0.00  0.00    +0.000 OA
ATOM     20  H   UNL     1       1.480   2.548  16.711  0.00  0.00    +0.000 HD
ENDBRANCH  16  19
ENDBRANCH  10  12
BRANCH   1  21
ATOM     21  N   UNL     1       7.363   7.655  16.875  0.00  0.00    +0.000 N 
ATOM     22  H   UNL     1       8.343   7.568  17.106  0.00  0.00    +0.000 HD
ATOM     23  H   UNL     1       7.112   8.092  15.995  0.00  0.00    +0.000 HD
ENDBRANCH   1  21
BRANCH   9  24
ATOM     24  C   UNL     1       1.772   8.868  17.695  0.00  0.00    +0.000 C 
BRANCH  24  25
ATOM     25  C   UNL     1       0.768   9.684  18.474  0.00  0.00    +0.000 A 
ATOM     26  C   UNL     1      -0.453  10.045  17.885  0.00  0.00    +0.000 A 
ATOM     27  C   UNL     1      -1.427  10.722  18.622  0.00  0.00    +0.000 A 
ATOM     28  C   UNL     1      -1.192  11.050  19.956  0.00  0.00    +0.000 A 
ATOM     29  C   UNL     1       0.021  10.706  20.551  0.00  0.00    +0.000 A 
ATOM     30  C   UNL     1       0.996  10.026  19.815  0.00  0.00    +0.000 A 
ENDBRANCH  24  25
ENDBRANCH   9  24
TORSDOF 6
ENDMDL
MODEL 5
REMARK VINA RESULT:      -7.7      2.120      5.486
REMARK  Name = 
REMARK  6 active torsions:
REMARK  status: ('A' for Active; 'I' for Inactive)
REMARK    1  A    between atoms: N_1  and  C_2
REMARK    2  A    between atoms: N_10  and  C_11
REMARK    3  A    between atoms: C_11  and  C_12
REMARK    4  A    between atoms: N_18  and  C_19
REMARK    5  A    between atoms: C_22  and  O_23
REMARK    6  A    between atoms: C_24  and  O_25
REMARK                            x       y       z     vdW  Elec       q    Type
REMARK                         _______ _______ _______ _____ _____    ______ ____
ROOT
ATOM      1  C   UNL     1       6.975   6.939  17.071  0.00  0.00    +0.000 A 
ATOM      2  N   UNL     1       7.808   5.959  16.657  0.00  0.00    +0.000 NA
ATOM      3  C   UNL     1       7.358   4.686  16.682  0.00  0.00    +0.000 A 
ATOM      4  N   UNL     1       6.150   4.229  17.072  0.00  0.00    +0.000 NA
ATOM      5  C   UNL     1       5.358   5.243  17.469  0.00  0.00    +0.000 A 
ATOM      6  C   UNL     1       5.674   6.589  17.472  0.00  0.00    +0.000 A 
ATOM      7  N   UNL     1       4.598   7.345  17.878  0.00  0.00    +0.000 NA
ATOM      8  C   UNL     1       3.655   6.481  18.189  0.00  0.00    +0.000 A 
ATOM      9  N   UNL     1       2.433   6.781  18.670  0.00  0.00    +0.000 N 
ATOM     10  N   UNL     1       4.076   5.178  17.960  0.00  0.00    +0.000 N 
ATOM     11  H   UNL     1       1.824   6.133  19.150  0.00  0.00    +0.000 HD
ENDROOT
BRANCH  10  12
ATOM     12  C   UNL     1       3.280   3.973  18.097  0.00  0.00    +0.000 C 
ATOM     13  S   UNL     1       1.476   4.215  17.896  0.00  0.00    +0.000 S 
ATOM     14  C   UNL     1       1.003   3.080  19.239  0.00  0.00    +0.000 C 
ATOM     15  C   UNL     1       2.260   2.272  19.530  0.00  0.00    +0.000 C 
ATOM     16  C   UNL     1       3.456   3.228  19.432  0.00  0.00    +0.000 C 
BRANCH  15  17
ATOM     17  O   UNL     1       2.447   1.203  18.580  0.00  0.00    +0.000 OA
ATOM     18  H   UNL     1       3.307   0.778  18.759  0.00  0.00    +0.000 HD
ENDBRANCH  15  17
BRANCH  16  19
ATOM     19  O   UNL     1       4.666   2.458  19.439  0.00  0.00    +0.000 OA
ATOM     20  H   UNL     1       4.983   2.456  20.367  0.00  0.00    +0.000 HD
ENDBRANCH  16  19
ENDBRANCH  10  12
BRANCH   1  21
ATOM     21  N   UNL     1       7.449   8.243  17.077  0.00  0.00    +0.000 N 
ATOM     22  H   UNL     1       8.042   8.443  17.870  0.00  0.00    +0.000 HD
ATOM     23  H   UNL     1       7.733   8.581  16.164  0.00  0.00    +0.000 HD
ENDBRANCH   1  21
BRANCH   9  24
ATOM     24  C   UNL     1       1.812   8.055  18.340  0.00  0.00    +0.000 C 
BRANCH  24  25
ATOM     25  C   UNL     1       1.306   8.767  19.572  0.00  0.00    +0.000 A 
ATOM     26  C   UNL     1       0.580   9.960  19.447  0.00  0.00    +0.000 A 
ATOM     27  C   UNL     1       0.030  10.581  20.571  0.00  0.00    +0.000 A 
ATOM     28  C   UNL     1       0.202  10.019  21.834  0.00  0.00    +0.000 A 
ATOM     29  C   UNL     1       0.931   8.838  21.975  0.00  0.00    +0.000 A 
ATOM     30  C   UNL     1       1.479   8.215  20.851  0.00  0.00    +0.000 A 
ENDBRANCH  24  25
ENDBRANCH   9  24
TORSDOF 6
ENDMDL
MODEL 6
REMARK VINA RESULT:      -7.6      1.965      5.452
REMARK  Name = 
REMARK  6 active torsions:
REMARK  status: ('A' for Active; 'I' for Inactive)
REMARK    1  A    between atoms: N_1  and  C_2
REMARK    2  A    between atoms: N_10  and  C_11
REMARK    3  A    between atoms: C_11  and  C_12
REMARK    4  A    between atoms: N_18  and  C_19
REMARK    5  A    between atoms: C_22  and  O_23
REMARK    6  A    between atoms: C_24  and  O_25
REMARK                            x       y       z     vdW  Elec       q    Type
REMARK                         _______ _______ _______ _____ _____    ______ ____
ROOT
ATOM      1  C   UNL     1       7.013   6.661  17.345  0.00  0.00    +0.000 A 
ATOM      2  N   UNL     1       7.835   5.589  17.351  0.00  0.00    +0.000 NA
ATOM      3  C   UNL     1       7.347   4.414  17.802  0.00  0.00    +0.000 A 
ATOM      4  N   UNL     1       6.110   4.138  18.264  0.00  0.00    +0.000 NA
ATOM      5  C   UNL     1       5.330   5.236  18.233  0.00  0.00    +0.000 A 
ATOM      6  C   UNL     1       5.685   6.492  17.774  0.00  0.00    +0.000 A 
ATOM      7  N   UNL     1       4.614   7.354  17.826  0.00  0.00    +0.000 NA
ATOM      8  C   UNL     1       3.632   6.667  18.372  0.00  0.00    +0.000 A 
ATOM      9  N   UNL     1       2.398   7.133  18.650  0.00  0.00    +0.000 N 
ATOM     10  N   UNL     1       4.025   5.364  18.644  0.00  0.00    +0.000 N 
ATOM     11  H   UNL     1       1.750   6.705  19.295  0.00  0.00    +0.000 HD
ENDROOT
BRANCH  10  12
ATOM     12  C   UNL     1       3.189   4.296  19.158  0.00  0.00    +0.000 C 
ATOM     13  S   UNL     1       2.534   3.152  17.886  0.00  0.00    +0.000 S 
ATOM     14  C   UNL     1       0.879   3.001  18.631  0.00  0.00    +0.000 C 
ATOM     15  C   UNL     1       1.035   3.545  20.045  0.00  0.00    +0.000 C 
ATOM     16  C   UNL     1       1.968   4.761  19.970  0.00  0.00    +0.000 C 
BRANCH  15  17
ATOM     17  O   UNL     1       1.619   2.573  20.937  0.00  0.00    +0.000 OA
ATOM     18  H   UNL     1       1.847   3.020  21.773  0.00  0.00    +0.000 HD
ENDBRANCH  15  17
BRANCH  16  19
ATOM     19  O   UNL     1       2.346   5.137  21.303  0.00  0.00    +0.000 OA
ATOM     20  H   UNL     1       3.271   4.833  21.420  0.00  0.00    +0.000 HD
ENDBRANCH  16  19
ENDBRANCH  10  12
BRANCH   1  21
ATOM     21  N   UNL     1       7.523   7.876  16.912  0.00  0.00    +0.000 N 
ATOM     22  H   UNL     1       7.727   8.511  17.671  0.00  0.00    +0.000 HD
ATOM     23  H   UNL     1       8.196   7.794  16.158  0.00  0.00    +0.000 HD
ENDBRANCH   1  21
BRANCH   9  24
ATOM     24  C   UNL     1       1.831   8.212  17.855  0.00  0.00    +0.000 C 
BRANCH  24  25
ATOM     25  C   UNL     1       1.011   9.158  18.701  0.00  0.00    +0.000 A 
ATOM     26  C   UNL     1       0.091  10.025  18.095  0.00  0.00    +0.000 A 
ATOM     27  C   UNL     1      -0.737  10.840  18.870  0.00  0.00    +0.000 A 
ATOM     28  C   UNL     1      -0.652  10.801  20.260  0.00  0.00    +0.000 A 
ATOM     29  C   UNL     1       0.265   9.951  20.876  0.00  0.00    +0.000 A 
ATOM     30  C   UNL     1       1.092   9.133  20.102  0.00  0.00    +0.000 A 
ENDBRANCH  24  25
ENDBRANCH   9  24
TORSDOF 6
ENDMDL
MODEL 7
REMARK VINA RESULT:      -7.6      1.934      5.260
REMARK  Name = 
REMARK  6 active torsions:
REMARK  status: ('A' for Active; 'I' for Inactive)
REMARK    1  A    between atoms: N_1  and  C_2
REMARK    2  A    between atoms: N_10  and  C_11
REMARK    3  A    between atoms: C_11  and  C_12
REMARK    4  A    between atoms: N_18  and  C_19
REMARK    5  A    between atoms: C_22  and  O_23
REMARK    6  A    between atoms: C_24  and  O_25
REMARK                            x       y       z     vdW  Elec       q    Type
REMARK                         _______ _______ _______ _____ _____    ______ ____
ROOT
ATOM      1  C   UNL     1       6.992   6.648  17.371  0.00  0.00    +0.000 A 
ATOM      2  N   UNL     1       7.833   5.590  17.408  0.00  0.00    +0.000 NA
ATOM      3  C   UNL     1       7.364   4.419  17.887  0.00  0.00    +0.000 A 
ATOM      4  N   UNL     1       6.129   4.133  18.350  0.00  0.00    +0.000 NA
ATOM      5  C   UNL     1       5.331   5.216  18.287  0.00  0.00    +0.000 A 
ATOM      6  C   UNL     1       5.665   6.465  17.798  0.00  0.00    +0.000 A 
ATOM      7  N   UNL     1       4.579   7.309  17.823  0.00  0.00    +0.000 NA
ATOM      8  C   UNL     1       3.607   6.620  18.383  0.00  0.00    +0.000 A 
ATOM      9  N   UNL     1       2.364   7.070  18.642  0.00  0.00    +0.000 N 
ATOM     10  N   UNL     1       4.022   5.331  18.689  0.00  0.00    +0.000 N 
ATOM     11  H   UNL     1       1.720   6.648  19.296  0.00  0.00    +0.000 HD
ENDROOT
BRANCH  10  12
ATOM     12  C   UNL     1       3.202   4.261  19.226  0.00  0.00    +0.000 C 
ATOM     13  S   UNL     1       2.576   3.073  17.981  0.00  0.00    +0.000 S 
ATOM     14  C   UNL     1       0.920   2.911  18.721  0.00  0.00    +0.000 C 
ATOM     15  C   UNL     1       1.057   3.494  20.121  0.00  0.00    +0.000 C 
ATOM     16  C   UNL     1       1.968   4.725  20.019  0.00  0.00    +0.000 C 
BRANCH  15  17
ATOM     17  O   UNL     1       1.652   2.558  21.041  0.00  0.00    +0.000 OA
ATOM     18  H   UNL     1       1.335   2.765  21.940  0.00  0.00    +0.000 HD
ENDBRANCH  15  17
BRANCH  16  19
ATOM     19  O   UNL     1       2.330   5.144  21.343  0.00  0.00    +0.000 OA
ATOM     20  H   UNL     1       2.298   4.339  21.902  0.00  0.00    +0.000 HD
ENDBRANCH  16  19
ENDBRANCH  10  12
BRANCH   1  21
ATOM     21  N   UNL     1       7.483   7.860  16.909  0.00  0.00    +0.000 N 
ATOM     22  H   UNL     1       8.321   7.759  16.353  0.00  0.00    +0.000 HD
ATOM     23  H   UNL     1       6.765   8.500  16.587  0.00  0.00    +0.000 HD
ENDBRANCH   1  21
BRANCH   9  24
ATOM     24  C   UNL     1       1.782   8.119  17.818  0.00  0.00    +0.000 C 
BRANCH  24  25
ATOM     25  C   UNL     1       1.451   9.349  18.630  0.00  0.00    +0.000 A 
ATOM     26  C   UNL     1       0.951   9.218  19.934  0.00  0.00    +0.000 A 
ATOM     27  C   UNL     1       0.725  10.344  20.727  0.00  0.00    +0.000 A 
ATOM     28  C   UNL     1       0.993  11.617  20.226  0.00  0.00    +0.000 A 
ATOM     29  C   UNL     1       1.481  11.763  18.928  0.00  0.00    +0.000 A 
ATOM     30  C   UNL     1       1.709  10.636  18.134  0.00  0.00    +0.000 A 
ENDBRANCH  24  25
ENDBRANCH   9  24
TORSDOF 6
ENDMDL
MODEL 8
REMARK VINA RESULT:      -7.5      2.576      3.431
REMARK  Name = 
REMARK  6 active torsions:
REMARK  status: ('A' for Active; 'I' for Inactive)
REMARK    1  A    between atoms: N_1  and  C_2
REMARK    2  A    between atoms: N_10  and  C_11
REMARK    3  A    between atoms: C_11  and  C_12
REMARK    4  A    between atoms: N_18  and  C_19
REMARK    5  A    between atoms: C_22  and  O_23
REMARK    6  A    between atoms: C_24  and  O_25
REMARK                            x       y       z     vdW  Elec       q    Type
REMARK                         _______ _______ _______ _____ _____    ______ ____
ROOT
ATOM      1  C   UNL     1       2.250   8.619  18.620  0.00  0.00    +0.000 A 
ATOM      2  N   UNL     1       1.529   8.602  19.763  0.00  0.00    +0.000 NA
ATOM      3  C   UNL     1       1.436   7.439  20.441  0.00  0.00    +0.000 A 
ATOM      4  N   UNL     1       1.981   6.242  20.138  0.00  0.00    +0.000 NA
ATOM      5  C   UNL     1       2.692   6.314  18.997  0.00  0.00    +0.000 A 
ATOM      6  C   UNL     1       2.895   7.437  18.216  0.00  0.00    +0.000 A 
ATOM      7  N   UNL     1       3.731   7.156  17.160  0.00  0.00    +0.000 NA
ATOM      8  C   UNL     1       3.987   5.868  17.243  0.00  0.00    +0.000 A 
ATOM      9  N   UNL     1       4.741   5.152  16.385  0.00  0.00    +0.000 N 
ATOM     10  N   UNL     1       3.367   5.306  18.350  0.00  0.00    +0.000 N 
ATOM     11  H   UNL     1       4.718   4.147  16.294  0.00  0.00    +0.000 HD
ENDROOT
BRANCH  10  12
ATOM     12  C   UNL     1       3.495   3.938  18.815  0.00  0.00    +0.000 C 
ATOM     13  S   UNL     1       2.051   3.303  19.747  0.00  0.00    +0.000 S 
ATOM     14  C   UNL     1       3.034   2.410  20.993  0.00  0.00    +0.000 C 
ATOM     15  C   UNL     1       4.435   2.330  20.403  0.00  0.00    +0.000 C 
ATOM     16  C   UNL     1       4.719   3.668  19.707  0.00  0.00    +0.000 C 
BRANCH  15  17
ATOM     17  O   UNL     1       4.553   1.273  19.429  0.00  0.00    +0.000 OA
ATOM     18  H   UNL     1       4.677   0.429  19.903  0.00  0.00    +0.000 HD
ENDBRANCH  15  17
BRANCH  16  19
ATOM     19  O   UNL     1       5.913   3.537  18.922  0.00  0.00    +0.000 OA
ATOM     20  H   UNL     1       6.539   4.211  19.263  0.00  0.00    +0.000 HD
ENDBRANCH  16  19
ENDBRANCH  10  12
BRANCH   1  21
ATOM     21  N   UNL     1       2.319   9.807  17.906  0.00  0.00    +0.000 N 
ATOM     22  H   UNL     1       3.062   9.812  17.221  0.00  0.00    +0.000 HD
ATOM     23  H   UNL     1       1.414  10.179  17.638  0.00  0.00    +0.000 HD
ENDBRANCH   1  21
BRANCH   9  24
ATOM     24  C   UNL     1       5.818   5.798  15.649  0.00  0.00    +0.000 C 
BRANCH  24  25
ATOM     25  C   UNL     1       6.194   5.019  14.411  0.00  0.00    +0.000 A 
ATOM     26  C   UNL     1       5.316   4.056  13.892  0.00  0.00    +0.000 A 
ATOM     27  C   UNL     1       5.611   3.392  12.700  0.00  0.00    +0.000 A 
ATOM     28  C   UNL     1       6.788   3.680  12.012  0.00  0.00    +0.000 A 
ATOM     29  C   UNL     1       7.675   4.627  12.521  0.00  0.00    +0.000 A 
ATOM     30  C   UNL     1       7.380   5.294  13.713  0.00  0.00    +0.000 A 
ENDBRANCH  24  25
ENDBRANCH   9  24
TORSDOF 6
ENDMDL
MODEL 9
REMARK VINA RESULT:      -7.4      2.028      5.678
REMARK  Name = 
REMARK  6 active torsions:
REMARK  status: ('A' for Active; 'I' for Inactive)
REMARK    1  A    between atoms: N_1  and  C_2
REMARK    2  A    between atoms: N_10  and  C_11
REMARK    3  A    between atoms: C_11  and  C_12
REMARK    4  A    between atoms: N_18  and  C_19
REMARK    5  A    between atoms: C_22  and  O_23
REMARK    6  A    between atoms: C_24  and  O_25
REMARK                            x       y       z     vdW  Elec       q    Type
REMARK                         _______ _______ _______ _____ _____    ______ ____
ROOT
ATOM      1  C   UNL     1       6.197   6.325  16.908  0.00  0.00    +0.000 A 
ATOM      2  N   UNL     1       6.664   5.166  16.392  0.00  0.00    +0.000 NA
ATOM      3  C   UNL     1       5.923   4.049  16.559  0.00  0.00    +0.000 A 
ATOM      4  N   UNL     1       4.737   3.913  17.188  0.00  0.00    +0.000 NA
ATOM      5  C   UNL     1       4.315   5.094  17.679  0.00  0.00    +0.000 A 
ATOM      6  C   UNL     1       4.952   6.316  17.560  0.00  0.00    +0.000 A 
ATOM      7  N   UNL     1       4.197   7.319  18.124  0.00  0.00    +0.000 NA
ATOM      8  C   UNL     1       3.146   6.722  18.644  0.00  0.00    +0.000 A 
ATOM      9  N   UNL     1       2.153   7.322  19.330  0.00  0.00    +0.000 N 
ATOM     10  N   UNL     1       3.176   5.356  18.401  0.00  0.00    +0.000 N 
ATOM     11  H   UNL     1       1.506   6.849  19.944  0.00  0.00    +0.000 HD
ENDROOT
BRANCH  10  12
ATOM     12  C   UNL     1       2.146   4.392  18.740  0.00  0.00    +0.000 C 
ATOM     13  S   UNL     1       1.743   4.291  20.524  0.00  0.00    +0.000 S 
ATOM     14  C   UNL     1       1.580   2.477  20.557  0.00  0.00    +0.000 C 
ATOM     15  C   UNL     1       1.470   2.067  19.095  0.00  0.00    +0.000 C 
ATOM     16  C   UNL     1       2.438   2.948  18.295  0.00  0.00    +0.000 C 
BRANCH  15  17
ATOM     17  O   UNL     1       0.138   2.261  18.578  0.00  0.00    +0.000 OA
ATOM     18  H   UNL     1       0.172   2.195  17.605  0.00  0.00    +0.000 HD
ENDBRANCH  15  17
BRANCH  16  19
ATOM     19  O   UNL     1       2.173   2.774  16.896  0.00  0.00    +0.000 OA
ATOM     20  H   UNL     1       2.415   3.621  16.465  0.00  0.00    +0.000 HD
ENDBRANCH  16  19
ENDBRANCH  10  12
BRANCH   1  21
ATOM     21  N   UNL     1       6.973   7.466  16.765  0.00  0.00    +0.000 N 
ATOM     22  H   UNL     1       6.765   8.172  17.456  0.00  0.00    +0.000 HD
ATOM     23  H   UNL     1       7.945   7.277  16.544  0.00  0.00    +0.000 HD
ENDBRANCH   1  21
BRANCH   9  24
ATOM     24  C   UNL     1       1.819   8.713  19.062  0.00  0.00    +0.000 C 
BRANCH  24  25
ATOM     25  C   UNL     1       0.994   9.314  20.175  0.00  0.00    +0.000 A 
ATOM     26  C   UNL     1       0.921   8.674  21.421  0.00  0.00    +0.000 A 
ATOM     27  C   UNL     1       0.235   9.263  22.485  0.00  0.00    +0.000 A 
ATOM     28  C   UNL     1      -0.389  10.497  22.317  0.00  0.00    +0.000 A 
ATOM     29  C   UNL     1      -0.334  11.140  21.081  0.00  0.00    +0.000 A 
ATOM     30  C   UNL     1       0.354  10.553  20.016  0.00  0.00    +0.000 A 
ENDBRANCH  24  25
ENDBRANCH   9  24
TORSDOF 6
ENDMDL
