MODEL 1
REMARK VINA RESULT:      -8.1      0.000      0.000
REMARK  Name = 
REMARK  12 active torsions:
REMARK  status: ('A' for Active; 'I' for Inactive)
REMARK    1  A    between atoms: C_1  and  O_2
REMARK    2  A    between atoms: O_2  and  C_3
REMARK    3  A    between atoms: C_6  and  C_7
REMARK    4  A    between atoms: C_9  and  C_10
REMARK    5  A    between atoms: C_10  and  S_11
REMARK    6  A    between atoms: S_11  and  C_13
REMARK    7  A    between atoms: C_13  and  C_14
REMARK    8  A    between atoms: N_16  and  C_17
REMARK    9  A    between atoms: C_17  and  C_18
REMARK   10  A    between atoms: C_25  and  C_26
REMARK   11  A    between atoms: C_29  and  O_30
REMARK   12  A    between atoms: O_30  and  C_31
REMARK                            x       y       z     vdW  Elec       q    Type
REMARK                         _______ _______ _______ _____ _____    ______ ____
ROOT
ATOM      1  C   UNL     1       1.307   8.176  20.474  0.00  0.00    +0.000 A 
ATOM      2  N   UNL     1       1.561   6.925  20.809  0.00  0.00    +0.000 NA
ATOM      3  C   UNL     1       2.353   6.450  19.781  0.00  0.00    +0.000 A 
ATOM      4  C   UNL     1       2.551   7.455  18.858  0.00  0.00    +0.000 A 
ATOM      5  C   UNL     1       3.297   7.599  17.596  0.00  0.00    +0.000 C 
ATOM      6  O   UNL     1       1.879   8.561  19.291  0.00  0.00    +0.000 OA
ENDROOT
BRANCH   1  10
ATOM      7  C   UNL     1      -0.907  11.223  22.516  0.00  0.00    +0.000 A 
ATOM      8  C   UNL     1      -0.391  10.126  23.220  0.00  0.00    +0.000 A 
ATOM      9  C   UNL     1       0.339   9.133  22.564  0.00  0.00    +0.000 A 
ATOM     10  C   UNL     1       0.542   9.194  21.183  0.00  0.00    +0.000 A 
ATOM     11  C   UNL     1      -0.025  10.262  20.476  0.00  0.00    +0.000 A 
ATOM     12  C   UNL     1      -0.755  11.274  21.122  0.00  0.00    +0.000 A 
BRANCH   7  14
ATOM     13  C   UNL     1      -2.974  11.985  23.369  0.00  0.00    +0.000 C 
ATOM     14  O   UNL     1      -1.581  12.223  23.166  0.00  0.00    +0.000 OA
ENDBRANCH   7  14
BRANCH  12  15
ATOM     15  O   UNL     1      -1.211  12.218  20.239  0.00  0.00    +0.000 OA
ATOM     16  C   UNL     1      -0.448  13.394  20.032  0.00  0.00    +0.000 C 
ENDBRANCH  12  15
ENDBRANCH   1  10
BRANCH   3  17
ATOM     17  C   UNL     1       2.877   5.062  19.798  0.00  0.00    +0.000 C 
BRANCH  17  18
ATOM     18  S   UNL     1       1.651   3.922  19.080  0.00  0.00    +0.000 S 
ATOM     19  O   UNL     1       1.185   4.506  17.695  0.00  0.00    +0.000 OA
BRANCH  18  20
ATOM     20  C   UNL     1       2.792   2.560  18.718  0.00  0.00    +0.000 C 
BRANCH  20  21
ATOM     21  C   UNL     1       4.039   2.630  19.564  0.00  0.00    +0.000 C 
ATOM     22  O   UNL     1       4.053   2.193  20.715  0.00  0.00    +0.000 OA
ATOM     23  N   UNL     1       5.183   3.166  19.053  0.00  0.00    +0.000 N 
ATOM     24  H   UNL     1       5.955   3.186  19.708  0.00  0.00    +0.000 HD
BRANCH  23  25
ATOM     25  C   UNL     1       5.377   3.796  17.757  0.00  0.00    +0.000 C 
BRANCH  25  26
ATOM     26  C   UNL     1       6.248   5.030  17.832  0.00  0.00    +0.000 A 
ATOM     27  C   UNL     1       7.029   5.272  18.977  0.00  0.00    +0.000 A 
ATOM     28  C   UNL     1       7.857   6.395  19.066  0.00  0.00    +0.000 A 
ATOM     29  C   UNL     1       7.923   7.294  18.004  0.00  0.00    +0.000 A 
ATOM     30  C   UNL     1       7.179   7.060  16.853  0.00  0.00    +0.000 A 
ATOM     31  C   UNL     1       6.354   5.931  16.759  0.00  0.00    +0.000 A 
ATOM     32 CL   UNL     1       5.495   5.705  15.277  0.00  0.00    +0.000 Cl
ENDBRANCH  25  26
ENDBRANCH  23  25
ENDBRANCH  20  21
ENDBRANCH  18  20
ENDBRANCH  17  18
ENDBRANCH   3  17
TORSDOF 9
ENDMDL
MODEL 2
REMARK VINA RESULT:      -7.8      1.465      1.772
REMARK  Name = 
REMARK  12 active torsions:
REMARK  status: ('A' for Active; 'I' for Inactive)
REMARK    1  A    between atoms: C_1  and  O_2
REMARK    2  A    between atoms: O_2  and  C_3
REMARK    3  A    between atoms: C_6  and  C_7
REMARK    4  A    between atoms: C_9  and  C_10
REMARK    5  A    between atoms: C_10  and  S_11
REMARK    6  A    between atoms: S_11  and  C_13
REMARK    7  A    between atoms: C_13  and  C_14
REMARK    8  A    between atoms: N_16  and  C_17
REMARK    9  A    between atoms: C_17  and  C_18
REMARK   10  A    between atoms: C_25  and  C_26
REMARK   11  A    between atoms: C_29  and  O_30
REMARK   12  A    between atoms: O_30  and  C_31
REMARK                            x       y       z     vdW  Elec       q    Type
REMARK                         _______ _______ _______ _____ _____    ______ ____
ROOT
ATOM      1  C   UNL     1       1.032   8.912  20.686  0.00  0.00    +0.000 A 
ATOM      2  N   UNL     1       1.467   7.739  21.107  0.00  0.00    +0.000 NA
ATOM      3  C   UNL     1       2.116   7.204  20.011  0.00  0.00    +0.000 A 
ATOM      4  C   UNL     1       2.049   8.096  18.961  0.00  0.00    +0.000 A 
ATOM      5  C   UNL     1       2.549   8.138  17.576  0.00  0.00    +0.000 C 
ATOM      6  O   UNL     1       1.350   9.189  19.384  0.00  0.00    +0.000 OA
ENDROOT
BRANCH   1  10
ATOM      7  C   UNL     1      -1.063  11.999  22.793  0.00  0.00    +0.000 A 
ATOM      8  C   UNL     1      -1.151  10.665  23.214  0.00  0.00    +0.000 A 
ATOM      9  C   UNL     1      -0.465   9.653  22.539  0.00  0.00    +0.000 A 
ATOM     10  C   UNL     1       0.298   9.946  21.406  0.00  0.00    +0.000 A 
ATOM     11  C   UNL     1       0.335  11.272  20.956  0.00  0.00    +0.000 A 
ATOM     12  C   UNL     1      -0.342  12.303  21.629  0.00  0.00    +0.000 A 
BRANCH   7  14
ATOM     13  C   UNL     1      -3.057  13.223  23.118  0.00  0.00    +0.000 C 
ATOM     14  O   UNL     1      -1.696  12.999  23.484  0.00  0.00    +0.000 OA
ENDBRANCH   7  14
BRANCH  12  15
ATOM     15  O   UNL     1      -0.162  13.516  21.017  0.00  0.00    +0.000 OA
ATOM     16  C   UNL     1       0.915  14.342  21.426  0.00  0.00    +0.000 C 
ENDBRANCH  12  15
ENDBRANCH   1  10
BRANCH   3  17
ATOM     17  C   UNL     1       2.776   5.876  20.086  0.00  0.00    +0.000 C 
BRANCH  17  18
ATOM     18  S   UNL     1       1.597   4.565  19.629  0.00  0.00    +0.000 S 
ATOM     19  O   UNL     1       1.581   4.440  18.060  0.00  0.00    +0.000 OA
BRANCH  18  20
ATOM     20  C   UNL     1       2.560   3.164  20.258  0.00  0.00    +0.000 C 
BRANCH  20  21
ATOM     21  C   UNL     1       3.177   2.358  19.142  0.00  0.00    +0.000 C 
ATOM     22  O   UNL     1       2.573   1.417  18.627  0.00  0.00    +0.000 OA
ATOM     23  N   UNL     1       4.416   2.678  18.672  0.00  0.00    +0.000 N 
ATOM     24  H   UNL     1       4.748   2.063  17.938  0.00  0.00    +0.000 HD
BRANCH  23  25
ATOM     25  C   UNL     1       5.329   3.696  19.168  0.00  0.00    +0.000 C 
BRANCH  25  26
ATOM     26  C   UNL     1       5.642   4.753  18.132  0.00  0.00    +0.000 A 
ATOM     27  C   UNL     1       4.851   4.862  16.975  0.00  0.00    +0.000 A 
ATOM     28  C   UNL     1       5.107   5.842  16.010  0.00  0.00    +0.000 A 
ATOM     29  C   UNL     1       6.158   6.736  16.193  0.00  0.00    +0.000 A 
ATOM     30  C   UNL     1       6.937   6.663  17.343  0.00  0.00    +0.000 A 
ATOM     31  C   UNL     1       6.677   5.686  18.314  0.00  0.00    +0.000 A 
ATOM     32 CL   UNL     1       7.675   5.694  19.724  0.00  0.00    +0.000 Cl
ENDBRANCH  25  26
ENDBRANCH  23  25
ENDBRANCH  20  21
ENDBRANCH  18  20
ENDBRANCH  17  18
ENDBRANCH   3  17
TORSDOF 9
ENDMDL
MODEL 3
REMARK VINA RESULT:      -7.7      3.928      5.297
REMARK  Name = 
REMARK  12 active torsions:
REMARK  status: ('A' for Active; 'I' for Inactive)
REMARK    1  A    between atoms: C_1  and  O_2
REMARK    2  A    between atoms: O_2  and  C_3
REMARK    3  A    between atoms: C_6  and  C_7
REMARK    4  A    between atoms: C_9  and  C_10
REMARK    5  A    between atoms: C_10  and  S_11
REMARK    6  A    between atoms: S_11  and  C_13
REMARK    7  A    between atoms: C_13  and  C_14
REMARK    8  A    between atoms: N_16  and  C_17
REMARK    9  A    between atoms: C_17  and  C_18
REMARK   10  A    between atoms: C_25  and  C_26
REMARK   11  A    between atoms: C_29  and  O_30
REMARK   12  A    between atoms: O_30  and  C_31
REMARK                            x       y       z     vdW  Elec       q    Type
REMARK                         _______ _______ _______ _____ _____    ______ ____
ROOT
ATOM      1  C   UNL     1       2.936   7.440  18.253  0.00  0.00    +0.000 A 
ATOM      2  N   UNL     1       3.606   7.441  17.116  0.00  0.00    +0.000 NA
ATOM      3  C   UNL     1       4.295   6.243  17.125  0.00  0.00    +0.000 A 
ATOM      4  C   UNL     1       4.000   5.557  18.285  0.00  0.00    +0.000 A 
ATOM      5  C   UNL     1       4.372   4.256  18.866  0.00  0.00    +0.000 C 
ATOM      6  O   UNL     1       3.135   6.320  19.014  0.00  0.00    +0.000 OA
ENDROOT
BRANCH   1  10
ATOM      7  C   UNL     1       0.182  10.293  19.876  0.00  0.00    +0.000 A 
ATOM      8  C   UNL     1       0.509  10.315  18.513  0.00  0.00    +0.000 A 
ATOM      9  C   UNL     1       1.399   9.384  17.973  0.00  0.00    +0.000 A 
ATOM     10  C   UNL     1       2.010   8.429  18.790  0.00  0.00    +0.000 A 
ATOM     11  C   UNL     1       1.724   8.449  20.161  0.00  0.00    +0.000 A 
ATOM     12  C   UNL     1       0.825   9.373  20.718  0.00  0.00    +0.000 A 
BRANCH   7  14
ATOM     13  C   UNL     1      -0.173  12.380  20.923  0.00  0.00    +0.000 C 
ATOM     14  O   UNL     1      -0.728  11.175  20.396  0.00  0.00    +0.000 OA
ENDBRANCH   7  14
BRANCH  12  15
ATOM     15  O   UNL     1       0.694   9.206  22.072  0.00  0.00    +0.000 OA
ATOM     16  C   UNL     1      -0.558   8.798  22.598  0.00  0.00    +0.000 C 
ENDBRANCH  12  15
ENDBRANCH   1  10
BRANCH   3  17
ATOM     17  C   UNL     1       5.163   5.852  15.986  0.00  0.00    +0.000 C 
BRANCH  17  18
ATOM     18  S   UNL     1       6.884   5.655  16.551  0.00  0.00    +0.000 S 
ATOM     19  O   UNL     1       7.824   5.670  15.289  0.00  0.00    +0.000 OA
BRANCH  18  20
ATOM     20  C   UNL     1       7.048   7.275  17.349  0.00  0.00    +0.000 C 
BRANCH  20  21
ATOM     21  C   UNL     1       8.038   7.244  18.487  0.00  0.00    +0.000 C 
ATOM     22  O   UNL     1       8.297   6.195  19.077  0.00  0.00    +0.000 OA
ATOM     23  N   UNL     1       8.679   8.386  18.866  0.00  0.00    +0.000 N 
ATOM     24  H   UNL     1       9.306   8.263  19.652  0.00  0.00    +0.000 HD
BRANCH  23  25
ATOM     25  C   UNL     1       8.483   9.735  18.360  0.00  0.00    +0.000 C 
BRANCH  25  26
ATOM     26  C   UNL     1       9.621  10.664  18.720  0.00  0.00    +0.000 A 
ATOM     27  C   UNL     1      10.486  11.140  17.718  0.00  0.00    +0.000 A 
ATOM     28  C   UNL     1      11.535  12.015  18.020  0.00  0.00    +0.000 A 
ATOM     29  C   UNL     1      11.731  12.434  19.333  0.00  0.00    +0.000 A 
ATOM     30  C   UNL     1      10.872  11.997  20.335  0.00  0.00    +0.000 A 
ATOM     31  C   UNL     1       9.816  11.126  20.033  0.00  0.00    +0.000 A 
ATOM     32 CL   UNL     1       8.780  10.664  21.336  0.00  0.00    +0.000 Cl
ENDBRANCH  25  26
ENDBRANCH  23  25
ENDBRANCH  20  21
ENDBRANCH  18  20
ENDBRANCH  17  18
ENDBRANCH   3  17
TORSDOF 9
ENDMDL
MODEL 4
REMARK VINA RESULT:      -7.5      1.845      2.492
REMARK  Name = 
REMARK  12 active torsions:
REMARK  status: ('A' for Active; 'I' for Inactive)
REMARK    1  A    between atoms: C_1  and  O_2
REMARK    2  A    between atoms: O_2  and  C_3
REMARK    3  A    between atoms: C_6  and  C_7
REMARK    4  A    between atoms: C_9  and  C_10
REMARK    5  A    between atoms: C_10  and  S_11
REMARK    6  A    between atoms: S_11  and  C_13
REMARK    7  A    between atoms: C_13  and  C_14
REMARK    8  A    between atoms: N_16  and  C_17
REMARK    9  A    between atoms: C_17  and  C_18
REMARK   10  A    between atoms: C_25  and  C_26
REMARK   11  A    between atoms: C_29  and  O_30
REMARK   12  A    between atoms: O_30  and  C_31
REMARK                            x       y       z     vdW  Elec       q    Type
REMARK                         _______ _______ _______ _____ _____    ______ ____
ROOT
ATOM      1  C   UNL     1       1.152   8.977  19.638  0.00  0.00    +0.000 A 
ATOM      2  N   UNL     1       1.330   7.959  20.458  0.00  0.00    +0.000 NA
ATOM      3  C   UNL     1       2.238   7.148  19.804  0.00  0.00    +0.000 A 
ATOM      4  C   UNL     1       2.578   7.727  18.598  0.00  0.00    +0.000 A 
ATOM      5  C   UNL     1       3.485   7.396  17.486  0.00  0.00    +0.000 C 
ATOM      6  O   UNL     1       1.882   8.895  18.483  0.00  0.00    +0.000 OA
ENDROOT
BRANCH   1  10
ATOM      7  C   UNL     1      -1.269  12.491  20.027  0.00  0.00    +0.000 A 
ATOM      8  C   UNL     1      -0.336  12.156  21.019  0.00  0.00    +0.000 A 
ATOM      9  C   UNL     1       0.463  11.018  20.896  0.00  0.00    +0.000 A 
ATOM     10  C   UNL     1       0.325  10.167  19.797  0.00  0.00    +0.000 A 
ATOM     11  C   UNL     1      -0.648  10.476  18.838  0.00  0.00    +0.000 A 
ATOM     12  C   UNL     1      -1.455  11.622  18.942  0.00  0.00    +0.000 A 
BRANCH   7  14
ATOM     13  C   UNL     1      -1.281  14.822  20.410  0.00  0.00    +0.000 C 
ATOM     14  O   UNL     1      -2.018  13.634  20.122  0.00  0.00    +0.000 OA
ENDBRANCH   7  14
BRANCH  12  15
ATOM     15  O   UNL     1      -2.331  11.726  17.894  0.00  0.00    +0.000 OA
ATOM     16  C   UNL     1      -3.715  11.529  18.128  0.00  0.00    +0.000 C 
ENDBRANCH  12  15
ENDBRANCH   1  10
BRANCH   3  17
ATOM     17  C   UNL     1       2.722   5.888  20.421  0.00  0.00    +0.000 C 
BRANCH  17  18
ATOM     18  S   UNL     1       1.622   4.508  19.969  0.00  0.00    +0.000 S 
ATOM     19  O   UNL     1       1.497   4.469  18.401  0.00  0.00    +0.000 OA
BRANCH  18  20
ATOM     20  C   UNL     1       2.741   3.162  20.441  0.00  0.00    +0.000 C 
BRANCH  20  21
ATOM     21  C   UNL     1       3.124   2.307  19.258  0.00  0.00    +0.000 C 
ATOM     22  O   UNL     1       2.535   1.253  19.017  0.00  0.00    +0.000 OA
ATOM     23  N   UNL     1       4.124   2.705  18.422  0.00  0.00    +0.000 N 
ATOM     24  H   UNL     1       4.317   2.051  17.673  0.00  0.00    +0.000 HD
BRANCH  23  25
ATOM     25  C   UNL     1       4.990   3.866  18.548  0.00  0.00    +0.000 C 
BRANCH  25  26
ATOM     26  C   UNL     1       5.612   4.277  17.231  0.00  0.00    +0.000 A 
ATOM     27  C   UNL     1       4.931   4.032  16.025  0.00  0.00    +0.000 A 
ATOM     28  C   UNL     1       5.474   4.417  14.795  0.00  0.00    +0.000 A 
ATOM     29  C   UNL     1       6.707   5.062  14.753  0.00  0.00    +0.000 A 
ATOM     30  C   UNL     1       7.384   5.338  15.936  0.00  0.00    +0.000 A 
ATOM     31  C   UNL     1       6.838   4.959  17.170  0.00  0.00    +0.000 A 
ATOM     32 CL   UNL     1       7.735   5.374  18.587  0.00  0.00    +0.000 Cl
ENDBRANCH  25  26
ENDBRANCH  23  25
ENDBRANCH  20  21
ENDBRANCH  18  20
ENDBRANCH  17  18
ENDBRANCH   3  17
TORSDOF 9
ENDMDL
MODEL 5
REMARK VINA RESULT:      -7.5      5.209      8.053
REMARK  Name = 
REMARK  12 active torsions:
REMARK  status: ('A' for Active; 'I' for Inactive)
REMARK    1  A    between atoms: C_1  and  O_2
REMARK    2  A    between atoms: O_2  and  C_3
REMARK    3  A    between atoms: C_6  and  C_7
REMARK    4  A    between atoms: C_9  and  C_10
REMARK    5  A    between atoms: C_10  and  S_11
REMARK    6  A    between atoms: S_11  and  C_13
REMARK    7  A    between atoms: C_13  and  C_14
REMARK    8  A    between atoms: N_16  and  C_17
REMARK    9  A    between atoms: C_17  and  C_18
REMARK   10  A    between atoms: C_25  and  C_26
REMARK   11  A    between atoms: C_29  and  O_30
REMARK   12  A    between atoms: O_30  and  C_31
REMARK                            x       y       z     vdW  Elec       q    Type
REMARK                         _______ _______ _______ _____ _____    ______ ____
ROOT
ATOM      1  C   UNL     1       8.531   8.856  18.431  0.00  0.00    +0.000 A 
ATOM      2  N   UNL     1       7.861   8.499  17.351  0.00  0.00    +0.000 NA
ATOM      3  C   UNL     1       7.590   7.159  17.545  0.00  0.00    +0.000 A 
ATOM      4  C   UNL     1       8.111   6.760  18.758  0.00  0.00    +0.000 A 
ATOM      5  C   UNL     1       8.138   5.510  19.538  0.00  0.00    +0.000 C 
ATOM      6  O   UNL     1       8.721   7.840  19.328  0.00  0.00    +0.000 OA
ENDROOT
BRANCH   1  10
ATOM      7  C   UNL     1      10.145  12.684  19.481  0.00  0.00    +0.000 A 
ATOM      8  C   UNL     1       9.840  11.743  20.475  0.00  0.00    +0.000 A 
ATOM      9  C   UNL     1       9.322  10.490  20.141  0.00  0.00    +0.000 A 
ATOM     10  C   UNL     1       9.063  10.159  18.809  0.00  0.00    +0.000 A 
ATOM     11  C   UNL     1       9.316  11.124  17.825  0.00  0.00    +0.000 A 
ATOM     12  C   UNL     1       9.845  12.386  18.143  0.00  0.00    +0.000 A 
BRANCH   7  14
ATOM     13  C   UNL     1      12.126  13.922  19.828  0.00  0.00    +0.000 C 
ATOM     14  O   UNL     1      10.700  13.894  19.803  0.00  0.00    +0.000 OA
ENDBRANCH   7  14
BRANCH  12  15
ATOM     15  O   UNL     1      10.016  13.164  17.028  0.00  0.00    +0.000 OA
ATOM     16  C   UNL     1      11.318  13.323  16.490  0.00  0.00    +0.000 C 
ENDBRANCH  12  15
ENDBRANCH   1  10
BRANCH   3  17
ATOM     17  C   UNL     1       6.817   6.382  16.544  0.00  0.00    +0.000 C 
BRANCH  17  18
ATOM     18  S   UNL     1       5.158   7.104  16.337  0.00  0.00    +0.000 S 
ATOM     19  O   UNL     1       4.812   7.117  14.801  0.00  0.00    +0.000 OA
BRANCH  18  20
ATOM     20  C   UNL     1       4.222   5.738  17.074  0.00  0.00    +0.000 C 
BRANCH  20  21
ATOM     21  C   UNL     1       4.882   4.404  16.826  0.00  0.00    +0.000 C 
ATOM     22  O   UNL     1       5.132   4.020  15.683  0.00  0.00    +0.000 OA
ATOM     23  N   UNL     1       5.233   3.609  17.877  0.00  0.00    +0.000 N 
ATOM     24  H   UNL     1       5.649   2.727  17.602  0.00  0.00    +0.000 HD
BRANCH  23  25
ATOM     25  C   UNL     1       4.978   3.828  19.291  0.00  0.00    +0.000 C 
BRANCH  25  26
ATOM     26  C   UNL     1       3.521   3.653  19.656  0.00  0.00    +0.000 A 
ATOM     27  C   UNL     1       2.820   4.700  20.281  0.00  0.00    +0.000 A 
ATOM     28  C   UNL     1       1.468   4.572  20.612  0.00  0.00    +0.000 A 
ATOM     29  C   UNL     1       0.790   3.392  20.315  0.00  0.00    +0.000 A 
ATOM     30  C   UNL     1       1.457   2.354  19.673  0.00  0.00    +0.000 A 
ATOM     31  C   UNL     1       2.810   2.483  19.334  0.00  0.00    +0.000 A 
ATOM     32 CL   UNL     1       3.545   1.156  18.508  0.00  0.00    +0.000 Cl
ENDBRANCH  25  26
ENDBRANCH  23  25
ENDBRANCH  20  21
ENDBRANCH  18  20
ENDBRANCH  17  18
ENDBRANCH   3  17
TORSDOF 9
ENDMDL
MODEL 6
REMARK VINA RESULT:      -7.5      3.666      5.155
REMARK  Name = 
REMARK  12 active torsions:
REMARK  status: ('A' for Active; 'I' for Inactive)
REMARK    1  A    between atoms: C_1  and  O_2
REMARK    2  A    between atoms: O_2  and  C_3
REMARK    3  A    between atoms: C_6  and  C_7
REMARK    4  A    between atoms: C_9  and  C_10
REMARK    5  A    between atoms: C_10  and  S_11
REMARK    6  A    between atoms: S_11  and  C_13
REMARK    7  A    between atoms: C_13  and  C_14
REMARK    8  A    between atoms: N_16  and  C_17
REMARK    9  A    between atoms: C_17  and  C_18
REMARK   10  A    between atoms: C_25  and  C_26
REMARK   11  A    between atoms: C_29  and  O_30
REMARK   12  A    between atoms: O_30  and  C_31
REMARK                            x       y       z     vdW  Elec       q    Type
REMARK                         _______ _______ _______ _____ _____    ______ ____
ROOT
ATOM      1  C   UNL     1       2.972   6.528  18.276  0.00  0.00    +0.000 A 
ATOM      2  N   UNL     1       4.275   6.382  18.126  0.00  0.00    +0.000 NA
ATOM      3  C   UNL     1       4.425   5.080  17.690  0.00  0.00    +0.000 A 
ATOM      4  C   UNL     1       3.182   4.488  17.588  0.00  0.00    +0.000 A 
ATOM      5  C   UNL     1       2.669   3.173  17.167  0.00  0.00    +0.000 C 
ATOM      6  O   UNL     1       2.248   5.408  17.967  0.00  0.00    +0.000 OA
ENDROOT
BRANCH   1  10
ATOM      7  C   UNL     1       0.677   9.921  19.533  0.00  0.00    +0.000 A 
ATOM      8  C   UNL     1       1.096   9.800  18.200  0.00  0.00    +0.000 A 
ATOM      9  C   UNL     1       1.837   8.694  17.780  0.00  0.00    +0.000 A 
ATOM     10  C   UNL     1       2.206   7.698  18.688  0.00  0.00    +0.000 A 
ATOM     11  C   UNL     1       1.834   7.854  20.029  0.00  0.00    +0.000 A 
ATOM     12  C   UNL     1       1.082   8.956  20.467  0.00  0.00    +0.000 A 
BRANCH   7  14
ATOM     13  C   UNL     1      -1.116  11.371  19.021  0.00  0.00    +0.000 C 
ATOM     14  O   UNL     1      -0.092  10.981  19.935  0.00  0.00    +0.000 OA
ENDBRANCH   7  14
BRANCH  12  15
ATOM     15  O   UNL     1       0.828   8.900  21.813  0.00  0.00    +0.000 OA
ATOM     16  C   UNL     1      -0.504   8.708  22.257  0.00  0.00    +0.000 C 
ENDBRANCH  12  15
ENDBRANCH   1  10
BRANCH   3  17
ATOM     17  C   UNL     1       5.766   4.526  17.381  0.00  0.00    +0.000 C 
BRANCH  17  18
ATOM     18  S   UNL     1       6.666   5.652  16.267  0.00  0.00    +0.000 S 
ATOM     19  O   UNL     1       5.741   5.970  15.034  0.00  0.00    +0.000 OA
BRANCH  18  20
ATOM     20  C   UNL     1       6.629   7.112  17.341  0.00  0.00    +0.000 C 
BRANCH  20  21
ATOM     21  C   UNL     1       7.817   7.158  18.270  0.00  0.00    +0.000 C 
ATOM     22  O   UNL     1       8.191   6.152  18.875  0.00  0.00    +0.000 OA
ATOM     23  N   UNL     1       8.509   8.320  18.438  0.00  0.00    +0.000 N 
ATOM     24  H   UNL     1       9.274   8.250  19.098  0.00  0.00    +0.000 HD
BRANCH  23  25
ATOM     25  C   UNL     1       8.210   9.630  17.884  0.00  0.00    +0.000 C 
BRANCH  25  26
ATOM     26  C   UNL     1       8.949  10.745  18.590  0.00  0.00    +0.000 A 
ATOM     27  C   UNL     1       9.898  10.442  19.583  0.00  0.00    +0.000 A 
ATOM     28  C   UNL     1      10.609  11.452  20.239  0.00  0.00    +0.000 A 
ATOM     29  C   UNL     1      10.385  12.786  19.906  0.00  0.00    +0.000 A 
ATOM     30  C   UNL     1       9.470  13.106  18.909  0.00  0.00    +0.000 A 
ATOM     31  C   UNL     1       8.762  12.095  18.245  0.00  0.00    +0.000 A 
ATOM     32 CL   UNL     1       7.673  12.586  16.998  0.00  0.00    +0.000 Cl
ENDBRANCH  25  26
ENDBRANCH  23  25
ENDBRANCH  20  21
ENDBRANCH  18  20
ENDBRANCH  17  18
ENDBRANCH   3  17
TORSDOF 9
ENDMDL
MODEL 7
REMARK VINA RESULT:      -7.5      3.639      9.674
REMARK  Name = 
REMARK  12 active torsions:
REMARK  status: ('A' for Active; 'I' for Inactive)
REMARK    1  A    between atoms: C_1  and  O_2
REMARK    2  A    between atoms: O_2  and  C_3
REMARK    3  A    between atoms: C_6  and  C_7
REMARK    4  A    between atoms: C_9  and  C_10
REMARK    5  A    between atoms: C_10  and  S_11
REMARK    6  A    between atoms: S_11  and  C_13
REMARK    7  A    between atoms: C_13  and  C_14
REMARK    8  A    between atoms: N_16  and  C_17
REMARK    9  A    between atoms: C_17  and  C_18
REMARK   10  A    between atoms: C_25  and  C_26
REMARK   11  A    between atoms: C_29  and  O_30
REMARK   12  A    between atoms: O_30  and  C_31
REMARK                            x       y       z     vdW  Elec       q    Type
REMARK                         _______ _______ _______ _____ _____    ______ ____
ROOT
ATOM      1  C   UNL     1       3.629   5.808  18.517  0.00  0.00    +0.000 A 
ATOM      2  N   UNL     1       3.111   6.942  18.952  0.00  0.00    +0.000 NA
ATOM      3  C   UNL     1       2.185   6.553  19.900  0.00  0.00    +0.000 A 
ATOM      4  C   UNL     1       2.188   5.177  20.002  0.00  0.00    +0.000 A 
ATOM      5  C   UNL     1       1.481   4.176  20.819  0.00  0.00    +0.000 C 
ATOM      6  O   UNL     1       3.106   4.693  19.116  0.00  0.00    +0.000 OA
ENDROOT
BRANCH   1  10
ATOM      7  C   UNL     1       6.712   5.216  15.601  0.00  0.00    +0.000 A 
ATOM      8  C   UNL     1       5.629   4.329  15.682  0.00  0.00    +0.000 A 
ATOM      9  C   UNL     1       4.615   4.519  16.623  0.00  0.00    +0.000 A 
ATOM     10  C   UNL     1       4.677   5.580  17.530  0.00  0.00    +0.000 A 
ATOM     11  C   UNL     1       5.790   6.429  17.482  0.00  0.00    +0.000 A 
ATOM     12  C   UNL     1       6.814   6.257  16.536  0.00  0.00    +0.000 A 
BRANCH   7  14
ATOM     13  C   UNL     1       7.199   4.782  13.331  0.00  0.00    +0.000 C 
ATOM     14  O   UNL     1       7.681   5.058  14.646  0.00  0.00    +0.000 OA
ENDBRANCH   7  14
BRANCH  12  15
ATOM     15  O   UNL     1       7.797   7.202  16.670  0.00  0.00    +0.000 OA
ATOM     16  C   UNL     1       7.754   8.091  17.773  0.00  0.00    +0.000 C 
ENDBRANCH  12  15
ENDBRANCH   1  10
BRANCH   3  17
ATOM     17  C   UNL     1       1.391   7.557  20.651  0.00  0.00    +0.000 C 
BRANCH  17  18
ATOM     18  S   UNL     1       1.444   9.164  19.794  0.00  0.00    +0.000 S 
ATOM     19  O   UNL     1       1.008   8.941  18.298  0.00  0.00    +0.000 OA
BRANCH  18  20
ATOM     20  C   UNL     1       0.034   9.922  20.645  0.00  0.00    +0.000 C 
BRANCH  20  21
ATOM     21  C   UNL     1       0.149  11.425  20.696  0.00  0.00    +0.000 C 
ATOM     22  O   UNL     1       0.702  11.989  21.641  0.00  0.00    +0.000 OA
ATOM     23  N   UNL     1      -0.346  12.184  19.677  0.00  0.00    +0.000 N 
ATOM     24  H   UNL     1      -0.238  13.181  19.819  0.00  0.00    +0.000 HD
BRANCH  23  25
ATOM     25  C   UNL     1      -1.088  11.742  18.508  0.00  0.00    +0.000 C 
BRANCH  25  26
ATOM     26  C   UNL     1      -2.585  11.795  18.713  0.00  0.00    +0.000 A 
ATOM     27  C   UNL     1      -3.123  12.517  19.793  0.00  0.00    +0.000 A 
ATOM     28  C   UNL     1      -4.505  12.598  19.997  0.00  0.00    +0.000 A 
ATOM     29  C   UNL     1      -5.373  11.961  19.114  0.00  0.00    +0.000 A 
ATOM     30  C   UNL     1      -4.864  11.263  18.024  0.00  0.00    +0.000 A 
ATOM     31  C   UNL     1      -3.480  11.187  17.815  0.00  0.00    +0.000 A 
ATOM     32 CL   UNL     1      -2.941  10.329  16.416  0.00  0.00    +0.000 Cl
ENDBRANCH  25  26
ENDBRANCH  23  25
ENDBRANCH  20  21
ENDBRANCH  18  20
ENDBRANCH  17  18
ENDBRANCH   3  17
TORSDOF 9
ENDMDL
MODEL 8
REMARK VINA RESULT:      -7.4      1.933      3.420
REMARK  Name = 
REMARK  12 active torsions:
REMARK  status: ('A' for Active; 'I' for Inactive)
REMARK    1  A    between atoms: C_1  and  O_2
REMARK    2  A    between atoms: O_2  and  C_3
REMARK    3  A    between atoms: C_6  and  C_7
REMARK    4  A    between atoms: C_9  and  C_10
REMARK    5  A    between atoms: C_10  and  S_11
REMARK    6  A    between atoms: S_11  and  C_13
REMARK    7  A    between atoms: C_13  and  C_14
REMARK    8  A    between atoms: N_16  and  C_17
REMARK    9  A    between atoms: C_17  and  C_18
REMARK   10  A    between atoms: C_25  and  C_26
REMARK   11  A    between atoms: C_29  and  O_30
REMARK   12  A    between atoms: O_30  and  C_31
REMARK                            x       y       z     vdW  Elec       q    Type
REMARK                         _______ _______ _______ _____ _____    ______ ____
ROOT
ATOM      1  C   UNL     1       2.566   5.980  19.831  0.00  0.00    +0.000 A 
ATOM      2  N   UNL     1       3.510   5.217  19.312  0.00  0.00    +0.000 NA
ATOM      3  C   UNL     1       3.442   4.046  20.042  0.00  0.00    +0.000 A 
ATOM      4  C   UNL     1       2.438   4.153  20.982  0.00  0.00    +0.000 A 
ATOM      5  C   UNL     1       1.858   3.276  22.014  0.00  0.00    +0.000 C 
ATOM      6  O   UNL     1       1.877   5.391  20.856  0.00  0.00    +0.000 OA
ENDROOT
BRANCH   1  10
ATOM      7  C   UNL     1       1.249   9.912  18.752  0.00  0.00    +0.000 A 
ATOM      8  C   UNL     1       2.151   9.215  17.936  0.00  0.00    +0.000 A 
ATOM      9  C   UNL     1       2.579   7.930  18.275  0.00  0.00    +0.000 A 
ATOM     10  C   UNL     1       2.143   7.324  19.456  0.00  0.00    +0.000 A 
ATOM     11  C   UNL     1       1.288   8.048  20.296  0.00  0.00    +0.000 A 
ATOM     12  C   UNL     1       0.841   9.338  19.966  0.00  0.00    +0.000 A 
BRANCH   7  14
ATOM     13  C   UNL     1       1.678  12.234  18.681  0.00  0.00    +0.000 C 
ATOM     14  O   UNL     1       0.791  11.153  18.395  0.00  0.00    +0.000 OA
ENDBRANCH   7  14
BRANCH  12  15
ATOM     15  O   UNL     1       0.011   9.853  20.927  0.00  0.00    +0.000 OA
ATOM     16  C   UNL     1       0.554  10.699  21.927  0.00  0.00    +0.000 C 
ENDBRANCH  12  15
ENDBRANCH   1  10
BRANCH   3  17
ATOM     17  C   UNL     1       4.344   2.906  19.744  0.00  0.00    +0.000 C 
BRANCH  17  18
ATOM     18  S   UNL     1       3.383   1.503  19.089  0.00  0.00    +0.000 S 
ATOM     19  O   UNL     1       1.854   1.810  19.301  0.00  0.00    +0.000 OA
BRANCH  18  20
ATOM     20  C   UNL     1       3.737   1.786  17.334  0.00  0.00    +0.000 C 
BRANCH  20  21
ATOM     21  C   UNL     1       3.212   3.120  16.861  0.00  0.00    +0.000 C 
ATOM     22  O   UNL     1       2.009   3.377  16.893  0.00  0.00    +0.000 OA
ATOM     23  N   UNL     1       4.076   4.072  16.407  0.00  0.00    +0.000 N 
ATOM     24  H   UNL     1       3.621   4.921  16.093  0.00  0.00    +0.000 HD
BRANCH  23  25
ATOM     25  C   UNL     1       5.513   3.964  16.221  0.00  0.00    +0.000 C 
BRANCH  25  26
ATOM     26  C   UNL     1       6.280   5.032  16.968  0.00  0.00    +0.000 A 
ATOM     27  C   UNL     1       7.215   4.668  17.954  0.00  0.00    +0.000 A 
ATOM     28  C   UNL     1       7.951   5.634  18.648  0.00  0.00    +0.000 A 
ATOM     29  C   UNL     1       7.768   6.984  18.360  0.00  0.00    +0.000 A 
ATOM     30  C   UNL     1       6.868   7.364  17.371  0.00  0.00    +0.000 A 
ATOM     31  C   UNL     1       6.135   6.397  16.669  0.00  0.00    +0.000 A 
ATOM     32 CL   UNL     1       5.066   6.962  15.435  0.00  0.00    +0.000 Cl
ENDBRANCH  25  26
ENDBRANCH  23  25
ENDBRANCH  20  21
ENDBRANCH  18  20
ENDBRANCH  17  18
ENDBRANCH   3  17
TORSDOF 9
ENDMDL
MODEL 9
REMARK VINA RESULT:      -7.4      3.500      8.939
REMARK  Name = 
REMARK  12 active torsions:
REMARK  status: ('A' for Active; 'I' for Inactive)
REMARK    1  A    between atoms: C_1  and  O_2
REMARK    2  A    between atoms: O_2  and  C_3
REMARK    3  A    between atoms: C_6  and  C_7
REMARK    4  A    between atoms: C_9  and  C_10
REMARK    5  A    between atoms: C_10  and  S_11
REMARK    6  A    between atoms: S_11  and  C_13
REMARK    7  A    between atoms: C_13  and  C_14
REMARK    8  A    between atoms: N_16  and  C_17
REMARK    9  A    between atoms: C_17  and  C_18
REMARK   10  A    between atoms: C_25  and  C_26
REMARK   11  A    between atoms: C_29  and  O_30
REMARK   12  A    between atoms: O_30  and  C_31
REMARK                            x       y       z     vdW  Elec       q    Type
REMARK                         _______ _______ _______ _____ _____    ______ ____
ROOT
ATOM      1  C   UNL     1       3.699   5.080  18.634  0.00  0.00    +0.000 A 
ATOM      2  N   UNL     1       2.786   5.989  18.921  0.00  0.00    +0.000 NA
ATOM      3  C   UNL     1       2.141   5.486  20.035  0.00  0.00    +0.000 A 
ATOM      4  C   UNL     1       2.708   4.277  20.381  0.00  0.00    +0.000 A 
ATOM      5  C   UNL     1       2.506   3.282  21.448  0.00  0.00    +0.000 C 
ATOM      6  O   UNL     1       3.702   4.008  19.485  0.00  0.00    +0.000 OA
ENDROOT
BRANCH   1  10
ATOM      7  C   UNL     1       6.648   5.127  15.526  0.00  0.00    +0.000 A 
ATOM      8  C   UNL     1       5.628   4.164  15.525  0.00  0.00    +0.000 A 
ATOM      9  C   UNL     1       4.658   4.147  16.529  0.00  0.00    +0.000 A 
ATOM     10  C   UNL     1       4.703   5.069  17.578  0.00  0.00    +0.000 A 
ATOM     11  C   UNL     1       5.757   5.992  17.604  0.00  0.00    +0.000 A 
ATOM     12  C   UNL     1       6.736   6.028  16.598  0.00  0.00    +0.000 A 
BRANCH   7  14
ATOM     13  C   UNL     1       7.140   4.623  13.272  0.00  0.00    +0.000 C 
ATOM     14  O   UNL     1       7.571   5.175  14.515  0.00  0.00    +0.000 OA
ENDBRANCH   7  14
BRANCH  12  15
ATOM     15  O   UNL     1       7.664   7.010  16.823  0.00  0.00    +0.000 OA
ATOM     16  C   UNL     1       7.912   7.434  18.153  0.00  0.00    +0.000 C 
ENDBRANCH  12  15
ENDBRANCH   1  10
BRANCH   3  17
ATOM     17  C   UNL     1       1.043   6.240  20.689  0.00  0.00    +0.000 C 
BRANCH  17  18
ATOM     18  S   UNL     1       1.505   7.994  20.862  0.00  0.00    +0.000 S 
ATOM     19  O   UNL     1       1.601   8.624  19.423  0.00  0.00    +0.000 OA
BRANCH  18  20
ATOM     20  C   UNL     1      -0.055   8.569  21.584  0.00  0.00    +0.000 C 
BRANCH  20  21
ATOM     21  C   UNL     1       0.125   9.845  22.369  0.00  0.00    +0.000 C 
ATOM     22  O   UNL     1       0.414   9.821  23.566  0.00  0.00    +0.000 OA
ATOM     23  N   UNL     1      -0.013  11.053  21.752  0.00  0.00    +0.000 N 
ATOM     24  H   UNL     1       0.106  11.846  22.371  0.00  0.00    +0.000 HD
BRANCH  23  25
ATOM     25  C   UNL     1      -0.412  11.318  20.379  0.00  0.00    +0.000 C 
BRANCH  25  26
ATOM     26  C   UNL     1       0.463  12.352  19.707  0.00  0.00    +0.000 A 
ATOM     27  C   UNL     1       1.593  11.948  18.972  0.00  0.00    +0.000 A 
ATOM     28  C   UNL     1       2.409  12.881  18.325  0.00  0.00    +0.000 A 
ATOM     29  C   UNL     1       2.103  14.238  18.397  0.00  0.00    +0.000 A 
ATOM     30  C   UNL     1       0.976  14.657  19.096  0.00  0.00    +0.000 A 
ATOM     31  C   UNL     1       0.153  13.722  19.739  0.00  0.00    +0.000 A 
ATOM     32 CL   UNL     1      -1.243  14.333  20.553  0.00  0.00    +0.000 Cl
ENDBRANCH  25  26
ENDBRANCH  23  25
ENDBRANCH  20  21
ENDBRANCH  18  20
ENDBRANCH  17  18
ENDBRANCH   3  17
TORSDOF 9
ENDMDL
