MODEL 1
REMARK VINA RESULT:      -7.4      0.000      0.000
REMARK  Name = 
REMARK  3 active torsions:
REMARK  status: ('A' for Active; 'I' for Inactive)
REMARK    1  A    between atoms: C_1  and  N_2
REMARK    2  A    between atoms: N_2  and  C_3
REMARK    3  A    between atoms: N_6  and  C_7
REMARK                            x       y       z     vdW  Elec       q    Type
REMARK                         _______ _______ _______ _____ _____    ______ ____
ROOT
ATOM      1  C   UNL     1       1.831   6.592  20.359  0.00  0.00    +0.000 A 
ATOM      2  C   UNL     1       2.752   6.824  19.339  0.00  0.00    +0.000 A 
ATOM      3  C   UNL     1       3.303   5.765  18.602  0.00  0.00    +0.000 A 
ATOM      4  C   UNL     1       2.916   4.435  18.846  0.00  0.00    +0.000 A 
ATOM      5  C   UNL     1       1.986   4.202  19.876  0.00  0.00    +0.000 A 
ATOM      6  C   UNL     1       1.475   5.270  20.645  0.00  0.00    +0.000 A 
ATOM      7  C   UNL     1       1.558   2.790  20.189  0.00  0.00    +0.000 C 
ATOM      8  C   UNL     1       1.670   1.908  18.950  0.00  0.00    +0.000 C 
ATOM      9  C   UNL     1       3.074   2.012  18.374  0.00  0.00    +0.000 C 
ATOM     10  N   UNL     1       3.439   3.395  18.093  0.00  0.00    +0.000 N 
ATOM     11  C   UNL     1       4.466   3.640  17.082  0.00  0.00    +0.000 C 
ATOM     12  C   UNL     1       5.260   4.906  17.372  0.00  0.00    +0.000 C 
ATOM     13  C   UNL     1       4.302   6.075  17.521  0.00  0.00    +0.000 C 
ENDROOT
BRANCH   1  19
ATOM     14  C   UNL     1       0.281  11.162  21.162  0.00  0.00    +0.000 C 
ATOM     15  N   UNL     1       0.553   9.812  21.631  0.00  0.00    +0.000 N 
ATOM     16  C   UNL     1       0.562   9.573  23.064  0.00  0.00    +0.000 C 
ATOM     17  C   UNL     1       0.976   8.905  20.662  0.00  0.00    +0.000 C 
ATOM     18  O   UNL     1       1.070   9.254  19.487  0.00  0.00    +0.000 OA
ATOM     19  N   UNL     1       1.257   7.634  21.124  0.00  0.00    +0.000 N 
ATOM     20  H   UNL     1       0.835   7.368  21.999  0.00  0.00    +0.000 HD
ENDBRANCH   1  19
TORSDOF 1
ENDMDL
MODEL 2
REMARK VINA RESULT:      -7.3      3.241      7.051
REMARK  Name = 
REMARK  3 active torsions:
REMARK  status: ('A' for Active; 'I' for Inactive)
REMARK    1  A    between atoms: C_1  and  N_2
REMARK    2  A    between atoms: N_2  and  C_3
REMARK    3  A    between atoms: N_6  and  C_7
REMARK                            x       y       z     vdW  Elec       q    Type
REMARK                         _______ _______ _______ _____ _____    ______ ____
ROOT
ATOM      1  C   UNL     1       4.744   4.498  16.292  0.00  0.00    +0.000 A 
ATOM      2  C   UNL     1       4.259   3.515  17.152  0.00  0.00    +0.000 A 
ATOM      3  C   UNL     1       3.526   3.850  18.300  0.00  0.00    +0.000 A 
ATOM      4  C   UNL     1       3.227   5.190  18.602  0.00  0.00    +0.000 A 
ATOM      5  C   UNL     1       3.718   6.183  17.734  0.00  0.00    +0.000 A 
ATOM      6  C   UNL     1       4.497   5.838  16.608  0.00  0.00    +0.000 A 
ATOM      7  C   UNL     1       3.443   7.636  18.030  0.00  0.00    +0.000 C 
ATOM      8  C   UNL     1       2.149   7.785  18.822  0.00  0.00    +0.000 C 
ATOM      9  C   UNL     1       2.203   6.905  20.061  0.00  0.00    +0.000 C 
ATOM     10  N   UNL     1       2.475   5.514  19.721  0.00  0.00    +0.000 N 
ATOM     11  C   UNL     1       2.042   4.482  20.661  0.00  0.00    +0.000 C 
ATOM     12  C   UNL     1       2.949   3.260  20.624  0.00  0.00    +0.000 C 
ATOM     13  C   UNL     1       3.038   2.746  19.198  0.00  0.00    +0.000 C 
ENDROOT
BRANCH   1  19
ATOM     14  C   UNL     1       8.222   5.262  12.938  0.00  0.00    +0.000 C 
ATOM     15  N   UNL     1       7.075   4.515  13.430  0.00  0.00    +0.000 N 
ATOM     16  C   UNL     1       6.412   3.598  12.521  0.00  0.00    +0.000 C 
ATOM     17  C   UNL     1       6.593   4.896  14.681  0.00  0.00    +0.000 C 
ATOM     18  O   UNL     1       7.151   5.792  15.312  0.00  0.00    +0.000 OA
ATOM     19  N   UNL     1       5.488   4.198  15.127  0.00  0.00    +0.000 N 
ATOM     20  H   UNL     1       5.327   3.295  14.712  0.00  0.00    +0.000 HD
ENDBRANCH   1  19
TORSDOF 1
ENDMDL
MODEL 3
REMARK VINA RESULT:      -7.3      1.193      1.383
REMARK  Name = 
REMARK  3 active torsions:
REMARK  status: ('A' for Active; 'I' for Inactive)
REMARK    1  A    between atoms: C_1  and  N_2
REMARK    2  A    between atoms: N_2  and  C_3
REMARK    3  A    between atoms: N_6  and  C_7
REMARK                            x       y       z     vdW  Elec       q    Type
REMARK                         _______ _______ _______ _____ _____    ______ ____
ROOT
ATOM      1  C   UNL     1       1.947   7.442  19.700  0.00  0.00    +0.000 A 
ATOM      2  C   UNL     1       2.808   7.233  18.624  0.00  0.00    +0.000 A 
ATOM      3  C   UNL     1       3.278   5.951  18.307  0.00  0.00    +0.000 A 
ATOM      4  C   UNL     1       2.867   4.826  19.045  0.00  0.00    +0.000 A 
ATOM      5  C   UNL     1       1.998   5.037  20.132  0.00  0.00    +0.000 A 
ATOM      6  C   UNL     1       1.571   6.338  20.473  0.00  0.00    +0.000 A 
ATOM      7  C   UNL     1       1.550   3.864  20.967  0.00  0.00    +0.000 C 
ATOM      8  C   UNL     1       1.555   2.584  20.139  0.00  0.00    +0.000 C 
ATOM      9  C   UNL     1       2.921   2.395  19.499  0.00  0.00    +0.000 C 
ATOM     10  N   UNL     1       3.309   3.556  18.707  0.00  0.00    +0.000 N 
ATOM     11  C   UNL     1       4.277   3.358  17.630  0.00  0.00    +0.000 C 
ATOM     12  C   UNL     1       5.126   4.599  17.391  0.00  0.00    +0.000 C 
ATOM     13  C   UNL     1       4.215   5.788  17.141  0.00  0.00    +0.000 C 
ENDROOT
BRANCH   1  19
ATOM     14  C   UNL     1       0.122  11.888  18.792  0.00  0.00    +0.000 C 
ATOM     15  N   UNL     1       0.648  10.896  19.716  0.00  0.00    +0.000 N 
ATOM     16  C   UNL     1       1.021  11.331  21.051  0.00  0.00    +0.000 C 
ATOM     17  C   UNL     1       0.931   9.646  19.170  0.00  0.00    +0.000 C 
ATOM     18  O   UNL     1       0.706   9.425  17.982  0.00  0.00    +0.000 OA
ATOM     19  N   UNL     1       1.454   8.720  20.051  0.00  0.00    +0.000 N 
ATOM     20  H   UNL     1       1.284   8.882  21.030  0.00  0.00    +0.000 HD
ENDBRANCH   1  19
TORSDOF 1
ENDMDL
MODEL 4
REMARK VINA RESULT:      -7.3      0.201      2.674
REMARK  Name = 
REMARK  3 active torsions:
REMARK  status: ('A' for Active; 'I' for Inactive)
REMARK    1  A    between atoms: C_1  and  N_2
REMARK    2  A    between atoms: N_2  and  C_3
REMARK    3  A    between atoms: N_6  and  C_7
REMARK                            x       y       z     vdW  Elec       q    Type
REMARK                         _______ _______ _______ _____ _____    ______ ____
ROOT
ATOM      1  C   UNL     1       1.895   6.479  20.302  0.00  0.00    +0.000 A 
ATOM      2  C   UNL     1       1.566   5.141  20.511  0.00  0.00    +0.000 A 
ATOM      3  C   UNL     1       2.121   4.123  19.722  0.00  0.00    +0.000 A 
ATOM      4  C   UNL     1       3.056   4.417  18.715  0.00  0.00    +0.000 A 
ATOM      5  C   UNL     1       3.388   5.769  18.503  0.00  0.00    +0.000 A 
ATOM      6  C   UNL     1       2.786   6.789  19.270  0.00  0.00    +0.000 A 
ATOM      7  C   UNL     1       4.370   6.134  17.417  0.00  0.00    +0.000 C 
ATOM      8  C   UNL     1       5.341   4.987  17.164  0.00  0.00    +0.000 C 
ATOM      9  C   UNL     1       4.562   3.711  16.883  0.00  0.00    +0.000 C 
ATOM     10  N   UNL     1       3.627   3.404  17.959  0.00  0.00    +0.000 N 
ATOM     11  C   UNL     1       3.213   2.013  18.130  0.00  0.00    +0.000 C 
ATOM     12  C   UNL     1       1.804   1.904  18.695  0.00  0.00    +0.000 C 
ATOM     13  C   UNL     1       1.719   2.697  19.987  0.00  0.00    +0.000 C 
ENDROOT
BRANCH   1  19
ATOM     14  C   UNL     1       0.449  11.078  21.129  0.00  0.00    +0.000 C 
ATOM     15  N   UNL     1       0.701   9.723  21.594  0.00  0.00    +0.000 N 
ATOM     16  C   UNL     1       0.728   9.483  23.026  0.00  0.00    +0.000 C 
ATOM     17  C   UNL     1       1.091   8.808  20.618  0.00  0.00    +0.000 C 
ATOM     18  O   UNL     1       1.174   9.156  19.442  0.00  0.00    +0.000 OA
ATOM     19  N   UNL     1       1.354   7.531  21.076  0.00  0.00    +0.000 N 
ATOM     20  H   UNL     1       0.941   7.273  21.957  0.00  0.00    +0.000 HD
ENDBRANCH   1  19
TORSDOF 1
ENDMDL
MODEL 5
REMARK VINA RESULT:      -7.2      3.218      6.669
REMARK  Name = 
REMARK  3 active torsions:
REMARK  status: ('A' for Active; 'I' for Inactive)
REMARK    1  A    between atoms: C_1  and  N_2
REMARK    2  A    between atoms: N_2  and  C_3
REMARK    3  A    between atoms: N_6  and  C_7
REMARK                            x       y       z     vdW  Elec       q    Type
REMARK                         _______ _______ _______ _____ _____    ______ ____
ROOT
ATOM      1  C   UNL     1       4.743   4.469  16.320  0.00  0.00    +0.000 A 
ATOM      2  C   UNL     1       4.416   5.773  16.688  0.00  0.00    +0.000 A 
ATOM      3  C   UNL     1       3.683   6.038  17.854  0.00  0.00    +0.000 A 
ATOM      4  C   UNL     1       3.283   4.996  18.710  0.00  0.00    +0.000 A 
ATOM      5  C   UNL     1       3.613   3.679  18.337  0.00  0.00    +0.000 A 
ATOM      6  C   UNL     1       4.308   3.420  17.136  0.00  0.00    +0.000 A 
ATOM      7  C   UNL     1       3.185   2.527  19.212  0.00  0.00    +0.000 C 
ATOM      8  C   UNL     1       3.052   2.976  20.663  0.00  0.00    +0.000 C 
ATOM      9  C   UNL     1       2.131   4.183  20.743  0.00  0.00    +0.000 C 
ATOM     10  N   UNL     1       2.586   5.265  19.878  0.00  0.00    +0.000 N 
ATOM     11  C   UNL     1       2.176   6.628  20.212  0.00  0.00    +0.000 C 
ATOM     12  C   UNL     1       2.047   7.503  18.974  0.00  0.00    +0.000 C 
ATOM     13  C   UNL     1       3.349   7.465  18.195  0.00  0.00    +0.000 C 
ENDROOT
BRANCH   1  19
ATOM     14  C   UNL     1       8.192   5.223  12.935  0.00  0.00    +0.000 C 
ATOM     15  N   UNL     1       7.051   4.476  13.441  0.00  0.00    +0.000 N 
ATOM     16  C   UNL     1       6.383   3.552  12.542  0.00  0.00    +0.000 C 
ATOM     17  C   UNL     1       6.579   4.863  14.693  0.00  0.00    +0.000 C 
ATOM     18  O   UNL     1       7.139   5.763  15.315  0.00  0.00    +0.000 OA
ATOM     19  N   UNL     1       5.479   4.164  15.152  0.00  0.00    +0.000 N 
ATOM     20  H   UNL     1       5.316   3.258  14.743  0.00  0.00    +0.000 HD
ENDBRANCH   1  19
TORSDOF 1
ENDMDL
MODEL 6
REMARK VINA RESULT:      -7.2      1.218      2.955
REMARK  Name = 
REMARK  3 active torsions:
REMARK  status: ('A' for Active; 'I' for Inactive)
REMARK    1  A    between atoms: C_1  and  N_2
REMARK    2  A    between atoms: N_2  and  C_3
REMARK    3  A    between atoms: N_6  and  C_7
REMARK                            x       y       z     vdW  Elec       q    Type
REMARK                         _______ _______ _______ _____ _____    ______ ____
ROOT
ATOM      1  C   UNL     1       1.920   7.482  19.784  0.00  0.00    +0.000 A 
ATOM      2  C   UNL     1       1.586   6.358  20.537  0.00  0.00    +0.000 A 
ATOM      3  C   UNL     1       2.076   5.087  20.203  0.00  0.00    +0.000 A 
ATOM      4  C   UNL     1       2.950   4.911  19.115  0.00  0.00    +0.000 A 
ATOM      5  C   UNL     1       3.286   6.047  18.354  0.00  0.00    +0.000 A 
ATOM      6  C   UNL     1       2.747   7.313  18.669  0.00  0.00    +0.000 A 
ATOM      7  C   UNL     1       4.201   5.902  17.164  0.00  0.00    +0.000 C 
ATOM      8  C   UNL     1       5.138   4.715  17.348  0.00  0.00    +0.000 C 
ATOM      9  C   UNL     1       4.327   3.466  17.654  0.00  0.00    +0.000 C 
ATOM     10  N   UNL     1       3.458   3.658  18.808  0.00  0.00    +0.000 N 
ATOM     11  C   UNL     1       3.037   2.473  19.553  0.00  0.00    +0.000 C 
ATOM     12  C   UNL     1       1.665   2.656  20.187  0.00  0.00    +0.000 C 
ATOM     13  C   UNL     1       1.673   3.908  21.046  0.00  0.00    +0.000 C 
ENDROOT
BRANCH   1  19
ATOM     14  C   UNL     1       0.109  11.900  18.721  0.00  0.00    +0.000 C 
ATOM     15  N   UNL     1       0.646  10.944  19.677  0.00  0.00    +0.000 N 
ATOM     16  C   UNL     1       1.046  11.432  20.984  0.00  0.00    +0.000 C 
ATOM     17  C   UNL     1       0.909   9.670  19.179  0.00  0.00    +0.000 C 
ATOM     18  O   UNL     1       0.661   9.400  18.006  0.00  0.00    +0.000 OA
ATOM     19  N   UNL     1       1.443   8.778  20.089  0.00  0.00    +0.000 N 
ATOM     20  H   UNL     1       1.292   8.982  21.063  0.00  0.00    +0.000 HD
ENDBRANCH   1  19
TORSDOF 1
ENDMDL
MODEL 7
REMARK VINA RESULT:      -7.1      1.345      1.583
REMARK  Name = 
REMARK  3 active torsions:
REMARK  status: ('A' for Active; 'I' for Inactive)
REMARK    1  A    between atoms: C_1  and  N_2
REMARK    2  A    between atoms: N_2  and  C_3
REMARK    3  A    between atoms: N_6  and  C_7
REMARK                            x       y       z     vdW  Elec       q    Type
REMARK                         _______ _______ _______ _____ _____    ______ ____
ROOT
ATOM      1  C   UNL     1       2.340   7.338  19.024  0.00  0.00    +0.000 A 
ATOM      2  C   UNL     1       3.301   7.475  18.024  0.00  0.00    +0.000 A 
ATOM      3  C   UNL     1       3.913   6.354  17.445  0.00  0.00    +0.000 A 
ATOM      4  C   UNL     1       3.551   5.051  17.832  0.00  0.00    +0.000 A 
ATOM      5  C   UNL     1       2.582   4.914  18.843  0.00  0.00    +0.000 A 
ATOM      6  C   UNL     1       2.008   6.050  19.454  0.00  0.00    +0.000 A 
ATOM      7  C   UNL     1       2.179   3.536  19.307  0.00  0.00    +0.000 C 
ATOM      8  C   UNL     1       2.371   2.517  18.191  0.00  0.00    +0.000 C 
ATOM      9  C   UNL     1       3.796   2.595  17.666  0.00  0.00    +0.000 C 
ATOM     10  N   UNL     1       4.136   3.945  17.234  0.00  0.00    +0.000 N 
ATOM     11  C   UNL     1       5.201   4.100  16.246  0.00  0.00    +0.000 C 
ATOM     12  C   UNL     1       5.947   5.416  16.413  0.00  0.00    +0.000 C 
ATOM     13  C   UNL     1       4.952   6.563  16.377  0.00  0.00    +0.000 C 
ENDROOT
BRANCH   1  19
ATOM     14  C   UNL     1      -0.037  11.613  19.055  0.00  0.00    +0.000 C 
ATOM     15  N   UNL     1       0.629  10.526  19.754  0.00  0.00    +0.000 N 
ATOM     16  C   UNL     1       0.978  10.720  21.150  0.00  0.00    +0.000 C 
ATOM     17  C   UNL     1       1.049   9.460  18.961  0.00  0.00    +0.000 C 
ATOM     18  O   UNL     1       0.824   9.462  17.753  0.00  0.00    +0.000 OA
ATOM     19  N   UNL     1       1.704   8.446  19.632  0.00  0.00    +0.000 N 
ATOM     20  H   UNL     1       1.539   8.380  20.623  0.00  0.00    +0.000 HD
ENDBRANCH   1  19
TORSDOF 1
ENDMDL
MODEL 8
REMARK VINA RESULT:      -7.1      1.097      2.903
REMARK  Name = 
REMARK  3 active torsions:
REMARK  status: ('A' for Active; 'I' for Inactive)
REMARK    1  A    between atoms: C_1  and  N_2
REMARK    2  A    between atoms: N_2  and  C_3
REMARK    3  A    between atoms: N_6  and  C_7
REMARK                            x       y       z     vdW  Elec       q    Type
REMARK                         _______ _______ _______ _____ _____    ______ ____
ROOT
ATOM      1  C   UNL     1       2.022   7.389  19.821  0.00  0.00    +0.000 A 
ATOM      2  C   UNL     1       1.587   6.278  20.542  0.00  0.00    +0.000 A 
ATOM      3  C   UNL     1       1.948   4.978  20.162  0.00  0.00    +0.000 A 
ATOM      4  C   UNL     1       2.792   4.754  19.059  0.00  0.00    +0.000 A 
ATOM      5  C   UNL     1       3.230   5.875  18.331  0.00  0.00    +0.000 A 
ATOM      6  C   UNL     1       2.820   7.177  18.692  0.00  0.00    +0.000 A 
ATOM      7  C   UNL     1       4.117   5.682  17.126  0.00  0.00    +0.000 C 
ATOM      8  C   UNL     1       4.936   4.404  17.262  0.00  0.00    +0.000 C 
ATOM      9  C   UNL     1       4.009   3.230  17.537  0.00  0.00    +0.000 C 
ATOM     10  N   UNL     1       3.172   3.467  18.707  0.00  0.00    +0.000 N 
ATOM     11  C   UNL     1       2.644   2.305  19.419  0.00  0.00    +0.000 C 
ATOM     12  C   UNL     1       1.302   2.599  20.074  0.00  0.00    +0.000 C 
ATOM     13  C   UNL     1       1.439   3.816  20.972  0.00  0.00    +0.000 C 
ENDROOT
BRANCH   1  19
ATOM     14  C   UNL     1      -0.768  10.842  21.876  0.00  0.00    +0.000 C 
ATOM     15  N   UNL     1       0.370  10.447  21.059  0.00  0.00    +0.000 N 
ATOM     16  C   UNL     1       1.024  11.466  20.257  0.00  0.00    +0.000 C 
ATOM     17  C   UNL     1       0.610   9.078  20.972  0.00  0.00    +0.000 C 
ATOM     18  O   UNL     1      -0.100   8.285  21.587  0.00  0.00    +0.000 OA
ATOM     19  N   UNL     1       1.676   8.714  20.172  0.00  0.00    +0.000 N 
ATOM     20  H   UNL     1       2.373   9.421  20.000  0.00  0.00    +0.000 HD
ENDBRANCH   1  19
TORSDOF 1
ENDMDL
MODEL 9
REMARK VINA RESULT:      -7.0      1.346      3.098
REMARK  Name = 
REMARK  3 active torsions:
REMARK  status: ('A' for Active; 'I' for Inactive)
REMARK    1  A    between atoms: C_1  and  N_2
REMARK    2  A    between atoms: N_2  and  C_3
REMARK    3  A    between atoms: N_6  and  C_7
REMARK                            x       y       z     vdW  Elec       q    Type
REMARK                         _______ _______ _______ _____ _____    ______ ____
ROOT
ATOM      1  C   UNL     1       2.309   7.282  19.084  0.00  0.00    +0.000 A 
ATOM      2  C   UNL     1       2.004   5.980  19.480  0.00  0.00    +0.000 A 
ATOM      3  C   UNL     1       2.627   4.875  18.883  0.00  0.00    +0.000 A 
ATOM      4  C   UNL     1       3.606   5.045  17.888  0.00  0.00    +0.000 A 
ATOM      5  C   UNL     1       3.912   6.359  17.488  0.00  0.00    +0.000 A 
ATOM      6  C   UNL     1       3.243   7.463  18.060  0.00  0.00    +0.000 A 
ATOM      7  C   UNL     1       4.938   6.590  16.407  0.00  0.00    +0.000 C 
ATOM      8  C   UNL     1       5.951   5.451  16.378  0.00  0.00    +0.000 C 
ATOM      9  C   UNL     1       5.223   4.121  16.259  0.00  0.00    +0.000 C 
ATOM     10  N   UNL     1       4.241   3.949  17.323  0.00  0.00    +0.000 N 
ATOM     11  C   UNL     1       3.856   2.587  17.685  0.00  0.00    +0.000 C 
ATOM     12  C   UNL     1       2.423   2.516  18.193  0.00  0.00    +0.000 C 
ATOM     13  C   UNL     1       2.250   3.492  19.343  0.00  0.00    +0.000 C 
ENDROOT
BRANCH   1  19
ATOM     14  C   UNL     1       0.051  11.620  18.999  0.00  0.00    +0.000 C 
ATOM     15  N   UNL     1       0.682  10.531  19.728  0.00  0.00    +0.000 N 
ATOM     16  C   UNL     1       1.029  10.749  21.122  0.00  0.00    +0.000 C 
ATOM     17  C   UNL     1       1.077   9.436  18.963  0.00  0.00    +0.000 C 
ATOM     18  O   UNL     1       0.860   9.416  17.754  0.00  0.00    +0.000 OA
ATOM     19  N   UNL     1       1.700   8.420  19.662  0.00  0.00    +0.000 N 
ATOM     20  H   UNL     1       1.527   8.382  20.653  0.00  0.00    +0.000 HD
ENDBRANCH   1  19
TORSDOF 1
ENDMDL
