MODEL 1
REMARK VINA RESULT:      -9.5      0.000      0.000
REMARK  Name = 
REMARK  9 active torsions:
REMARK  status: ('A' for Active; 'I' for Inactive)
REMARK    1  A    between atoms: C_5  and  O_6
REMARK    2  A    between atoms: O_6  and  C_7
REMARK    3  A    between atoms: C_7  and  C_9
REMARK    4  A    between atoms: C_10  and  C_11
REMARK    5  A    between atoms: C_17  and  C_18
REMARK    6  A    between atoms: C_18  and  O_19
REMARK    7  A    between atoms: C_18  and  C_20
REMARK    8  A    between atoms: C_20  and  O_21
REMARK    9  A    between atoms: C_20  and  C_22
REMARK                            x       y       z     vdW  Elec       q    Type
REMARK                         _______ _______ _______ _____ _____    ______ ____
ROOT
ATOM      1  O   UNL     1       6.379   3.635  14.286  0.00  0.00    +0.000 OA
ATOM      2  C   UNL     1       6.190   4.437  15.194  0.00  0.00    +0.000 C 
ATOM      3  C   UNL     1       5.239   5.553  15.017  0.00  0.00    +0.000 C 
ATOM      4  C   UNL     1       5.194   6.575  15.885  0.00  0.00    +0.000 C 
ATOM      5  C   UNL     1       6.023   6.578  17.136  0.00  0.00    +0.000 C 
ATOM      6  C   UNL     1       6.327   5.121  17.529  0.00  0.00    +0.000 C 
ATOM      7  O   UNL     1       6.863   4.403  16.369  0.00  0.00    +0.000 OA
ENDROOT
BRANCH   5   8
ATOM      8  O   UNL     1       7.246   7.299  16.856  0.00  0.00    +0.000 OA
BRANCH   8   9
ATOM      9  C   UNL     1       7.957   7.633  17.963  0.00  0.00    +0.000 C 
ATOM     10  O   UNL     1       8.194   6.887  18.900  0.00  0.00    +0.000 OA
BRANCH   9  11
ATOM     11  C   UNL     1       8.368   9.048  17.896  0.00  0.00    +0.000 C 
ATOM     12  C   UNL     1       9.070   9.563  18.917  0.00  0.00    +0.000 C 
BRANCH  12  13
ATOM     13  C   UNL     1       9.420  10.981  18.968  0.00  0.00    +0.000 A 
ATOM     14  C   UNL     1       8.938  11.841  17.976  0.00  0.00    +0.000 A 
ATOM     15  C   UNL     1       9.292  13.190  17.983  0.00  0.00    +0.000 A 
ATOM     16  C   UNL     1      10.123  13.685  18.986  0.00  0.00    +0.000 A 
ATOM     17  C   UNL     1      10.595  12.835  19.987  0.00  0.00    +0.000 A 
ATOM     18  C   UNL     1      10.244  11.483  19.979  0.00  0.00    +0.000 A 
ENDBRANCH  12  13
ENDBRANCH   9  11
ENDBRANCH   8   9
ENDBRANCH   5   8
BRANCH   6  19
ATOM     19  C   UNL     1       5.113   4.296  18.072  0.00  0.00    +0.000 C 
BRANCH  19  20
ATOM     20  O   UNL     1       5.647   3.284  18.958  0.00  0.00    +0.000 OA
ATOM     21  H   UNL     1       5.139   3.330  19.787  0.00  0.00    +0.000 HD
ENDBRANCH  19  20
BRANCH  19  22
ATOM     22  C   UNL     1       4.011   5.103  18.810  0.00  0.00    +0.000 C 
BRANCH  22  23
ATOM     23  C   UNL     1       2.779   4.267  19.151  0.00  0.00    +0.000 A 
ATOM     24  C   UNL     1       2.214   4.304  20.438  0.00  0.00    +0.000 A 
ATOM     25  C   UNL     1       1.099   3.519  20.752  0.00  0.00    +0.000 A 
ATOM     26  C   UNL     1       0.533   2.686  19.790  0.00  0.00    +0.000 A 
ATOM     27  C   UNL     1       1.066   2.652  18.506  0.00  0.00    +0.000 A 
ATOM     28  C   UNL     1       2.170   3.443  18.187  0.00  0.00    +0.000 A 
ENDBRANCH  22  23
BRANCH  22  29
ATOM     29  O   UNL     1       4.581   5.686  19.988  0.00  0.00    +0.000 OA
ATOM     30  H   UNL     1       4.292   6.616  20.030  0.00  0.00    +0.000 HD
ENDBRANCH  22  29
ENDBRANCH  19  22
ENDBRANCH   6  19
TORSDOF 9
ENDMDL
MODEL 2
REMARK VINA RESULT:      -8.8      1.116      1.687
REMARK  Name = 
REMARK  9 active torsions:
REMARK  status: ('A' for Active; 'I' for Inactive)
REMARK    1  A    between atoms: C_5  and  O_6
REMARK    2  A    between atoms: O_6  and  C_7
REMARK    3  A    between atoms: C_7  and  C_9
REMARK    4  A    between atoms: C_10  and  C_11
REMARK    5  A    between atoms: C_17  and  C_18
REMARK    6  A    between atoms: C_18  and  O_19
REMARK    7  A    between atoms: C_18  and  C_20
REMARK    8  A    between atoms: C_20  and  O_21
REMARK    9  A    between atoms: C_20  and  C_22
REMARK                            x       y       z     vdW  Elec       q    Type
REMARK                         _______ _______ _______ _____ _____    ______ ____
ROOT
ATOM      1  O   UNL     1       6.157   4.055  13.715  0.00  0.00    +0.000 OA
ATOM      2  C   UNL     1       6.073   4.661  14.778  0.00  0.00    +0.000 C 
ATOM      3  C   UNL     1       5.197   5.844  14.896  0.00  0.00    +0.000 C 
ATOM      4  C   UNL     1       5.270   6.663  15.956  0.00  0.00    +0.000 C 
ATOM      5  C   UNL     1       6.161   6.356  17.124  0.00  0.00    +0.000 C 
ATOM      6  C   UNL     1       6.380   4.834  17.190  0.00  0.00    +0.000 C 
ATOM      7  O   UNL     1       6.802   4.342  15.875  0.00  0.00    +0.000 OA
ENDROOT
BRANCH   5   8
ATOM      8  O   UNL     1       7.417   7.046  16.917  0.00  0.00    +0.000 OA
BRANCH   8   9
ATOM      9  C   UNL     1       7.986   7.513  18.058  0.00  0.00    +0.000 C 
ATOM     10  O   UNL     1       8.162   6.861  19.076  0.00  0.00    +0.000 OA
BRANCH   9  11
ATOM     11  C   UNL     1       8.322   8.942  17.911  0.00  0.00    +0.000 C 
ATOM     12  C   UNL     1       9.070   9.527  18.859  0.00  0.00    +0.000 C 
BRANCH  12  13
ATOM     13  C   UNL     1       9.354  10.960  18.834  0.00  0.00    +0.000 A 
ATOM     14  C   UNL     1      10.222  11.502  19.788  0.00  0.00    +0.000 A 
ATOM     15  C   UNL     1      10.476  12.873  19.808  0.00  0.00    +0.000 A 
ATOM     16  C   UNL     1       9.869  13.706  18.871  0.00  0.00    +0.000 A 
ATOM     17  C   UNL     1       9.013  13.169  17.908  0.00  0.00    +0.000 A 
ATOM     18  C   UNL     1       8.755  11.797  17.888  0.00  0.00    +0.000 A 
ENDBRANCH  12  13
ENDBRANCH   9  11
ENDBRANCH   8   9
ENDBRANCH   5   8
BRANCH   6  19
ATOM     19  C   UNL     1       5.140   3.988  17.632  0.00  0.00    +0.000 C 
BRANCH  19  20
ATOM     20  O   UNL     1       5.256   2.695  16.992  0.00  0.00    +0.000 OA
ATOM     21  H   UNL     1       5.625   2.081  17.651  0.00  0.00    +0.000 HD
ENDBRANCH  19  20
BRANCH  19  22
ATOM     22  C   UNL     1       4.951   3.795  19.161  0.00  0.00    +0.000 C 
BRANCH  22  23
ATOM     23  C   UNL     1       3.630   4.360  19.679  0.00  0.00    +0.000 A 
ATOM     24  C   UNL     1       3.281   5.704  19.453  0.00  0.00    +0.000 A 
ATOM     25  C   UNL     1       2.080   6.224  19.950  0.00  0.00    +0.000 A 
ATOM     26  C   UNL     1       1.212   5.414  20.680  0.00  0.00    +0.000 A 
ATOM     27  C   UNL     1       1.533   4.078  20.895  0.00  0.00    +0.000 A 
ATOM     28  C   UNL     1       2.723   3.554  20.390  0.00  0.00    +0.000 A 
ENDBRANCH  22  23
BRANCH  22  29
ATOM     29  O   UNL     1       5.071   2.401  19.466  0.00  0.00    +0.000 OA
ATOM     30  H   UNL     1       5.304   2.322  20.409  0.00  0.00    +0.000 HD
ENDBRANCH  22  29
ENDBRANCH  19  22
ENDBRANCH   6  19
TORSDOF 9
ENDMDL
MODEL 3
REMARK VINA RESULT:      -8.6      0.622      1.134
REMARK  Name = 
REMARK  9 active torsions:
REMARK  status: ('A' for Active; 'I' for Inactive)
REMARK    1  A    between atoms: C_5  and  O_6
REMARK    2  A    between atoms: O_6  and  C_7
REMARK    3  A    between atoms: C_7  and  C_9
REMARK    4  A    between atoms: C_10  and  C_11
REMARK    5  A    between atoms: C_17  and  C_18
REMARK    6  A    between atoms: C_18  and  O_19
REMARK    7  A    between atoms: C_18  and  C_20
REMARK    8  A    between atoms: C_20  and  O_21
REMARK    9  A    between atoms: C_20  and  C_22
REMARK                            x       y       z     vdW  Elec       q    Type
REMARK                         _______ _______ _______ _____ _____    ______ ____
ROOT
ATOM      1  O   UNL     1       6.167   3.238  14.385  0.00  0.00    +0.000 OA
ATOM      2  C   UNL     1       5.975   4.144  15.189  0.00  0.00    +0.000 C 
ATOM      3  C   UNL     1       5.155   5.313  14.814  0.00  0.00    +0.000 C 
ATOM      4  C   UNL     1       5.129   6.420  15.572  0.00  0.00    +0.000 C 
ATOM      5  C   UNL     1       5.840   6.482  16.892  0.00  0.00    +0.000 C 
ATOM      6  C   UNL     1       5.968   5.053  17.451  0.00  0.00    +0.000 C 
ATOM      7  O   UNL     1       6.534   4.175  16.423  0.00  0.00    +0.000 OA
ENDROOT
BRANCH   5   8
ATOM      8  O   UNL     1       7.146   7.063  16.665  0.00  0.00    +0.000 OA
BRANCH   8   9
ATOM      9  C   UNL     1       7.798   7.419  17.802  0.00  0.00    +0.000 C 
ATOM     10  O   UNL     1       8.179   6.647  18.667  0.00  0.00    +0.000 OA
BRANCH   9  11
ATOM     11  C   UNL     1       7.941   8.886  17.868  0.00  0.00    +0.000 C 
ATOM     12  C   UNL     1       8.953   9.403  18.580  0.00  0.00    +0.000 C 
BRANCH  12  13
ATOM     13  C   UNL     1       9.095  10.843  18.776  0.00  0.00    +0.000 A 
ATOM     14  C   UNL     1       9.604  11.322  19.988  0.00  0.00    +0.000 A 
ATOM     15  C   UNL     1       9.711  12.694  20.213  0.00  0.00    +0.000 A 
ATOM     16  C   UNL     1       9.317  13.593  19.223  0.00  0.00    +0.000 A 
ATOM     17  C   UNL     1       8.823  13.121  18.006  0.00  0.00    +0.000 A 
ATOM     18  C   UNL     1       8.712  11.747  17.781  0.00  0.00    +0.000 A 
ENDBRANCH  12  13
ENDBRANCH   9  11
ENDBRANCH   8   9
ENDBRANCH   5   8
BRANCH   6  19
ATOM     19  C   UNL     1       4.637   4.397  17.948  0.00  0.00    +0.000 C 
BRANCH  19  20
ATOM     20  O   UNL     1       4.964   3.062  18.401  0.00  0.00    +0.000 OA
ATOM     21  H   UNL     1       4.517   2.931  19.256  0.00  0.00    +0.000 HD
ENDBRANCH  19  20
BRANCH  19  22
ATOM     22  C   UNL     1       3.877   5.154  19.070  0.00  0.00    +0.000 C 
BRANCH  22  23
ATOM     23  C   UNL     1       2.816   4.300  19.761  0.00  0.00    +0.000 A 
ATOM     24  C   UNL     1       2.930   3.968  21.123  0.00  0.00    +0.000 A 
ATOM     25  C   UNL     1       1.967   3.166  21.746  0.00  0.00    +0.000 A 
ATOM     26  C   UNL     1       0.880   2.682  21.022  0.00  0.00    +0.000 A 
ATOM     27  C   UNL     1       0.741   3.017  19.679  0.00  0.00    +0.000 A 
ATOM     28  C   UNL     1       1.693   3.827  19.059  0.00  0.00    +0.000 A 
ENDBRANCH  22  23
BRANCH  22  29
ATOM     29  O   UNL     1       4.831   5.654  20.014  0.00  0.00    +0.000 OA
ATOM     30  H   UNL     1       5.441   4.927  20.235  0.00  0.00    +0.000 HD
ENDBRANCH  22  29
ENDBRANCH  19  22
ENDBRANCH   6  19
TORSDOF 9
ENDMDL
MODEL 4
REMARK VINA RESULT:      -8.6      4.086      7.218
REMARK  Name = 
REMARK  9 active torsions:
REMARK  status: ('A' for Active; 'I' for Inactive)
REMARK    1  A    between atoms: C_5  and  O_6
REMARK    2  A    between atoms: O_6  and  C_7
REMARK    3  A    between atoms: C_7  and  C_9
REMARK    4  A    between atoms: C_10  and  C_11
REMARK    5  A    between atoms: C_17  and  C_18
REMARK    6  A    between atoms: C_18  and  O_19
REMARK    7  A    between atoms: C_18  and  C_20
REMARK    8  A    between atoms: C_20  and  O_21
REMARK    9  A    between atoms: C_20  and  C_22
REMARK                            x       y       z     vdW  Elec       q    Type
REMARK                         _______ _______ _______ _____ _____    ______ ____
ROOT
ATOM      1  O   UNL     1       0.791   3.115  20.169  0.00  0.00    +0.000 OA
ATOM      2  C   UNL     1       1.503   3.978  19.668  0.00  0.00    +0.000 C 
ATOM      3  C   UNL     1       2.308   4.872  20.525  0.00  0.00    +0.000 C 
ATOM      4  C   UNL     1       2.898   5.969  20.028  0.00  0.00    +0.000 C 
ATOM      5  C   UNL     1       2.865   6.280  18.560  0.00  0.00    +0.000 C 
ATOM      6  C   UNL     1       2.690   4.964  17.781  0.00  0.00    +0.000 C 
ATOM      7  O   UNL     1       1.558   4.215  18.335  0.00  0.00    +0.000 OA
ENDROOT
BRANCH   5   8
ATOM      8  O   UNL     1       1.750   7.171  18.320  0.00  0.00    +0.000 OA
BRANCH   8   9
ATOM      9  C   UNL     1       2.113   8.448  18.039  0.00  0.00    +0.000 C 
ATOM     10  O   UNL     1       2.880   8.784  17.150  0.00  0.00    +0.000 OA
BRANCH   9  11
ATOM     11  C   UNL     1       1.482   9.378  18.995  0.00  0.00    +0.000 C 
ATOM     12  C   UNL     1       0.904   8.875  20.095  0.00  0.00    +0.000 C 
BRANCH  12  13
ATOM     13  C   UNL     1       0.170   9.723  21.031  0.00  0.00    +0.000 A 
ATOM     14  C   UNL     1      -0.238  10.997  20.625  0.00  0.00    +0.000 A 
ATOM     15  C   UNL     1      -0.904  11.839  21.515  0.00  0.00    +0.000 A 
ATOM     16  C   UNL     1      -1.173  11.406  22.812  0.00  0.00    +0.000 A 
ATOM     17  C   UNL     1      -0.782  10.130  23.219  0.00  0.00    +0.000 A 
ATOM     18  C   UNL     1      -0.112   9.287  22.329  0.00  0.00    +0.000 A 
ENDBRANCH  12  13
ENDBRANCH   9  11
ENDBRANCH   8   9
ENDBRANCH   5   8
BRANCH   6  19
ATOM     19  C   UNL     1       3.929   4.008  17.775  0.00  0.00    +0.000 C 
BRANCH  19  20
ATOM     20  O   UNL     1       3.440   2.679  17.476  0.00  0.00    +0.000 OA
ATOM     21  H   UNL     1       3.775   2.086  18.173  0.00  0.00    +0.000 HD
ENDBRANCH  19  20
BRANCH  19  22
ATOM     22  C   UNL     1       5.073   4.374  16.792  0.00  0.00    +0.000 C 
BRANCH  22  23
ATOM     23  C   UNL     1       6.121   5.300  17.405  0.00  0.00    +0.000 A 
ATOM     24  C   UNL     1       6.803   4.940  18.581  0.00  0.00    +0.000 A 
ATOM     25  C   UNL     1       7.745   5.802  19.153  0.00  0.00    +0.000 A 
ATOM     26  C   UNL     1       8.020   7.034  18.563  0.00  0.00    +0.000 A 
ATOM     27  C   UNL     1       7.370   7.397  17.389  0.00  0.00    +0.000 A 
ATOM     28  C   UNL     1       6.439   6.534  16.810  0.00  0.00    +0.000 A 
ENDBRANCH  22  23
BRANCH  22  29
ATOM     29  O   UNL     1       5.671   3.164  16.312  0.00  0.00    +0.000 OA
ATOM     30  H   UNL     1       5.010   2.701  15.766  0.00  0.00    +0.000 HD
ENDBRANCH  22  29
ENDBRANCH  19  22
ENDBRANCH   6  19
TORSDOF 9
ENDMDL
MODEL 5
REMARK VINA RESULT:      -8.3      3.739      5.901
REMARK  Name = 
REMARK  9 active torsions:
REMARK  status: ('A' for Active; 'I' for Inactive)
REMARK    1  A    between atoms: C_5  and  O_6
REMARK    2  A    between atoms: O_6  and  C_7
REMARK    3  A    between atoms: C_7  and  C_9
REMARK    4  A    between atoms: C_10  and  C_11
REMARK    5  A    between atoms: C_17  and  C_18
REMARK    6  A    between atoms: C_18  and  O_19
REMARK    7  A    between atoms: C_18  and  C_20
REMARK    8  A    between atoms: C_20  and  O_21
REMARK    9  A    between atoms: C_20  and  C_22
REMARK                            x       y       z     vdW  Elec       q    Type
REMARK                         _______ _______ _______ _____ _____    ______ ____
ROOT
ATOM      1  O   UNL     1       7.763   6.558  16.473  0.00  0.00    +0.000 OA
ATOM      2  C   UNL     1       6.643   6.376  16.937  0.00  0.00    +0.000 C 
ATOM      3  C   UNL     1       5.473   6.264  16.042  0.00  0.00    +0.000 C 
ATOM      4  C   UNL     1       4.221   6.311  16.521  0.00  0.00    +0.000 C 
ATOM      5  C   UNL     1       3.948   6.365  17.995  0.00  0.00    +0.000 C 
ATOM      6  C   UNL     1       5.136   5.730  18.741  0.00  0.00    +0.000 C 
ATOM      7  O   UNL     1       6.387   6.329  18.266  0.00  0.00    +0.000 OA
ENDROOT
BRANCH   5   8
ATOM      8  O   UNL     1       3.793   7.755  18.367  0.00  0.00    +0.000 OA
BRANCH   8   9
ATOM      9  C   UNL     1       2.558   8.261  18.113  0.00  0.00    +0.000 C 
ATOM     10  O   UNL     1       2.126   8.546  17.008  0.00  0.00    +0.000 OA
BRANCH   9  11
ATOM     11  C   UNL     1       1.822   8.463  19.377  0.00  0.00    +0.000 C 
ATOM     12  C   UNL     1       1.092   9.578  19.524  0.00  0.00    +0.000 C 
BRANCH  12  13
ATOM     13  C   UNL     1       0.423   9.895  20.784  0.00  0.00    +0.000 A 
ATOM     14  C   UNL     1       0.622   9.064  21.891  0.00  0.00    +0.000 A 
ATOM     15  C   UNL     1      -0.038   9.325  23.092  0.00  0.00    +0.000 A 
ATOM     16  C   UNL     1      -0.893  10.421  23.192  0.00  0.00    +0.000 A 
ATOM     17  C   UNL     1      -1.083  11.262  22.094  0.00  0.00    +0.000 A 
ATOM     18  C   UNL     1      -0.426  11.000  20.890  0.00  0.00    +0.000 A 
ENDBRANCH  12  13
ENDBRANCH   9  11
ENDBRANCH   8   9
ENDBRANCH   5   8
BRANCH   6  19
ATOM     19  C   UNL     1       5.275   4.178  18.599  0.00  0.00    +0.000 C 
BRANCH  19  20
ATOM     20  O   UNL     1       6.688   3.885  18.493  0.00  0.00    +0.000 OA
ATOM     21  H   UNL     1       6.915   3.906  17.546  0.00  0.00    +0.000 HD
ENDBRANCH  19  20
BRANCH  19  22
ATOM     22  C   UNL     1       4.652   3.327  19.739  0.00  0.00    +0.000 C 
BRANCH  22  23
ATOM     23  C   UNL     1       3.131   3.219  19.647  0.00  0.00    +0.000 A 
ATOM     24  C   UNL     1       2.303   3.921  20.540  0.00  0.00    +0.000 A 
ATOM     25  C   UNL     1       0.910   3.802  20.468  0.00  0.00    +0.000 A 
ATOM     26  C   UNL     1       0.325   2.981  19.507  0.00  0.00    +0.000 A 
ATOM     27  C   UNL     1       1.129   2.295  18.602  0.00  0.00    +0.000 A 
ATOM     28  C   UNL     1       2.516   2.423  18.665  0.00  0.00    +0.000 A 
ENDBRANCH  22  23
BRANCH  22  29
ATOM     29  O   UNL     1       5.263   2.031  19.730  0.00  0.00    +0.000 OA
ATOM     30  H   UNL     1       4.951   1.560  18.937  0.00  0.00    +0.000 HD
ENDBRANCH  22  29
ENDBRANCH  19  22
ENDBRANCH   6  19
TORSDOF 9
ENDMDL
MODEL 6
REMARK VINA RESULT:      -8.2      4.465      7.498
REMARK  Name = 
REMARK  9 active torsions:
REMARK  status: ('A' for Active; 'I' for Inactive)
REMARK    1  A    between atoms: C_5  and  O_6
REMARK    2  A    between atoms: O_6  and  C_7
REMARK    3  A    between atoms: C_7  and  C_9
REMARK    4  A    between atoms: C_10  and  C_11
REMARK    5  A    between atoms: C_17  and  C_18
REMARK    6  A    between atoms: C_18  and  O_19
REMARK    7  A    between atoms: C_18  and  C_20
REMARK    8  A    between atoms: C_20  and  O_21
REMARK    9  A    between atoms: C_20  and  C_22
REMARK                            x       y       z     vdW  Elec       q    Type
REMARK                         _______ _______ _______ _____ _____    ______ ____
ROOT
ATOM      1  O   UNL     1       0.449   2.897  19.232  0.00  0.00    +0.000 OA
ATOM      2  C   UNL     1       1.356   3.716  19.131  0.00  0.00    +0.000 C 
ATOM      3  C   UNL     1       2.228   4.011  20.286  0.00  0.00    +0.000 C 
ATOM      4  C   UNL     1       3.059   5.064  20.282  0.00  0.00    +0.000 C 
ATOM      5  C   UNL     1       3.225   5.927  19.066  0.00  0.00    +0.000 C 
ATOM      6  C   UNL     1       2.881   5.092  17.818  0.00  0.00    +0.000 C 
ATOM      7  O   UNL     1       1.581   4.441  18.009  0.00  0.00    +0.000 OA
ENDROOT
BRANCH   5   8
ATOM      8  O   UNL     1       2.324   7.053  19.193  0.00  0.00    +0.000 OA
BRANCH   8   9
ATOM      9  C   UNL     1       2.420   7.955  18.183  0.00  0.00    +0.000 C 
ATOM     10  O   UNL     1       3.452   8.261  17.607  0.00  0.00    +0.000 OA
BRANCH   9  11
ATOM     11  C   UNL     1       1.099   8.553  17.909  0.00  0.00    +0.000 C 
ATOM     12  C   UNL     1       0.822   9.761  18.420  0.00  0.00    +0.000 C 
BRANCH  12  13
ATOM     13  C   UNL     1      -0.500  10.368  18.278  0.00  0.00    +0.000 A 
ATOM     14  C   UNL     1      -0.809  11.513  19.019  0.00  0.00    +0.000 A 
ATOM     15  C   UNL     1      -2.078  12.086  18.930  0.00  0.00    +0.000 A 
ATOM     16  C   UNL     1      -3.039  11.520  18.094  0.00  0.00    +0.000 A 
ATOM     17  C   UNL     1      -2.731  10.386  17.342  0.00  0.00    +0.000 A 
ATOM     18  C   UNL     1      -1.462   9.810  17.432  0.00  0.00    +0.000 A 
ENDBRANCH  12  13
ENDBRANCH   9  11
ENDBRANCH   8   9
ENDBRANCH   5   8
BRANCH   6  19
ATOM     19  C   UNL     1       3.913   3.978  17.441  0.00  0.00    +0.000 C 
BRANCH  19  20
ATOM     20  O   UNL     1       3.172   2.904  16.816  0.00  0.00    +0.000 OA
ATOM     21  H   UNL     1       3.753   2.122  16.805  0.00  0.00    +0.000 HD
ENDBRANCH  19  20
BRANCH  19  22
ATOM     22  C   UNL     1       5.081   4.411  16.514  0.00  0.00    +0.000 C 
BRANCH  22  23
ATOM     23  C   UNL     1       6.115   5.287  17.218  0.00  0.00    +0.000 A 
ATOM     24  C   UNL     1       6.822   4.812  18.337  0.00  0.00    +0.000 A 
ATOM     25  C   UNL     1       7.752   5.625  18.994  0.00  0.00    +0.000 A 
ATOM     26  C   UNL     1       7.990   6.923  18.547  0.00  0.00    +0.000 A 
ATOM     27  C   UNL     1       7.314   7.402  17.429  0.00  0.00    +0.000 A 
ATOM     28  C   UNL     1       6.396   6.589  16.766  0.00  0.00    +0.000 A 
ENDBRANCH  22  23
BRANCH  22  29
ATOM     29  O   UNL     1       5.689   3.238  15.962  0.00  0.00    +0.000 OA
ATOM     30  H   UNL     1       5.002   2.749  15.472  0.00  0.00    +0.000 HD
ENDBRANCH  22  29
ENDBRANCH  19  22
ENDBRANCH   6  19
TORSDOF 9
ENDMDL
MODEL 7
REMARK VINA RESULT:      -8.2      4.289      7.319
REMARK  Name = 
REMARK  9 active torsions:
REMARK  status: ('A' for Active; 'I' for Inactive)
REMARK    1  A    between atoms: C_5  and  O_6
REMARK    2  A    between atoms: O_6  and  C_7
REMARK    3  A    between atoms: C_7  and  C_9
REMARK    4  A    between atoms: C_10  and  C_11
REMARK    5  A    between atoms: C_17  and  C_18
REMARK    6  A    between atoms: C_18  and  O_19
REMARK    7  A    between atoms: C_18  and  C_20
REMARK    8  A    between atoms: C_20  and  O_21
REMARK    9  A    between atoms: C_20  and  C_22
REMARK                            x       y       z     vdW  Elec       q    Type
REMARK                         _______ _______ _______ _____ _____    ______ ____
ROOT
ATOM      1  O   UNL     1       0.904   3.669  20.554  0.00  0.00    +0.000 OA
ATOM      2  C   UNL     1       1.571   4.395  19.824  0.00  0.00    +0.000 C 
ATOM      3  C   UNL     1       2.442   5.438  20.404  0.00  0.00    +0.000 C 
ATOM      4  C   UNL     1       2.987   6.396  19.639  0.00  0.00    +0.000 C 
ATOM      5  C   UNL     1       2.830   6.391  18.147  0.00  0.00    +0.000 C 
ATOM      6  C   UNL     1       2.594   4.943  17.681  0.00  0.00    +0.000 C 
ATOM      7  O   UNL     1       1.514   4.345  18.472  0.00  0.00    +0.000 OA
ENDROOT
BRANCH   5   8
ATOM      8  O   UNL     1       1.697   7.228  17.817  0.00  0.00    +0.000 OA
BRANCH   8   9
ATOM      9  C   UNL     1       1.858   8.534  18.151  0.00  0.00    +0.000 C 
ATOM     10  O   UNL     1       2.641   9.306  17.621  0.00  0.00    +0.000 OA
BRANCH   9  11
ATOM     11  C   UNL     1       0.980   8.880  19.285  0.00  0.00    +0.000 C 
ATOM     12  C   UNL     1       0.929  10.157  19.693  0.00  0.00    +0.000 C 
BRANCH  12  13
ATOM     13  C   UNL     1       0.165  10.555  20.873  0.00  0.00    +0.000 A 
ATOM     14  C   UNL     1       0.111   9.696  21.975  0.00  0.00    +0.000 A 
ATOM     15  C   UNL     1      -0.646  10.037  23.095  0.00  0.00    +0.000 A 
ATOM     16  C   UNL     1      -1.344  11.243  23.122  0.00  0.00    +0.000 A 
ATOM     17  C   UNL     1      -1.281  12.111  22.031  0.00  0.00    +0.000 A 
ATOM     18  C   UNL     1      -0.527  11.769  20.907  0.00  0.00    +0.000 A 
ENDBRANCH  12  13
ENDBRANCH   9  11
ENDBRANCH   8   9
ENDBRANCH   5   8
BRANCH   6  19
ATOM     19  C   UNL     1       3.830   3.988  17.776  0.00  0.00    +0.000 C 
BRANCH  19  20
ATOM     20  O   UNL     1       3.353   2.647  17.515  0.00  0.00    +0.000 OA
ATOM     21  H   UNL     1       3.768   2.350  16.686  0.00  0.00    +0.000 HD
ENDBRANCH  19  20
BRANCH  19  22
ATOM     22  C   UNL     1       5.019   4.309  16.831  0.00  0.00    +0.000 C 
BRANCH  22  23
ATOM     23  C   UNL     1       6.056   5.236  17.463  0.00  0.00    +0.000 A 
ATOM     24  C   UNL     1       6.447   6.425  16.823  0.00  0.00    +0.000 A 
ATOM     25  C   UNL     1       7.415   7.259  17.394  0.00  0.00    +0.000 A 
ATOM     26  C   UNL     1       8.007   6.920  18.608  0.00  0.00    +0.000 A 
ATOM     27  C   UNL     1       7.618   5.757  19.264  0.00  0.00    +0.000 A 
ATOM     28  C   UNL     1       6.644   4.930  18.703  0.00  0.00    +0.000 A 
ENDBRANCH  22  23
BRANCH  22  29
ATOM     29  O   UNL     1       5.615   3.078  16.409  0.00  0.00    +0.000 OA
ATOM     30  H   UNL     1       6.568   3.237  16.282  0.00  0.00    +0.000 HD
ENDBRANCH  22  29
ENDBRANCH  19  22
ENDBRANCH   6  19
TORSDOF 9
ENDMDL
MODEL 8
REMARK VINA RESULT:      -8.0      1.927      2.573
REMARK  Name = 
REMARK  9 active torsions:
REMARK  status: ('A' for Active; 'I' for Inactive)
REMARK    1  A    between atoms: C_5  and  O_6
REMARK    2  A    between atoms: O_6  and  C_7
REMARK    3  A    between atoms: C_7  and  C_9
REMARK    4  A    between atoms: C_10  and  C_11
REMARK    5  A    between atoms: C_17  and  C_18
REMARK    6  A    between atoms: C_18  and  O_19
REMARK    7  A    between atoms: C_18  and  C_20
REMARK    8  A    between atoms: C_20  and  O_21
REMARK    9  A    between atoms: C_20  and  C_22
REMARK                            x       y       z     vdW  Elec       q    Type
REMARK                         _______ _______ _______ _____ _____    ______ ____
ROOT
ATOM      1  O   UNL     1       5.591   3.233  14.818  0.00  0.00    +0.000 OA
ATOM      2  C   UNL     1       5.606   4.189  15.585  0.00  0.00    +0.000 C 
ATOM      3  C   UNL     1       5.246   5.538  15.103  0.00  0.00    +0.000 C 
ATOM      4  C   UNL     1       5.487   6.631  15.843  0.00  0.00    +0.000 C 
ATOM      5  C   UNL     1       6.028   6.528  17.239  0.00  0.00    +0.000 C 
ATOM      6  C   UNL     1       5.633   5.158  17.822  0.00  0.00    +0.000 C 
ATOM      7  O   UNL     1       6.004   4.100  16.877  0.00  0.00    +0.000 OA
ENDROOT
BRANCH   5   8
ATOM      8  O   UNL     1       7.467   6.659  17.168  0.00  0.00    +0.000 OA
BRANCH   8   9
ATOM      9  C   UNL     1       8.015   7.314  18.224  0.00  0.00    +0.000 C 
ATOM     10  O   UNL     1       8.207   6.833  19.330  0.00  0.00    +0.000 OA
BRANCH   9  11
ATOM     11  C   UNL     1       8.306   8.714  17.859  0.00  0.00    +0.000 C 
ATOM     12  C   UNL     1       9.051   9.455  18.693  0.00  0.00    +0.000 C 
BRANCH  12  13
ATOM     13  C   UNL     1       9.291  10.875  18.449  0.00  0.00    +0.000 A 
ATOM     14  C   UNL     1       8.262  11.663  17.925  0.00  0.00    +0.000 A 
ATOM     15  C   UNL     1       8.481  13.011  17.646  0.00  0.00    +0.000 A 
ATOM     16  C   UNL     1       9.729  13.579  17.897  0.00  0.00    +0.000 A 
ATOM     17  C   UNL     1      10.756  12.801  18.435  0.00  0.00    +0.000 A 
ATOM     18  C   UNL     1      10.538  11.449  18.711  0.00  0.00    +0.000 A 
ENDBRANCH  12  13
ENDBRANCH   9  11
ENDBRANCH   8   9
ENDBRANCH   5   8
BRANCH   6  19
ATOM     19  C   UNL     1       4.116   4.975  18.159  0.00  0.00    +0.000 C 
BRANCH  19  20
ATOM     20  O   UNL     1       3.860   3.552  18.216  0.00  0.00    +0.000 OA
ATOM     21  H   UNL     1       3.392   3.378  19.052  0.00  0.00    +0.000 HD
ENDBRANCH  19  20
BRANCH  19  22
ATOM     22  C   UNL     1       3.619   5.645  19.469  0.00  0.00    +0.000 C 
BRANCH  22  23
ATOM     23  C   UNL     1       2.788   6.903  19.224  0.00  0.00    +0.000 A 
ATOM     24  C   UNL     1       2.792   7.538  17.969  0.00  0.00    +0.000 A 
ATOM     25  C   UNL     1       2.048   8.704  17.755  0.00  0.00    +0.000 A 
ATOM     26  C   UNL     1       1.291   9.254  18.788  0.00  0.00    +0.000 A 
ATOM     27  C   UNL     1       1.260   8.627  20.030  0.00  0.00    +0.000 A 
ATOM     28  C   UNL     1       1.992   7.458  20.241  0.00  0.00    +0.000 A 
ENDBRANCH  22  23
BRANCH  22  29
ATOM     29  O   UNL     1       2.882   4.679  20.227  0.00  0.00    +0.000 OA
ATOM     30  H   UNL     1       2.131   4.383  19.682  0.00  0.00    +0.000 HD
ENDBRANCH  22  29
ENDBRANCH  19  22
ENDBRANCH   6  19
TORSDOF 9
ENDMDL
MODEL 9
REMARK VINA RESULT:      -8.0      4.611      7.417
REMARK  Name = 
REMARK  9 active torsions:
REMARK  status: ('A' for Active; 'I' for Inactive)
REMARK    1  A    between atoms: C_5  and  O_6
REMARK    2  A    between atoms: O_6  and  C_7
REMARK    3  A    between atoms: C_7  and  C_9
REMARK    4  A    between atoms: C_10  and  C_11
REMARK    5  A    between atoms: C_17  and  C_18
REMARK    6  A    between atoms: C_18  and  O_19
REMARK    7  A    between atoms: C_18  and  C_20
REMARK    8  A    between atoms: C_20  and  O_21
REMARK    9  A    between atoms: C_20  and  C_22
REMARK                            x       y       z     vdW  Elec       q    Type
REMARK                         _______ _______ _______ _____ _____    ______ ____
ROOT
ATOM      1  O   UNL     1       1.031   3.602  20.712  0.00  0.00    +0.000 OA
ATOM      2  C   UNL     1       1.661   4.337  19.960  0.00  0.00    +0.000 C 
ATOM      3  C   UNL     1       2.559   5.374  20.509  0.00  0.00    +0.000 C 
ATOM      4  C   UNL     1       3.066   6.342  19.730  0.00  0.00    +0.000 C 
ATOM      5  C   UNL     1       2.838   6.353  18.247  0.00  0.00    +0.000 C 
ATOM      6  C   UNL     1       2.580   4.910  17.776  0.00  0.00    +0.000 C 
ATOM      7  O   UNL     1       1.539   4.302  18.611  0.00  0.00    +0.000 OA
ENDROOT
BRANCH   5   8
ATOM      8  O   UNL     1       1.690   7.193  17.981  0.00  0.00    +0.000 OA
BRANCH   8   9
ATOM      9  C   UNL     1       1.980   8.517  17.901  0.00  0.00    +0.000 C 
ATOM     10  O   UNL     1       2.820   9.012  17.167  0.00  0.00    +0.000 OA
BRANCH   9  11
ATOM     11  C   UNL     1       1.162   9.275  18.868  0.00  0.00    +0.000 C 
ATOM     12  C   UNL     1       0.038   9.866  18.436  0.00  0.00    +0.000 C 
BRANCH  12  13
ATOM     13  C   UNL     1      -0.764  10.719  19.309  0.00  0.00    +0.000 A 
ATOM     14  C   UNL     1      -1.865  11.399  18.778  0.00  0.00    +0.000 A 
ATOM     15  C   UNL     1      -2.621  12.250  19.584  0.00  0.00    +0.000 A 
ATOM     16  C   UNL     1      -2.284  12.417  20.926  0.00  0.00    +0.000 A 
ATOM     17  C   UNL     1      -1.196  11.729  21.465  0.00  0.00    +0.000 A 
ATOM     18  C   UNL     1      -0.436  10.879  20.658  0.00  0.00    +0.000 A 
ENDBRANCH  12  13
ENDBRANCH   9  11
ENDBRANCH   8   9
ENDBRANCH   5   8
BRANCH   6  19
ATOM     19  C   UNL     1       3.819   3.955  17.801  0.00  0.00    +0.000 C 
BRANCH  19  20
ATOM     20  O   UNL     1       3.335   2.621  17.521  0.00  0.00    +0.000 OA
ATOM     21  H   UNL     1       3.360   2.503  16.555  0.00  0.00    +0.000 HD
ENDBRANCH  19  20
BRANCH  19  22
ATOM     22  C   UNL     1       4.973   4.305  16.823  0.00  0.00    +0.000 C 
BRANCH  22  23
ATOM     23  C   UNL     1       6.053   5.182  17.455  0.00  0.00    +0.000 A 
ATOM     24  C   UNL     1       6.581   4.877  18.722  0.00  0.00    +0.000 A 
ATOM     25  C   UNL     1       7.553   5.695  19.308  0.00  0.00    +0.000 A 
ATOM     26  C   UNL     1       8.011   6.829  18.641  0.00  0.00    +0.000 A 
ATOM     27  C   UNL     1       7.515   7.134  17.377  0.00  0.00    +0.000 A 
ATOM     28  C   UNL     1       6.555   6.312  16.787  0.00  0.00    +0.000 A 
ENDBRANCH  22  23
BRANCH  22  29
ATOM     29  O   UNL     1       5.530   3.087  16.315  0.00  0.00    +0.000 OA
ATOM     30  H   UNL     1       5.038   2.848  15.509  0.00  0.00    +0.000 HD
ENDBRANCH  22  29
ENDBRANCH  19  22
ENDBRANCH   6  19
TORSDOF 9
ENDMDL
