MODEL 1
REMARK VINA RESULT:      -8.7      0.000      0.000
REMARK  Name = 
REMARK  8 active torsions:
REMARK  status: ('A' for Active; 'I' for Inactive)
REMARK    1  A    between atoms: C_1  and  C_2
REMARK    2  A    between atoms: C_6  and  C_7
REMARK    3  A    between atoms: C_7  and  O_8
REMARK    4  A    between atoms: O_8  and  C_9
REMARK    5  A    between atoms: C_9  and  C_10
REMARK    6  A    between atoms: C_10  and  N_11
REMARK    7  A    between atoms: N_14  and  S_15
REMARK    8  A    between atoms: S_15  and  C_18
REMARK                            x       y       z     vdW  Elec       q    Type
REMARK                         _______ _______ _______ _____ _____    ______ ____
ROOT
ATOM      1  N   UNL     1       6.839   6.008  17.547  0.00  0.00    +0.000 N 
ATOM      2  C   UNL     1       5.817   5.711  18.554  0.00  0.00    +0.000 C 
ATOM      3  C   UNL     1       5.476   4.225  18.737  0.00  0.00    +0.000 C 
ATOM      4  N   UNL     1       4.602   3.708  17.661  0.00  0.00    +0.000 NA
ATOM      5  C   UNL     1       5.304   3.568  16.366  0.00  0.00    +0.000 C 
ATOM      6  C   UNL     1       5.538   4.912  15.712  0.00  0.00    +0.000 C 
ATOM      7  C   UNL     1       6.776   5.621  16.214  0.00  0.00    +0.000 C 
ATOM      8  O   UNL     1       7.670   5.893  15.407  0.00  0.00    +0.000 OA
ENDROOT
BRANCH   4   9
ATOM      9  S   UNL     1       2.970   4.199  17.625  0.00  0.00    +0.000 S 
ATOM     10  O   UNL     1       2.910   5.638  17.493  0.00  0.00    +0.000 OA
ATOM     11  O   UNL     1       2.257   3.341  16.704  0.00  0.00    +0.000 OA
BRANCH   9  12
ATOM     12  C   UNL     1       2.403   3.802  19.259  0.00  0.00    +0.000 A 
ATOM     13  C   UNL     1       2.050   2.488  19.578  0.00  0.00    +0.000 A 
ATOM     14  C   UNL     1       1.711   2.173  20.893  0.00  0.00    +0.000 A 
ATOM     15  C   UNL     1       1.745   3.161  21.879  0.00  0.00    +0.000 A 
ATOM     16  C   UNL     1       2.117   4.468  21.555  0.00  0.00    +0.000 A 
ATOM     17  C   UNL     1       2.448   4.793  20.245  0.00  0.00    +0.000 A 
ENDBRANCH   9  12
ENDBRANCH   4   9
BRANCH   1  18
ATOM     18  C   UNL     1       7.840   7.013  17.931  0.00  0.00    +0.000 C 
BRANCH  18  19
ATOM     19  C   UNL     1       7.399   8.456  17.640  0.00  0.00    +0.000 C 
BRANCH  19  20
ATOM     20  O   UNL     1       8.464   9.400  17.746  0.00  0.00    +0.000 OA
BRANCH  20  21
ATOM     21  C   UNL     1       8.939   9.534  19.084  0.00  0.00    +0.000 C 
BRANCH  21  27
ATOM     22  C   UNL     1      11.505  13.251  16.892  0.00  0.00    +0.000 C 
ATOM     23  C   UNL     1      10.987  12.603  18.142  0.00  0.00    +0.000 A 
ATOM     24  C   UNL     1      11.195  13.181  19.398  0.00  0.00    +0.000 A 
ATOM     25  C   UNL     1      10.699  12.564  20.549  0.00  0.00    +0.000 A 
ATOM     26  C   UNL     1       9.986  11.372  20.452  0.00  0.00    +0.000 A 
ATOM     27  C   UNL     1       9.757  10.787  19.203  0.00  0.00    +0.000 A 
ATOM     28  C   UNL     1      10.273  11.403  18.054  0.00  0.00    +0.000 A 
ENDBRANCH  21  27
ENDBRANCH  20  21
ENDBRANCH  19  20
ENDBRANCH  18  19
ENDBRANCH   1  18
TORSDOF 7
ENDMDL
MODEL 2
REMARK VINA RESULT:      -8.1      0.773      1.278
REMARK  Name = 
REMARK  8 active torsions:
REMARK  status: ('A' for Active; 'I' for Inactive)
REMARK    1  A    between atoms: C_1  and  C_2
REMARK    2  A    between atoms: C_6  and  C_7
REMARK    3  A    between atoms: C_7  and  O_8
REMARK    4  A    between atoms: O_8  and  C_9
REMARK    5  A    between atoms: C_9  and  C_10
REMARK    6  A    between atoms: C_10  and  N_11
REMARK    7  A    between atoms: N_14  and  S_15
REMARK    8  A    between atoms: S_15  and  C_18
REMARK                            x       y       z     vdW  Elec       q    Type
REMARK                         _______ _______ _______ _____ _____    ______ ____
ROOT
ATOM      1  N   UNL     1       6.944   5.901  17.667  0.00  0.00    +0.000 N 
ATOM      2  C   UNL     1       5.933   5.503  18.651  0.00  0.00    +0.000 C 
ATOM      3  C   UNL     1       5.537   4.020  18.635  0.00  0.00    +0.000 C 
ATOM      4  N   UNL     1       4.620   3.690  17.522  0.00  0.00    +0.000 NA
ATOM      5  C   UNL     1       5.286   3.708  16.202  0.00  0.00    +0.000 C 
ATOM      6  C   UNL     1       5.559   5.120  15.734  0.00  0.00    +0.000 C 
ATOM      7  C   UNL     1       6.836   5.707  16.295  0.00  0.00    +0.000 C 
ATOM      8  O   UNL     1       7.721   6.056  15.509  0.00  0.00    +0.000 OA
ENDROOT
BRANCH   4   9
ATOM      9  S   UNL     1       3.008   4.241  17.599  0.00  0.00    +0.000 S 
ATOM     10  O   UNL     1       2.996   5.686  17.538  0.00  0.00    +0.000 OA
ATOM     11  O   UNL     1       2.214   3.454  16.681  0.00  0.00    +0.000 OA
BRANCH   9  12
ATOM     12  C   UNL     1       2.516   3.787  19.243  0.00  0.00    +0.000 A 
ATOM     13  C   UNL     1       2.582   4.723  20.278  0.00  0.00    +0.000 A 
ATOM     14  C   UNL     1       2.092   4.384  21.538  0.00  0.00    +0.000 A 
ATOM     15  C   UNL     1       1.524   3.126  21.750  0.00  0.00    +0.000 A 
ATOM     16  C   UNL     1       1.445   2.202  20.706  0.00  0.00    +0.000 A 
ATOM     17  C   UNL     1       1.941   2.529  19.448  0.00  0.00    +0.000 A 
ENDBRANCH   9  12
ENDBRANCH   4   9
BRANCH   1  18
ATOM     18  C   UNL     1       7.993   6.805  18.159  0.00  0.00    +0.000 C 
BRANCH  18  19
ATOM     19  C   UNL     1       7.742   8.280  17.807  0.00  0.00    +0.000 C 
BRANCH  19  20
ATOM     20  O   UNL     1       8.536   9.183  18.575  0.00  0.00    +0.000 OA
BRANCH  20  21
ATOM     21  C   UNL     1       8.975  10.303  17.811  0.00  0.00    +0.000 C 
BRANCH  21  27
ATOM     22  C   UNL     1       9.939  15.147  18.714  0.00  0.00    +0.000 C 
ATOM     23  C   UNL     1       9.941  13.722  19.183  0.00  0.00    +0.000 A 
ATOM     24  C   UNL     1      10.345  13.385  20.478  0.00  0.00    +0.000 A 
ATOM     25  C   UNL     1      10.332  12.053  20.897  0.00  0.00    +0.000 A 
ATOM     26  C   UNL     1       9.909  11.050  20.028  0.00  0.00    +0.000 A 
ATOM     27  C   UNL     1       9.489  11.370  18.734  0.00  0.00    +0.000 A 
ATOM     28  C   UNL     1       9.520  12.708  18.315  0.00  0.00    +0.000 A 
ENDBRANCH  21  27
ENDBRANCH  20  21
ENDBRANCH  19  20
ENDBRANCH  18  19
ENDBRANCH   1  18
TORSDOF 7
ENDMDL
MODEL 3
REMARK VINA RESULT:      -8.0      0.861      1.583
REMARK  Name = 
REMARK  8 active torsions:
REMARK  status: ('A' for Active; 'I' for Inactive)
REMARK    1  A    between atoms: C_1  and  C_2
REMARK    2  A    between atoms: C_6  and  C_7
REMARK    3  A    between atoms: C_7  and  O_8
REMARK    4  A    between atoms: O_8  and  C_9
REMARK    5  A    between atoms: C_9  and  C_10
REMARK    6  A    between atoms: C_10  and  N_11
REMARK    7  A    between atoms: N_14  and  S_15
REMARK    8  A    between atoms: S_15  and  C_18
REMARK                            x       y       z     vdW  Elec       q    Type
REMARK                         _______ _______ _______ _____ _____    ______ ____
ROOT
ATOM      1  N   UNL     1       6.658   6.210  17.057  0.00  0.00    +0.000 N 
ATOM      2  C   UNL     1       5.685   6.016  18.135  0.00  0.00    +0.000 C 
ATOM      3  C   UNL     1       5.532   4.574  18.641  0.00  0.00    +0.000 C 
ATOM      4  N   UNL     1       4.725   3.736  17.727  0.00  0.00    +0.000 NA
ATOM      5  C   UNL     1       5.433   3.407  16.471  0.00  0.00    +0.000 C 
ATOM      6  C   UNL     1       5.495   4.596  15.539  0.00  0.00    +0.000 C 
ATOM      7  C   UNL     1       6.638   5.541  15.839  0.00  0.00    +0.000 C 
ATOM      8  O   UNL     1       7.488   5.738  14.965  0.00  0.00    +0.000 OA
ENDROOT
BRANCH   4   9
ATOM      9  S   UNL     1       3.044   4.007  17.638  0.00  0.00    +0.000 S 
ATOM     10  O   UNL     1       2.794   5.431  17.617  0.00  0.00    +0.000 OA
ATOM     11  O   UNL     1       2.498   3.144  16.613  0.00  0.00    +0.000 OA
BRANCH   9  12
ATOM     12  C   UNL     1       2.464   3.401  19.201  0.00  0.00    +0.000 A 
ATOM     13  C   UNL     1       3.346   2.754  20.072  0.00  0.00    +0.000 A 
ATOM     14  C   UNL     1       2.901   2.380  21.339  0.00  0.00    +0.000 A 
ATOM     15  C   UNL     1       1.593   2.669  21.734  0.00  0.00    +0.000 A 
ATOM     16  C   UNL     1       0.724   3.330  20.864  0.00  0.00    +0.000 A 
ATOM     17  C   UNL     1       1.156   3.699  19.595  0.00  0.00    +0.000 A 
ENDBRANCH   9  12
ENDBRANCH   4   9
BRANCH   1  18
ATOM     18  C   UNL     1       7.528   7.387  17.186  0.00  0.00    +0.000 C 
BRANCH  18  19
ATOM     19  C   UNL     1       8.347   7.402  18.487  0.00  0.00    +0.000 C 
BRANCH  19  20
ATOM     20  O   UNL     1       8.547   8.715  19.009  0.00  0.00    +0.000 OA
BRANCH  20  21
ATOM     21  C   UNL     1       8.669   9.695  17.980  0.00  0.00    +0.000 C 
BRANCH  21  27
ATOM     22  C   UNL     1       9.859  12.804  21.738  0.00  0.00    +0.000 C 
ATOM     23  C   UNL     1      10.056  12.362  20.319  0.00  0.00    +0.000 A 
ATOM     24  C   UNL     1      11.006  12.971  19.494  0.00  0.00    +0.000 A 
ATOM     25  C   UNL     1      11.178  12.539  18.177  0.00  0.00    +0.000 A 
ATOM     26  C   UNL     1      10.407  11.492  17.677  0.00  0.00    +0.000 A 
ATOM     27  C   UNL     1       9.461  10.863  18.491  0.00  0.00    +0.000 A 
ATOM     28  C   UNL     1       9.283  11.312  19.808  0.00  0.00    +0.000 A 
ENDBRANCH  21  27
ENDBRANCH  20  21
ENDBRANCH  19  20
ENDBRANCH  18  19
ENDBRANCH   1  18
TORSDOF 7
ENDMDL
MODEL 4
REMARK VINA RESULT:      -7.9      0.996      1.327
REMARK  Name = 
REMARK  8 active torsions:
REMARK  status: ('A' for Active; 'I' for Inactive)
REMARK    1  A    between atoms: C_1  and  C_2
REMARK    2  A    between atoms: C_6  and  C_7
REMARK    3  A    between atoms: C_7  and  O_8
REMARK    4  A    between atoms: O_8  and  C_9
REMARK    5  A    between atoms: C_9  and  C_10
REMARK    6  A    between atoms: C_10  and  N_11
REMARK    7  A    between atoms: N_14  and  S_15
REMARK    8  A    between atoms: S_15  and  C_18
REMARK                            x       y       z     vdW  Elec       q    Type
REMARK                         _______ _______ _______ _____ _____    ______ ____
ROOT
ATOM      1  N   UNL     1       6.821   6.063  16.810  0.00  0.00    +0.000 N 
ATOM      2  C   UNL     1       5.886   6.001  17.937  0.00  0.00    +0.000 C 
ATOM      3  C   UNL     1       5.593   4.595  18.480  0.00  0.00    +0.000 C 
ATOM      4  N   UNL     1       4.650   3.842  17.623  0.00  0.00    +0.000 NA
ATOM      5  C   UNL     1       5.252   3.413  16.342  0.00  0.00    +0.000 C 
ATOM      6  C   UNL     1       5.406   4.572  15.383  0.00  0.00    +0.000 C 
ATOM      7  C   UNL     1       6.663   5.382  15.609  0.00  0.00    +0.000 C 
ATOM      8  O   UNL     1       7.485   5.465  14.692  0.00  0.00    +0.000 OA
ENDROOT
BRANCH   4   9
ATOM      9  S   UNL     1       3.009   4.306  17.608  0.00  0.00    +0.000 S 
ATOM     10  O   UNL     1       2.924   5.748  17.533  0.00  0.00    +0.000 OA
ATOM     11  O   UNL     1       2.310   3.473  16.654  0.00  0.00    +0.000 OA
BRANCH   9  12
ATOM     12  C   UNL     1       2.452   3.836  19.226  0.00  0.00    +0.000 A 
ATOM     13  C   UNL     1       2.100   2.509  19.487  0.00  0.00    +0.000 A 
ATOM     14  C   UNL     1       1.768   2.135  20.788  0.00  0.00    +0.000 A 
ATOM     15  C   UNL     1       1.808   3.078  21.818  0.00  0.00    +0.000 A 
ATOM     16  C   UNL     1       2.178   4.398  21.551  0.00  0.00    +0.000 A 
ATOM     17  C   UNL     1       2.502   4.782  20.254  0.00  0.00    +0.000 A 
ENDBRANCH   9  12
ENDBRANCH   4   9
BRANCH   1  18
ATOM     18  C   UNL     1       7.826   7.133  16.873  0.00  0.00    +0.000 C 
BRANCH  18  19
ATOM     19  C   UNL     1       7.519   8.198  17.938  0.00  0.00    +0.000 C 
BRANCH  19  20
ATOM     20  O   UNL     1       8.058   9.481  17.620  0.00  0.00    +0.000 OA
BRANCH  20  21
ATOM     21  C   UNL     1       8.904   9.984  18.651  0.00  0.00    +0.000 C 
BRANCH  21  27
ATOM     22  C   UNL     1       8.405  14.937  18.000  0.00  0.00    +0.000 C 
ATOM     23  C   UNL     1       9.258  13.705  17.924  0.00  0.00    +0.000 A 
ATOM     24  C   UNL     1      10.598  13.773  17.529  0.00  0.00    +0.000 A 
ATOM     25  C   UNL     1      11.375  12.615  17.472  0.00  0.00    +0.000 A 
ATOM     26  C   UNL     1      10.824  11.383  17.814  0.00  0.00    +0.000 A 
ATOM     27  C   UNL     1       9.490  11.298  18.223  0.00  0.00    +0.000 A 
ATOM     28  C   UNL     1       8.710  12.463  18.263  0.00  0.00    +0.000 A 
ENDBRANCH  21  27
ENDBRANCH  20  21
ENDBRANCH  19  20
ENDBRANCH  18  19
ENDBRANCH   1  18
TORSDOF 7
ENDMDL
MODEL 5
REMARK VINA RESULT:      -7.8      0.750      1.375
REMARK  Name = 
REMARK  8 active torsions:
REMARK  status: ('A' for Active; 'I' for Inactive)
REMARK    1  A    between atoms: C_1  and  C_2
REMARK    2  A    between atoms: C_6  and  C_7
REMARK    3  A    between atoms: C_7  and  O_8
REMARK    4  A    between atoms: O_8  and  C_9
REMARK    5  A    between atoms: C_9  and  C_10
REMARK    6  A    between atoms: C_10  and  N_11
REMARK    7  A    between atoms: N_14  and  S_15
REMARK    8  A    between atoms: S_15  and  C_18
REMARK                            x       y       z     vdW  Elec       q    Type
REMARK                         _______ _______ _______ _____ _____    ______ ____
ROOT
ATOM      1  N   UNL     1       6.753   6.333  16.862  0.00  0.00    +0.000 N 
ATOM      2  C   UNL     1       5.755   6.401  17.934  0.00  0.00    +0.000 C 
ATOM      3  C   UNL     1       5.483   5.083  18.673  0.00  0.00    +0.000 C 
ATOM      4  N   UNL     1       4.623   4.164  17.895  0.00  0.00    +0.000 NA
ATOM      5  C   UNL     1       5.317   3.572  16.731  0.00  0.00    +0.000 C 
ATOM      6  C   UNL     1       5.484   4.576  15.612  0.00  0.00    +0.000 C 
ATOM      7  C   UNL     1       6.694   5.469  15.776  0.00  0.00    +0.000 C 
ATOM      8  O   UNL     1       7.567   5.449  14.902  0.00  0.00    +0.000 OA
ENDROOT
BRANCH   4   9
ATOM      9  S   UNL     1       2.970   4.543  17.719  0.00  0.00    +0.000 S 
ATOM     10  O   UNL     1       2.805   5.979  17.756  0.00  0.00    +0.000 OA
ATOM     11  O   UNL     1       2.440   3.765  16.621  0.00  0.00    +0.000 OA
BRANCH   9  12
ATOM     12  C   UNL     1       2.258   3.899  19.212  0.00  0.00    +0.000 A 
ATOM     13  C   UNL     1       1.329   2.857  19.152  0.00  0.00    +0.000 A 
ATOM     14  C   UNL     1       0.861   2.292  20.337  0.00  0.00    +0.000 A 
ATOM     15  C   UNL     1       1.336   2.754  21.567  0.00  0.00    +0.000 A 
ATOM     16  C   UNL     1       2.277   3.783  21.617  0.00  0.00    +0.000 A 
ATOM     17  C   UNL     1       2.743   4.359  20.440  0.00  0.00    +0.000 A 
ENDBRANCH   9  12
ENDBRANCH   4   9
BRANCH   1  18
ATOM     18  C   UNL     1       7.711   7.446  16.812  0.00  0.00    +0.000 C 
BRANCH  18  19
ATOM     19  C   UNL     1       8.059   8.016  18.195  0.00  0.00    +0.000 C 
BRANCH  19  20
ATOM     20  O   UNL     1       8.348   9.414  18.170  0.00  0.00    +0.000 OA
BRANCH  20  21
ATOM     21  C   UNL     1       9.092   9.834  19.311  0.00  0.00    +0.000 C 
BRANCH  21  27
ATOM     22  C   UNL     1      10.690  14.339  20.848  0.00  0.00    +0.000 C 
ATOM     23  C   UNL     1      10.572  13.315  19.759  0.00  0.00    +0.000 A 
ATOM     24  C   UNL     1      11.147  13.524  18.501  0.00  0.00    +0.000 A 
ATOM     25  C   UNL     1      11.031  12.554  17.503  0.00  0.00    +0.000 A 
ATOM     26  C   UNL     1      10.348  11.367  17.756  0.00  0.00    +0.000 A 
ATOM     27  C   UNL     1       9.779  11.135  19.011  0.00  0.00    +0.000 A 
ATOM     28  C   UNL     1       9.885  12.121  20.003  0.00  0.00    +0.000 A 
ENDBRANCH  21  27
ENDBRANCH  20  21
ENDBRANCH  19  20
ENDBRANCH  18  19
ENDBRANCH   1  18
TORSDOF 7
ENDMDL
MODEL 6
REMARK VINA RESULT:      -7.7      6.009      8.767
REMARK  Name = 
REMARK  8 active torsions:
REMARK  status: ('A' for Active; 'I' for Inactive)
REMARK    1  A    between atoms: C_1  and  C_2
REMARK    2  A    between atoms: C_6  and  C_7
REMARK    3  A    between atoms: C_7  and  O_8
REMARK    4  A    between atoms: O_8  and  C_9
REMARK    5  A    between atoms: C_9  and  C_10
REMARK    6  A    between atoms: C_10  and  N_11
REMARK    7  A    between atoms: N_14  and  S_15
REMARK    8  A    between atoms: S_15  and  C_18
REMARK                            x       y       z     vdW  Elec       q    Type
REMARK                         _______ _______ _______ _____ _____    ______ ____
ROOT
ATOM      1  N   UNL     1       1.901   8.024  19.557  0.00  0.00    +0.000 N 
ATOM      2  C   UNL     1       1.440   8.102  20.946  0.00  0.00    +0.000 C 
ATOM      3  C   UNL     1      -0.070   8.308  21.135  0.00  0.00    +0.000 C 
ATOM      4  N   UNL     1      -0.485   9.707  20.892  0.00  0.00    +0.000 NA
ATOM      5  C   UNL     1      -0.435  10.083  19.463  0.00  0.00    +0.000 C 
ATOM      6  C   UNL     1       0.988  10.283  18.989  0.00  0.00    +0.000 C 
ATOM      7  C   UNL     1       1.680   8.998  18.591  0.00  0.00    +0.000 C 
ATOM      8  O   UNL     1       2.085   8.880  17.431  0.00  0.00    +0.000 OA
ENDROOT
BRANCH   4   9
ATOM      9  S   UNL     1      -0.060  10.898  22.037  0.00  0.00    +0.000 S 
ATOM     10  O   UNL     1       0.135  10.270  23.325  0.00  0.00    +0.000 OA
ATOM     11  O   UNL     1       0.966  11.738  21.459  0.00  0.00    +0.000 OA
BRANCH   9  12
ATOM     12  C   UNL     1      -1.537  11.876  22.153  0.00  0.00    +0.000 A 
ATOM     13  C   UNL     1      -2.372  11.752  23.266  0.00  0.00    +0.000 A 
ATOM     14  C   UNL     1      -3.469  12.603  23.394  0.00  0.00    +0.000 A 
ATOM     15  C   UNL     1      -3.712  13.578  22.425  0.00  0.00    +0.000 A 
ATOM     16  C   UNL     1      -2.862  13.707  21.325  0.00  0.00    +0.000 A 
ATOM     17  C   UNL     1      -1.771  12.856  21.185  0.00  0.00    +0.000 A 
ENDBRANCH   9  12
ENDBRANCH   4   9
BRANCH   1  18
ATOM     18  C   UNL     1       2.891   6.976  19.271  0.00  0.00    +0.000 C 
BRANCH  18  19
ATOM     19  C   UNL     1       2.265   5.594  19.030  0.00  0.00    +0.000 C 
BRANCH  19  20
ATOM     20  O   UNL     1       3.123   4.516  19.403  0.00  0.00    +0.000 OA
BRANCH  20  21
ATOM     21  C   UNL     1       3.378   3.626  18.318  0.00  0.00    +0.000 C 
BRANCH  21  27
ATOM     22  C   UNL     1       6.281   4.014  14.241  0.00  0.00    +0.000 C 
ATOM     23  C   UNL     1       6.115   4.160  15.725  0.00  0.00    +0.000 A 
ATOM     24  C   UNL     1       7.148   4.655  16.526  0.00  0.00    +0.000 A 
ATOM     25  C   UNL     1       6.969   4.789  17.904  0.00  0.00    +0.000 A 
ATOM     26  C   UNL     1       5.756   4.437  18.491  0.00  0.00    +0.000 A 
ATOM     27  C   UNL     1       4.708   3.952  17.704  0.00  0.00    +0.000 A 
ATOM     28  C   UNL     1       4.900   3.805  16.322  0.00  0.00    +0.000 A 
ENDBRANCH  21  27
ENDBRANCH  20  21
ENDBRANCH  19  20
ENDBRANCH  18  19
ENDBRANCH   1  18
TORSDOF 7
ENDMDL
MODEL 7
REMARK VINA RESULT:      -7.4      5.964      8.665
REMARK  Name = 
REMARK  8 active torsions:
REMARK  status: ('A' for Active; 'I' for Inactive)
REMARK    1  A    between atoms: C_1  and  C_2
REMARK    2  A    between atoms: C_6  and  C_7
REMARK    3  A    between atoms: C_7  and  O_8
REMARK    4  A    between atoms: O_8  and  C_9
REMARK    5  A    between atoms: C_9  and  C_10
REMARK    6  A    between atoms: C_10  and  N_11
REMARK    7  A    between atoms: N_14  and  S_15
REMARK    8  A    between atoms: S_15  and  C_18
REMARK                            x       y       z     vdW  Elec       q    Type
REMARK                         _______ _______ _______ _____ _____    ______ ____
ROOT
ATOM      1  N   UNL     1       1.902   8.131  19.462  0.00  0.00    +0.000 N 
ATOM      2  C   UNL     1       1.261   8.634  20.680  0.00  0.00    +0.000 C 
ATOM      3  C   UNL     1      -0.217   9.025  20.540  0.00  0.00    +0.000 C 
ATOM      4  N   UNL     1      -0.396  10.334  19.874  0.00  0.00    +0.000 NA
ATOM      5  C   UNL     1      -0.089  10.292  18.428  0.00  0.00    +0.000 C 
ATOM      6  C   UNL     1       1.401  10.219  18.177  0.00  0.00    +0.000 C 
ATOM      7  C   UNL     1       1.959   8.815  18.253  0.00  0.00    +0.000 C 
ATOM      8  O   UNL     1       2.508   8.342  17.254  0.00  0.00    +0.000 OA
ENDROOT
BRANCH   4   9
ATOM      9  S   UNL     1       0.019  11.751  20.728  0.00  0.00    +0.000 S 
ATOM     10  O   UNL     1       0.946  11.413  21.785  0.00  0.00    +0.000 OA
ATOM     11  O   UNL     1       0.335  12.784  19.767  0.00  0.00    +0.000 OA
BRANCH   9  12
ATOM     12  C   UNL     1      -1.511  12.204  21.505  0.00  0.00    +0.000 A 
ATOM     13  C   UNL     1      -2.566  12.702  20.736  0.00  0.00    +0.000 A 
ATOM     14  C   UNL     1      -3.795  12.952  21.344  0.00  0.00    +0.000 A 
ATOM     15  C   UNL     1      -3.968  12.686  22.704  0.00  0.00    +0.000 A 
ATOM     16  C   UNL     1      -2.914  12.171  23.461  0.00  0.00    +0.000 A 
ATOM     17  C   UNL     1      -1.682  11.928  22.865  0.00  0.00    +0.000 A 
ENDBRANCH   9  12
ENDBRANCH   4   9
BRANCH   1  18
ATOM     18  C   UNL     1       2.769   6.957  19.635  0.00  0.00    +0.000 C 
BRANCH  18  19
ATOM     19  C   UNL     1       2.090   5.634  19.249  0.00  0.00    +0.000 C 
BRANCH  19  20
ATOM     20  O   UNL     1       2.619   5.060  18.053  0.00  0.00    +0.000 OA
BRANCH  20  21
ATOM     21  C   UNL     1       3.474   3.950  18.317  0.00  0.00    +0.000 C 
BRANCH  21  27
ATOM     22  C   UNL     1       6.098   4.039  14.037  0.00  0.00    +0.000 C 
ATOM     23  C   UNL     1       6.054   4.207  15.527  0.00  0.00    +0.000 A 
ATOM     24  C   UNL     1       7.186   4.604  16.246  0.00  0.00    +0.000 A 
ATOM     25  C   UNL     1       7.121   4.761  17.633  0.00  0.00    +0.000 A 
ATOM     26  C   UNL     1       5.926   4.529  18.309  0.00  0.00    +0.000 A 
ATOM     27  C   UNL     1       4.781   4.144  17.605  0.00  0.00    +0.000 A 
ATOM     28  C   UNL     1       4.858   3.973  16.215  0.00  0.00    +0.000 A 
ENDBRANCH  21  27
ENDBRANCH  20  21
ENDBRANCH  19  20
ENDBRANCH  18  19
ENDBRANCH   1  18
TORSDOF 7
ENDMDL
MODEL 8
REMARK VINA RESULT:      -7.4      5.164      8.406
REMARK  Name = 
REMARK  8 active torsions:
REMARK  status: ('A' for Active; 'I' for Inactive)
REMARK    1  A    between atoms: C_1  and  C_2
REMARK    2  A    between atoms: C_6  and  C_7
REMARK    3  A    between atoms: C_7  and  O_8
REMARK    4  A    between atoms: O_8  and  C_9
REMARK    5  A    between atoms: C_9  and  C_10
REMARK    6  A    between atoms: C_10  and  N_11
REMARK    7  A    between atoms: N_14  and  S_15
REMARK    8  A    between atoms: S_15  and  C_18
REMARK                            x       y       z     vdW  Elec       q    Type
REMARK                         _______ _______ _______ _____ _____    ______ ____
ROOT
ATOM      1  N   UNL     1       3.496   6.353  18.513  0.00  0.00    +0.000 N 
ATOM      2  C   UNL     1       4.028   6.519  17.158  0.00  0.00    +0.000 C 
ATOM      3  C   UNL     1       4.170   5.230  16.337  0.00  0.00    +0.000 C 
ATOM      4  N   UNL     1       5.353   4.435  16.731  0.00  0.00    +0.000 NA
ATOM      5  C   UNL     1       5.198   3.786  18.051  0.00  0.00    +0.000 C 
ATOM      6  C   UNL     1       5.326   4.783  19.181  0.00  0.00    +0.000 C 
ATOM      7  C   UNL     1       4.042   5.522  19.484  0.00  0.00    +0.000 C 
ATOM      8  O   UNL     1       3.549   5.415  20.611  0.00  0.00    +0.000 OA
ENDROOT
BRANCH   4   9
ATOM      9  S   UNL     1       6.903   5.011  16.313  0.00  0.00    +0.000 S 
ATOM     10  O   UNL     1       6.963   6.434  16.562  0.00  0.00    +0.000 OA
ATOM     11  O   UNL     1       7.889   4.117  16.881  0.00  0.00    +0.000 OA
BRANCH   9  12
ATOM     12  C   UNL     1       6.943   4.789  14.552  0.00  0.00    +0.000 A 
ATOM     13  C   UNL     1       7.805   5.561  13.769  0.00  0.00    +0.000 A 
ATOM     14  C   UNL     1       7.903   5.300  12.403  0.00  0.00    +0.000 A 
ATOM     15  C   UNL     1       7.158   4.265  11.835  0.00  0.00    +0.000 A 
ATOM     16  C   UNL     1       6.312   3.487  12.628  0.00  0.00    +0.000 A 
ATOM     17  C   UNL     1       6.202   3.746  13.990  0.00  0.00    +0.000 A 
ENDBRANCH   9  12
ENDBRANCH   4   9
BRANCH   1  18
ATOM     18  C   UNL     1       2.495   7.345  18.932  0.00  0.00    +0.000 C 
BRANCH  18  19
ATOM     19  C   UNL     1       2.090   8.315  17.811  0.00  0.00    +0.000 C 
BRANCH  19  20
ATOM     20  O   UNL     1       1.874   9.648  18.274  0.00  0.00    +0.000 OA
BRANCH  20  21
ATOM     21  C   UNL     1       0.931   9.705  19.341  0.00  0.00    +0.000 C 
BRANCH  21  27
ATOM     22  C   UNL     1      -2.808   9.877  15.995  0.00  0.00    +0.000 C 
ATOM     23  C   UNL     1      -2.167  10.410  17.242  0.00  0.00    +0.000 A 
ATOM     24  C   UNL     1      -2.767  11.430  17.986  0.00  0.00    +0.000 A 
ATOM     25  C   UNL     1      -2.157  11.907  19.148  0.00  0.00    +0.000 A 
ATOM     26  C   UNL     1      -0.949  11.365  19.578  0.00  0.00    +0.000 A 
ATOM     27  C   UNL     1      -0.341  10.336  18.853  0.00  0.00    +0.000 A 
ATOM     28  C   UNL     1      -0.951   9.873  17.679  0.00  0.00    +0.000 A 
ENDBRANCH  21  27
ENDBRANCH  20  21
ENDBRANCH  19  20
ENDBRANCH  18  19
ENDBRANCH   1  18
TORSDOF 7
ENDMDL
MODEL 9
REMARK VINA RESULT:      -7.4      5.346      8.942
REMARK  Name = 
REMARK  8 active torsions:
REMARK  status: ('A' for Active; 'I' for Inactive)
REMARK    1  A    between atoms: C_1  and  C_2
REMARK    2  A    between atoms: C_6  and  C_7
REMARK    3  A    between atoms: C_7  and  O_8
REMARK    4  A    between atoms: O_8  and  C_9
REMARK    5  A    between atoms: C_9  and  C_10
REMARK    6  A    between atoms: C_10  and  N_11
REMARK    7  A    between atoms: N_14  and  S_15
REMARK    8  A    between atoms: S_15  and  C_18
REMARK                            x       y       z     vdW  Elec       q    Type
REMARK                         _______ _______ _______ _____ _____    ______ ____
ROOT
ATOM      1  N   UNL     1       2.013   7.490  19.481  0.00  0.00    +0.000 N 
ATOM      2  C   UNL     1       3.045   7.139  18.501  0.00  0.00    +0.000 C 
ATOM      3  C   UNL     1       2.839   5.805  17.768  0.00  0.00    +0.000 C 
ATOM      4  N   UNL     1       3.200   4.639  18.604  0.00  0.00    +0.000 NA
ATOM      5  C   UNL     1       2.233   4.390  19.695  0.00  0.00    +0.000 C 
ATOM      6  C   UNL     1       2.379   5.402  20.810  0.00  0.00    +0.000 C 
ATOM      7  C   UNL     1       1.635   6.694  20.556  0.00  0.00    +0.000 C 
ATOM      8  O   UNL     1       0.754   7.036  21.350  0.00  0.00    +0.000 OA
ENDROOT
BRANCH   4   9
ATOM      9  S   UNL     1       4.848   4.342  18.927  0.00  0.00    +0.000 S 
ATOM     10  O   UNL     1       5.363   5.396  19.773  0.00  0.00    +0.000 OA
ATOM     11  O   UNL     1       4.994   2.953  19.303  0.00  0.00    +0.000 OA
BRANCH   9  12
ATOM     12  C   UNL     1       5.603   4.539  17.333  0.00  0.00    +0.000 A 
ATOM     13  C   UNL     1       6.668   5.428  17.168  0.00  0.00    +0.000 A 
ATOM     14  C   UNL     1       7.319   5.492  15.937  0.00  0.00    +0.000 A 
ATOM     15  C   UNL     1       6.917   4.658  14.891  0.00  0.00    +0.000 A 
ATOM     16  C   UNL     1       5.864   3.760  15.070  0.00  0.00    +0.000 A 
ATOM     17  C   UNL     1       5.203   3.697  16.292  0.00  0.00    +0.000 A 
ENDBRANCH   9  12
ENDBRANCH   4   9
BRANCH   1  18
ATOM     18  C   UNL     1       1.568   8.890  19.465  0.00  0.00    +0.000 C 
BRANCH  18  19
ATOM     19  C   UNL     1       1.505   9.495  18.054  0.00  0.00    +0.000 C 
BRANCH  19  20
ATOM     20  O   UNL     1       0.509  10.509  17.922  0.00  0.00    +0.000 OA
BRANCH  20  21
ATOM     21  C   UNL     1      -0.615  10.278  18.769  0.00  0.00    +0.000 C 
BRANCH  21  27
ATOM     22  C   UNL     1      -5.198  12.287  18.366  0.00  0.00    +0.000 C 
ATOM     23  C   UNL     1      -4.099  11.454  17.778  0.00  0.00    +0.000 A 
ATOM     24  C   UNL     1      -4.207  10.912  16.493  0.00  0.00    +0.000 A 
ATOM     25  C   UNL     1      -3.168  10.145  15.961  0.00  0.00    +0.000 A 
ATOM     26  C   UNL     1      -2.012   9.921  16.704  0.00  0.00    +0.000 A 
ATOM     27  C   UNL     1      -1.881  10.465  17.985  0.00  0.00    +0.000 A 
ATOM     28  C   UNL     1      -2.935  11.221  18.519  0.00  0.00    +0.000 A 
ENDBRANCH  21  27
ENDBRANCH  20  21
ENDBRANCH  19  20
ENDBRANCH  18  19
ENDBRANCH   1  18
TORSDOF 7
ENDMDL
