MODEL 1
REMARK VINA RESULT:      -7.6      0.000      0.000
REMARK  Name = 
REMARK  10 active torsions:
REMARK  status: ('A' for Active; 'I' for Inactive)
REMARK    1  A    between atoms: C_1  and  N_2
REMARK    2  A    between atoms: C_3  and  C_5
REMARK    3  A    between atoms: C_10  and  O_11
REMARK    4  A    between atoms: O_11  and  C_12
REMARK    5  A    between atoms: C_12  and  C_13
REMARK    6  A    between atoms: N_15  and  C_16
REMARK    7  A    between atoms: C_16  and  C_17
REMARK    8  A    between atoms: C_17  and  O_18
REMARK    9  A    between atoms: C_17  and  C_19
REMARK   10  A    between atoms: C_19  and  N_20
REMARK                            x       y       z     vdW  Elec       q    Type
REMARK                         _______ _______ _______ _____ _____    ______ ____
ROOT
ATOM      1  C   UNL     1       3.327   2.544  18.146  0.00  0.00    +0.000 C 
ATOM      2  O   UNL     1       4.082   1.835  18.809  0.00  0.00    +0.000 OA
ATOM      3  N   UNL     1       1.992   2.701  18.459  0.00  0.00    +0.000 N 
ATOM      4  H   UNL     1       1.391   3.132  17.768  0.00  0.00    +0.000 HD
ENDROOT
BRANCH   1   5
ATOM      5  C   UNL     1       3.839   3.405  16.976  0.00  0.00    +0.000 C 
BRANCH   5   6
ATOM      6  O   UNL     1       5.236   3.368  16.685  0.00  0.00    +0.000 OA
BRANCH   6  12
ATOM      7  C   UNL     1       6.735   5.218  16.256  0.00  0.00    +0.000 A 
ATOM      8  C   UNL     1       7.459   6.338  16.723  0.00  0.00    +0.000 A 
ATOM      9  C   UNL     1       7.461   6.679  18.071  0.00  0.00    +0.000 A 
ATOM     10  C   UNL     1       6.735   5.909  18.970  0.00  0.00    +0.000 A 
ATOM     11  C   UNL     1       6.000   4.804  18.518  0.00  0.00    +0.000 A 
ATOM     12  C   UNL     1       5.972   4.446  17.158  0.00  0.00    +0.000 A 
BRANCH   7  15
ATOM     13  C   UNL     1       6.167   3.659  12.845  0.00  0.00    +0.000 C 
ATOM     14  N   UNL     1       5.983   4.121  14.199  0.00  0.00    +0.000 N 
ATOM     15  C   UNL     1       6.887   4.961  14.794  0.00  0.00    +0.000 C 
ATOM     16  O   UNL     1       7.844   5.438  14.191  0.00  0.00    +0.000 OA
ATOM     17  H   UNL     1       5.184   3.792  14.735  0.00  0.00    +0.000 HD
ENDBRANCH   7  15
ENDBRANCH   6  12
ENDBRANCH   5   6
ENDBRANCH   1   5
BRANCH   3  18
ATOM     18  C   UNL     1       1.434   2.120  19.686  0.00  0.00    +0.000 C 
BRANCH  18  19
ATOM     19  C   UNL     1       1.258   3.122  20.863  0.00  0.00    +0.000 C 
BRANCH  19  20
ATOM     20  O   UNL     1       2.446   3.132  21.655  0.00  0.00    +0.000 OA
ATOM     21  H   UNL     1       2.548   4.012  22.053  0.00  0.00    +0.000 HD
ENDBRANCH  19  20
BRANCH  19  22
ATOM     22  C   UNL     1       0.929   4.508  20.282  0.00  0.00    +0.000 C 
BRANCH  22  23
ATOM     23  N   UNL     1       1.804   5.673  20.548  0.00  0.00    +0.000 NA
ATOM     24  C   UNL     1       0.930   6.620  21.283  0.00  0.00    +0.000 C 
ATOM     25  C   UNL     1       1.542   7.999  21.413  0.00  0.00    +0.000 C 
ATOM     26  C   UNL     1       1.590   8.523  20.016  0.00  0.00    +0.000 A 
ATOM     27  C   UNL     1       0.905   9.669  19.619  0.00  0.00    +0.000 A 
ATOM     28  C   UNL     1       1.113  10.178  18.344  0.00  0.00    +0.000 A 
ATOM     29  C   UNL     1       2.064   9.583  17.515  0.00  0.00    +0.000 A 
ATOM     30  C   UNL     1       2.640   8.357  17.873  0.00  0.00    +0.000 A 
ATOM     31  C   UNL     1       2.285   7.750  19.083  0.00  0.00    +0.000 A 
ATOM     32  C   UNL     1       2.518   6.263  19.370  0.00  0.00    +0.000 C 
ENDBRANCH  22  23
ENDBRANCH  19  22
ENDBRANCH  18  19
ENDBRANCH   3  18
TORSDOF 9
ENDMDL
MODEL 2
REMARK VINA RESULT:      -7.4      3.013      5.102
REMARK  Name = 
REMARK  10 active torsions:
REMARK  status: ('A' for Active; 'I' for Inactive)
REMARK    1  A    between atoms: C_1  and  N_2
REMARK    2  A    between atoms: C_3  and  C_5
REMARK    3  A    between atoms: C_10  and  O_11
REMARK    4  A    between atoms: O_11  and  C_12
REMARK    5  A    between atoms: C_12  and  C_13
REMARK    6  A    between atoms: N_15  and  C_16
REMARK    7  A    between atoms: C_16  and  C_17
REMARK    8  A    between atoms: C_17  and  O_18
REMARK    9  A    between atoms: C_17  and  C_19
REMARK   10  A    between atoms: C_19  and  N_20
REMARK                            x       y       z     vdW  Elec       q    Type
REMARK                         _______ _______ _______ _____ _____    ______ ____
ROOT
ATOM      1  C   UNL     1       2.045   6.562  20.198  0.00  0.00    +0.000 C 
ATOM      2  O   UNL     1       1.513   5.515  20.564  0.00  0.00    +0.000 OA
ATOM      3  N   UNL     1       1.665   7.796  20.683  0.00  0.00    +0.000 N 
ATOM      4  H   UNL     1       2.001   8.619  20.200  0.00  0.00    +0.000 HD
ENDROOT
BRANCH   1   5
ATOM      5  C   UNL     1       3.259   6.568  19.250  0.00  0.00    +0.000 C 
BRANCH   5   6
ATOM      6  O   UNL     1       4.272   5.582  19.460  0.00  0.00    +0.000 OA
BRANCH   6  12
ATOM      7  C   UNL     1       4.346   4.160  17.505  0.00  0.00    +0.000 A 
ATOM      8  C   UNL     1       4.995   3.743  16.320  0.00  0.00    +0.000 A 
ATOM      9  C   UNL     1       6.225   4.276  15.951  0.00  0.00    +0.000 A 
ATOM     10  C   UNL     1       6.821   5.237  16.757  0.00  0.00    +0.000 A 
ATOM     11  C   UNL     1       6.182   5.670  17.928  0.00  0.00    +0.000 A 
ATOM     12  C   UNL     1       4.932   5.155  18.316  0.00  0.00    +0.000 A 
BRANCH   7  15
ATOM     13  C   UNL     1       1.729   2.155  19.379  0.00  0.00    +0.000 C 
ATOM     14  N   UNL     1       2.838   3.021  19.062  0.00  0.00    +0.000 N 
ATOM     15  C   UNL     1       3.065   3.447  17.780  0.00  0.00    +0.000 C 
ATOM     16  O   UNL     1       2.298   3.199  16.854  0.00  0.00    +0.000 OA
ATOM     17  H   UNL     1       3.484   3.295  19.798  0.00  0.00    +0.000 HD
ENDBRANCH   7  15
ENDBRANCH   6  12
ENDBRANCH   5   6
ENDBRANCH   1   5
BRANCH   3  18
ATOM     18  C   UNL     1       0.679   7.908  21.765  0.00  0.00    +0.000 C 
BRANCH  18  19
ATOM     19  C   UNL     1      -0.165   9.215  21.748  0.00  0.00    +0.000 C 
BRANCH  19  20
ATOM     20  O   UNL     1      -0.714   9.439  23.047  0.00  0.00    +0.000 OA
ATOM     21  H   UNL     1      -0.366  10.277  23.393  0.00  0.00    +0.000 HD
ENDBRANCH  19  20
BRANCH  19  22
ATOM     22  C   UNL     1       0.735  10.374  21.284  0.00  0.00    +0.000 C 
BRANCH  22  23
ATOM     23  N   UNL     1       0.362  11.209  20.120  0.00  0.00    +0.000 NA
ATOM     24  C   UNL     1      -0.769  12.031  20.612  0.00  0.00    +0.000 C 
ATOM     25  C   UNL     1      -1.489  12.763  19.499  0.00  0.00    +0.000 C 
ATOM     26  C   UNL     1      -2.121  11.683  18.685  0.00  0.00    +0.000 A 
ATOM     27  C   UNL     1      -3.499  11.581  18.512  0.00  0.00    +0.000 A 
ATOM     28  C   UNL     1      -4.006  10.640  17.626  0.00  0.00    +0.000 A 
ATOM     29  C   UNL     1      -3.125   9.873  16.863  0.00  0.00    +0.000 A 
ATOM     30  C   UNL     1      -1.753   9.888  17.147  0.00  0.00    +0.000 A 
ATOM     31  C   UNL     1      -1.265  10.704  18.174  0.00  0.00    +0.000 A 
ATOM     32  C   UNL     1       0.103  10.491  18.831  0.00  0.00    +0.000 C 
ENDBRANCH  22  23
ENDBRANCH  19  22
ENDBRANCH  18  19
ENDBRANCH   3  18
TORSDOF 9
ENDMDL
MODEL 3
REMARK VINA RESULT:      -7.4      5.845      8.391
REMARK  Name = 
REMARK  10 active torsions:
REMARK  status: ('A' for Active; 'I' for Inactive)
REMARK    1  A    between atoms: C_1  and  N_2
REMARK    2  A    between atoms: C_3  and  C_5
REMARK    3  A    between atoms: C_10  and  O_11
REMARK    4  A    between atoms: O_11  and  C_12
REMARK    5  A    between atoms: C_12  and  C_13
REMARK    6  A    between atoms: N_15  and  C_16
REMARK    7  A    between atoms: C_16  and  C_17
REMARK    8  A    between atoms: C_17  and  O_18
REMARK    9  A    between atoms: C_17  and  C_19
REMARK   10  A    between atoms: C_19  and  N_20
REMARK                            x       y       z     vdW  Elec       q    Type
REMARK                         _______ _______ _______ _____ _____    ______ ____
ROOT
ATOM      1  C   UNL     1       8.640   9.724  18.248  0.00  0.00    +0.000 C 
ATOM      2  O   UNL     1       9.229   9.333  19.254  0.00  0.00    +0.000 OA
ATOM      3  N   UNL     1       7.916   8.877  17.435  0.00  0.00    +0.000 N 
ATOM      4  H   UNL     1       7.627   9.221  16.529  0.00  0.00    +0.000 HD
ENDROOT
BRANCH   1   5
ATOM      5  C   UNL     1       8.570  11.218  17.877  0.00  0.00    +0.000 C 
BRANCH   5   6
ATOM      6  O   UNL     1       9.179  12.153  18.768  0.00  0.00    +0.000 OA
BRANCH   6  12
ATOM      7  C   UNL     1       9.861  14.361  18.052  0.00  0.00    +0.000 A 
ATOM      8  C   UNL     1      10.840  15.220  17.504  0.00  0.00    +0.000 A 
ATOM      9  C   UNL     1      12.065  14.726  17.071  0.00  0.00    +0.000 A 
ATOM     10  C   UNL     1      12.332  13.368  17.185  0.00  0.00    +0.000 A 
ATOM     11  C   UNL     1      11.375  12.506  17.740  0.00  0.00    +0.000 A 
ATOM     12  C   UNL     1      10.133  12.984  18.197  0.00  0.00    +0.000 A 
BRANCH   7  15
ATOM     13  C   UNL     1       6.801  15.338  20.069  0.00  0.00    +0.000 C 
ATOM     14  N   UNL     1       8.116  14.884  19.690  0.00  0.00    +0.000 N 
ATOM     15  C   UNL     1       8.584  15.044  18.412  0.00  0.00    +0.000 C 
ATOM     16  O   UNL     1       7.960  15.657  17.550  0.00  0.00    +0.000 OA
ATOM     17  H   UNL     1       8.697  14.407  20.375  0.00  0.00    +0.000 HD
ENDBRANCH   7  15
ENDBRANCH   6  12
ENDBRANCH   5   6
ENDBRANCH   1   5
BRANCH   3  18
ATOM     18  C   UNL     1       7.710   7.471  17.807  0.00  0.00    +0.000 C 
BRANCH  18  19
ATOM     19  C   UNL     1       6.709   6.695  16.903  0.00  0.00    +0.000 C 
BRANCH  19  20
ATOM     20  O   UNL     1       7.434   5.809  16.050  0.00  0.00    +0.000 OA
ATOM     21  H   UNL     1       7.894   6.332  15.374  0.00  0.00    +0.000 HD
ENDBRANCH  19  20
BRANCH  19  22
ATOM     22  C   UNL     1       5.708   5.952  17.805  0.00  0.00    +0.000 C 
BRANCH  22  23
ATOM     23  N   UNL     1       4.330   5.667  17.342  0.00  0.00    +0.000 NA
ATOM     24  C   UNL     1       3.468   6.376  18.317  0.00  0.00    +0.000 C 
ATOM     25  C   UNL     1       2.008   5.991  18.196  0.00  0.00    +0.000 C 
ATOM     26  C   UNL     1       1.962   4.557  18.609  0.00  0.00    +0.000 A 
ATOM     27  C   UNL     1       1.227   4.115  19.706  0.00  0.00    +0.000 A 
ATOM     28  C   UNL     1       1.113   2.752  19.944  0.00  0.00    +0.000 A 
ATOM     29  C   UNL     1       1.664   1.849  19.034  0.00  0.00    +0.000 A 
ATOM     30  C   UNL     1       2.514   2.306  18.018  0.00  0.00    +0.000 A 
ATOM     31  C   UNL     1       2.777   3.675  17.896  0.00  0.00    +0.000 A 
ATOM     32  C   UNL     1       3.978   4.228  17.121  0.00  0.00    +0.000 C 
ENDBRANCH  22  23
ENDBRANCH  19  22
ENDBRANCH  18  19
ENDBRANCH   3  18
TORSDOF 9
ENDMDL
MODEL 4
REMARK VINA RESULT:      -7.3      3.387      5.426
REMARK  Name = 
REMARK  10 active torsions:
REMARK  status: ('A' for Active; 'I' for Inactive)
REMARK    1  A    between atoms: C_1  and  N_2
REMARK    2  A    between atoms: C_3  and  C_5
REMARK    3  A    between atoms: C_10  and  O_11
REMARK    4  A    between atoms: O_11  and  C_12
REMARK    5  A    between atoms: C_12  and  C_13
REMARK    6  A    between atoms: N_15  and  C_16
REMARK    7  A    between atoms: C_16  and  C_17
REMARK    8  A    between atoms: C_17  and  O_18
REMARK    9  A    between atoms: C_17  and  C_19
REMARK   10  A    between atoms: C_19  and  N_20
REMARK                            x       y       z     vdW  Elec       q    Type
REMARK                         _______ _______ _______ _____ _____    ______ ____
ROOT
ATOM      1  C   UNL     1       2.136   7.923  19.276  0.00  0.00    +0.000 C 
ATOM      2  O   UNL     1       2.232   9.109  18.965  0.00  0.00    +0.000 OA
ATOM      3  N   UNL     1       1.796   7.516  20.550  0.00  0.00    +0.000 N 
ATOM      4  H   UNL     1       1.927   6.541  20.786  0.00  0.00    +0.000 HD
ENDROOT
BRANCH   1   5
ATOM      5  C   UNL     1       2.276   6.796  18.236  0.00  0.00    +0.000 C 
BRANCH   5   6
ATOM      6  O   UNL     1       3.323   5.843  18.425  0.00  0.00    +0.000 OA
BRANCH   6  12
ATOM      7  C   UNL     1       3.825   3.537  17.897  0.00  0.00    +0.000 A 
ATOM      8  C   UNL     1       3.447   2.175  17.884  0.00  0.00    +0.000 A 
ATOM      9  C   UNL     1       2.186   1.778  18.315  0.00  0.00    +0.000 A 
ATOM     10  C   UNL     1       1.289   2.734  18.771  0.00  0.00    +0.000 A 
ATOM     11  C   UNL     1       1.656   4.087  18.803  0.00  0.00    +0.000 A 
ATOM     12  C   UNL     1       2.930   4.513  18.384  0.00  0.00    +0.000 A 
BRANCH   7  15
ATOM     13  C   UNL     1       7.448   4.649  17.762  0.00  0.00    +0.000 C 
ATOM     14  N   UNL     1       6.163   4.188  18.226  0.00  0.00    +0.000 N 
ATOM     15  C   UNL     1       5.189   3.795  17.347  0.00  0.00    +0.000 C 
ATOM     16  O   UNL     1       5.378   3.723  16.136  0.00  0.00    +0.000 OA
ATOM     17  H   UNL     1       5.964   4.185  19.223  0.00  0.00    +0.000 HD
ENDBRANCH   7  15
ENDBRANCH   6  12
ENDBRANCH   5   6
ENDBRANCH   1   5
BRANCH   3  18
ATOM     18  C   UNL     1       1.407   8.493  21.574  0.00  0.00    +0.000 C 
BRANCH  18  19
ATOM     19  C   UNL     1      -0.070   8.977  21.490  0.00  0.00    +0.000 C 
BRANCH  19  20
ATOM     20  O   UNL     1      -0.848   8.288  22.469  0.00  0.00    +0.000 OA
ATOM     21  H   UNL     1      -0.973   8.871  23.235  0.00  0.00    +0.000 HD
ENDBRANCH  19  20
BRANCH  19  22
ATOM     22  C   UNL     1      -0.097  10.503  21.687  0.00  0.00    +0.000 C 
BRANCH  22  23
ATOM     23  N   UNL     1      -0.400  11.411  20.557  0.00  0.00    +0.000 NA
ATOM     24  C   UNL     1      -1.671  12.066  20.950  0.00  0.00    +0.000 C 
ATOM     25  C   UNL     1      -2.310  12.833  19.811  0.00  0.00    +0.000 C 
ATOM     26  C   UNL     1      -2.704  11.784  18.825  0.00  0.00    +0.000 A 
ATOM     27  C   UNL     1      -4.027  11.567  18.447  0.00  0.00    +0.000 A 
ATOM     28  C   UNL     1      -4.303  10.675  17.419  0.00  0.00    +0.000 A 
ATOM     29  C   UNL     1      -3.248  10.078  16.728  0.00  0.00    +0.000 A 
ATOM     30  C   UNL     1      -1.937  10.198  17.208  0.00  0.00    +0.000 A 
ATOM     31  C   UNL     1      -1.685  10.949  18.361  0.00  0.00    +0.000 A 
ATOM     32  C   UNL     1      -0.402  10.805  19.187  0.00  0.00    +0.000 C 
ENDBRANCH  22  23
ENDBRANCH  19  22
ENDBRANCH  18  19
ENDBRANCH   3  18
TORSDOF 9
ENDMDL
MODEL 5
REMARK VINA RESULT:      -7.3      1.824      2.728
REMARK  Name = 
REMARK  10 active torsions:
REMARK  status: ('A' for Active; 'I' for Inactive)
REMARK    1  A    between atoms: C_1  and  N_2
REMARK    2  A    between atoms: C_3  and  C_5
REMARK    3  A    between atoms: C_10  and  O_11
REMARK    4  A    between atoms: O_11  and  C_12
REMARK    5  A    between atoms: C_12  and  C_13
REMARK    6  A    between atoms: N_15  and  C_16
REMARK    7  A    between atoms: C_16  and  C_17
REMARK    8  A    between atoms: C_17  and  O_18
REMARK    9  A    between atoms: C_17  and  C_19
REMARK   10  A    between atoms: C_19  and  N_20
REMARK                            x       y       z     vdW  Elec       q    Type
REMARK                         _______ _______ _______ _____ _____    ______ ____
ROOT
ATOM      1  C   UNL     1       4.619   2.729  19.634  0.00  0.00    +0.000 C 
ATOM      2  O   UNL     1       4.751   2.017  20.628  0.00  0.00    +0.000 OA
ATOM      3  N   UNL     1       3.461   2.748  18.883  0.00  0.00    +0.000 N 
ATOM      4  H   UNL     1       3.491   3.199  17.978  0.00  0.00    +0.000 HD
ENDROOT
BRANCH   1   5
ATOM      5  C   UNL     1       5.698   3.744  19.213  0.00  0.00    +0.000 C 
BRANCH   5   6
ATOM      6  O   UNL     1       5.298   4.834  18.381  0.00  0.00    +0.000 OA
BRANCH   6  12
ATOM      7  C   UNL     1       6.880   5.692  16.765  0.00  0.00    +0.000 A 
ATOM      8  C   UNL     1       7.440   5.663  15.467  0.00  0.00    +0.000 A 
ATOM      9  C   UNL     1       6.939   4.810  14.490  0.00  0.00    +0.000 A 
ATOM     10  C   UNL     1       5.877   3.970  14.797  0.00  0.00    +0.000 A 
ATOM     11  C   UNL     1       5.322   3.978  16.085  0.00  0.00    +0.000 A 
ATOM     12  C   UNL     1       5.818   4.822  17.094  0.00  0.00    +0.000 A 
BRANCH   7  15
ATOM     13  C   UNL     1       8.223   9.025  17.976  0.00  0.00    +0.000 C 
ATOM     14  N   UNL     1       7.480   8.012  17.267  0.00  0.00    +0.000 N 
ATOM     15  C   UNL     1       7.498   6.703  17.672  0.00  0.00    +0.000 C 
ATOM     16  O   UNL     1       8.060   6.334  18.699  0.00  0.00    +0.000 OA
ATOM     17  H   UNL     1       6.959   8.267  16.432  0.00  0.00    +0.000 HD
ENDBRANCH   7  15
ENDBRANCH   6  12
ENDBRANCH   5   6
ENDBRANCH   1   5
BRANCH   3  18
ATOM     18  C   UNL     1       2.273   2.001  19.314  0.00  0.00    +0.000 C 
BRANCH  18  19
ATOM     19  C   UNL     1       0.929   2.773  19.174  0.00  0.00    +0.000 C 
BRANCH  19  20
ATOM     20  O   UNL     1       0.355   2.959  20.468  0.00  0.00    +0.000 OA
ATOM     21  H   UNL     1      -0.377   3.593  20.397  0.00  0.00    +0.000 HD
ENDBRANCH  19  20
BRANCH  19  22
ATOM     22  C   UNL     1       1.203   4.108  18.458  0.00  0.00    +0.000 C 
BRANCH  22  23
ATOM     23  N   UNL     1       2.092   5.127  19.059  0.00  0.00    +0.000 NA
ATOM     24  C   UNL     1       1.374   5.556  20.283  0.00  0.00    +0.000 C 
ATOM     25  C   UNL     1       1.973   6.798  20.909  0.00  0.00    +0.000 C 
ATOM     26  C   UNL     1       1.722   7.881  19.913  0.00  0.00    +0.000 A 
ATOM     27  C   UNL     1       0.948   9.003  20.202  0.00  0.00    +0.000 A 
ATOM     28  C   UNL     1       0.877  10.036  19.278  0.00  0.00    +0.000 A 
ATOM     29  C   UNL     1       1.647   9.971  18.117  0.00  0.00    +0.000 A 
ATOM     30  C   UNL     1       2.306   8.783  17.776  0.00  0.00    +0.000 A 
ATOM     31  C   UNL     1       2.221   7.673  18.625  0.00  0.00    +0.000 A 
ATOM     32  C   UNL     1       2.535   6.246  18.166  0.00  0.00    +0.000 C 
ENDBRANCH  22  23
ENDBRANCH  19  22
ENDBRANCH  18  19
ENDBRANCH   3  18
TORSDOF 9
ENDMDL
MODEL 6
REMARK VINA RESULT:      -7.3      3.327      5.291
REMARK  Name = 
REMARK  10 active torsions:
REMARK  status: ('A' for Active; 'I' for Inactive)
REMARK    1  A    between atoms: C_1  and  N_2
REMARK    2  A    between atoms: C_3  and  C_5
REMARK    3  A    between atoms: C_10  and  O_11
REMARK    4  A    between atoms: O_11  and  C_12
REMARK    5  A    between atoms: C_12  and  C_13
REMARK    6  A    between atoms: N_15  and  C_16
REMARK    7  A    between atoms: C_16  and  C_17
REMARK    8  A    between atoms: C_17  and  O_18
REMARK    9  A    between atoms: C_17  and  C_19
REMARK   10  A    between atoms: C_19  and  N_20
REMARK                            x       y       z     vdW  Elec       q    Type
REMARK                         _______ _______ _______ _____ _____    ______ ____
ROOT
ATOM      1  C   UNL     1       1.980   6.685  20.069  0.00  0.00    +0.000 C 
ATOM      2  O   UNL     1       1.629   5.777  20.821  0.00  0.00    +0.000 OA
ATOM      3  N   UNL     1       1.907   8.015  20.428  0.00  0.00    +0.000 N 
ATOM      4  H   UNL     1       2.022   8.710  19.701  0.00  0.00    +0.000 HD
ENDROOT
BRANCH   1   5
ATOM      5  C   UNL     1       2.636   6.403  18.705  0.00  0.00    +0.000 C 
BRANCH   5   6
ATOM      6  O   UNL     1       4.036   6.121  18.686  0.00  0.00    +0.000 OA
BRANCH   6  12
ATOM      7  C   UNL     1       4.571   4.272  17.221  0.00  0.00    +0.000 A 
ATOM      8  C   UNL     1       5.044   3.795  15.977  0.00  0.00    +0.000 A 
ATOM      9  C   UNL     1       5.508   4.672  15.003  0.00  0.00    +0.000 A 
ATOM     10  C   UNL     1       5.500   6.037  15.255  0.00  0.00    +0.000 A 
ATOM     11  C   UNL     1       5.020   6.525  16.478  0.00  0.00    +0.000 A 
ATOM     12  C   UNL     1       4.534   5.660  17.475  0.00  0.00    +0.000 A 
BRANCH   7  15
ATOM     13  C   UNL     1       4.659   1.988  20.247  0.00  0.00    +0.000 C 
ATOM     14  N   UNL     1       4.844   3.109  19.359  0.00  0.00    +0.000 N 
ATOM     15  C   UNL     1       4.166   3.196  18.172  0.00  0.00    +0.000 C 
ATOM     16  O   UNL     1       3.305   2.386  17.839  0.00  0.00    +0.000 OA
ATOM     17  H   UNL     1       5.514   3.835  19.602  0.00  0.00    +0.000 HD
ENDBRANCH   7  15
ENDBRANCH   6  12
ENDBRANCH   5   6
ENDBRANCH   1   5
BRANCH   3  18
ATOM     18  C   UNL     1       1.519   8.407  21.789  0.00  0.00    +0.000 C 
BRANCH  18  19
ATOM     19  C   UNL     1       0.570   9.637  21.871  0.00  0.00    +0.000 C 
BRANCH  19  20
ATOM     20  O   UNL     1       1.342  10.835  21.797  0.00  0.00    +0.000 OA
ATOM     21  H   UNL     1       1.106  11.406  22.546  0.00  0.00    +0.000 HD
ENDBRANCH  19  20
BRANCH  19  22
ATOM     22  C   UNL     1      -0.463   9.535  20.734  0.00  0.00    +0.000 C 
BRANCH  22  23
ATOM     23  N   UNL     1      -0.487  10.527  19.635  0.00  0.00    +0.000 NA
ATOM     24  C   UNL     1      -1.543  11.486  20.038  0.00  0.00    +0.000 C 
ATOM     25  C   UNL     1      -1.930  12.434  18.922  0.00  0.00    +0.000 C 
ATOM     26  C   UNL     1      -2.571  11.563  17.893  0.00  0.00    +0.000 A 
ATOM     27  C   UNL     1      -3.896  11.722  17.493  0.00  0.00    +0.000 A 
ATOM     28  C   UNL     1      -4.380  10.971  16.430  0.00  0.00    +0.000 A 
ATOM     29  C   UNL     1      -3.511  10.135  15.730  0.00  0.00    +0.000 A 
ATOM     30  C   UNL     1      -2.226   9.881  16.227  0.00  0.00    +0.000 A 
ATOM     31  C   UNL     1      -1.805  10.499  17.410  0.00  0.00    +0.000 A 
ATOM     32  C   UNL     1      -0.625   9.988  18.244  0.00  0.00    +0.000 C 
ENDBRANCH  22  23
ENDBRANCH  19  22
ENDBRANCH  18  19
ENDBRANCH   3  18
TORSDOF 9
ENDMDL
MODEL 7
REMARK VINA RESULT:      -7.2      5.482      8.060
REMARK  Name = 
REMARK  10 active torsions:
REMARK  status: ('A' for Active; 'I' for Inactive)
REMARK    1  A    between atoms: C_1  and  N_2
REMARK    2  A    between atoms: C_3  and  C_5
REMARK    3  A    between atoms: C_10  and  O_11
REMARK    4  A    between atoms: O_11  and  C_12
REMARK    5  A    between atoms: C_12  and  C_13
REMARK    6  A    between atoms: N_15  and  C_16
REMARK    7  A    between atoms: C_16  and  C_17
REMARK    8  A    between atoms: C_17  and  O_18
REMARK    9  A    between atoms: C_17  and  C_19
REMARK   10  A    between atoms: C_19  and  N_20
REMARK                            x       y       z     vdW  Elec       q    Type
REMARK                         _______ _______ _______ _____ _____    ______ ____
ROOT
ATOM      1  C   UNL     1       8.436   8.996  18.144  0.00  0.00    +0.000 C 
ATOM      2  O   UNL     1       8.907   8.331  19.065  0.00  0.00    +0.000 OA
ATOM      3  N   UNL     1       7.544   8.472  17.231  0.00  0.00    +0.000 N 
ATOM      4  H   UNL     1       7.353   9.007  16.394  0.00  0.00    +0.000 HD
ENDROOT
BRANCH   1   5
ATOM      5  C   UNL     1       8.718  10.503  18.003  0.00  0.00    +0.000 C 
BRANCH   5   6
ATOM      6  O   UNL     1       9.848  11.036  18.696  0.00  0.00    +0.000 OA
BRANCH   6  12
ATOM      7  C   UNL     1       9.789  13.407  19.172  0.00  0.00    +0.000 A 
ATOM      8  C   UNL     1      10.171  14.729  18.848  0.00  0.00    +0.000 A 
ATOM      9  C   UNL     1      10.922  14.999  17.709  0.00  0.00    +0.000 A 
ATOM     10  C   UNL     1      11.307  13.952  16.882  0.00  0.00    +0.000 A 
ATOM     11  C   UNL     1      10.947  12.634  17.199  0.00  0.00    +0.000 A 
ATOM     12  C   UNL     1      10.199  12.334  18.352  0.00  0.00    +0.000 A 
BRANCH   7  15
ATOM     13  C   UNL     1       8.421  12.058  22.441  0.00  0.00    +0.000 C 
ATOM     14  N   UNL     1       9.289  12.368  21.332  0.00  0.00    +0.000 N 
ATOM     15  C   UNL     1       8.938  13.301  20.393  0.00  0.00    +0.000 C 
ATOM     16  O   UNL     1       7.924  13.987  20.487  0.00  0.00    +0.000 OA
ATOM     17  H   UNL     1      10.164  11.861  21.226  0.00  0.00    +0.000 HD
ENDBRANCH   7  15
ENDBRANCH   6  12
ENDBRANCH   5   6
ENDBRANCH   1   5
BRANCH   3  18
ATOM     18  C   UNL     1       7.014   7.112  17.393  0.00  0.00    +0.000 C 
BRANCH  18  19
ATOM     19  C   UNL     1       5.646   6.856  16.696  0.00  0.00    +0.000 C 
BRANCH  19  20
ATOM     20  O   UNL     1       5.814   5.876  15.672  0.00  0.00    +0.000 OA
ATOM     21  H   UNL     1       5.055   5.270  15.692  0.00  0.00    +0.000 HD
ENDBRANCH  19  20
BRANCH  19  22
ATOM     22  C   UNL     1       4.627   6.420  17.764  0.00  0.00    +0.000 C 
BRANCH  22  23
ATOM     23  N   UNL     1       3.872   5.153  17.624  0.00  0.00    +0.000 NA
ATOM     24  C   UNL     1       2.454   5.561  17.767  0.00  0.00    +0.000 C 
ATOM     25  C   UNL     1       1.520   4.380  17.935  0.00  0.00    +0.000 C 
ATOM     26  C   UNL     1       1.888   3.793  19.257  0.00  0.00    +0.000 A 
ATOM     27  C   UNL     1       0.992   3.713  20.320  0.00  0.00    +0.000 A 
ATOM     28  C   UNL     1       1.359   3.025  21.469  0.00  0.00    +0.000 A 
ATOM     29  C   UNL     1       2.582   2.356  21.505  0.00  0.00    +0.000 A 
ATOM     30  C   UNL     1       3.526   2.561  20.490  0.00  0.00    +0.000 A 
ATOM     31  C   UNL     1       3.222   3.409  19.420  0.00  0.00    +0.000 A 
ATOM     32  C   UNL     1       4.292   4.019  18.508  0.00  0.00    +0.000 C 
ENDBRANCH  22  23
ENDBRANCH  19  22
ENDBRANCH  18  19
ENDBRANCH   3  18
TORSDOF 9
ENDMDL
MODEL 8
REMARK VINA RESULT:      -7.2      4.864      7.296
REMARK  Name = 
REMARK  10 active torsions:
REMARK  status: ('A' for Active; 'I' for Inactive)
REMARK    1  A    between atoms: C_1  and  N_2
REMARK    2  A    between atoms: C_3  and  C_5
REMARK    3  A    between atoms: C_10  and  O_11
REMARK    4  A    between atoms: O_11  and  C_12
REMARK    5  A    between atoms: C_12  and  C_13
REMARK    6  A    between atoms: N_15  and  C_16
REMARK    7  A    between atoms: C_16  and  C_17
REMARK    8  A    between atoms: C_17  and  O_18
REMARK    9  A    between atoms: C_17  and  C_19
REMARK   10  A    between atoms: C_19  and  N_20
REMARK                            x       y       z     vdW  Elec       q    Type
REMARK                         _______ _______ _______ _____ _____    ______ ____
ROOT
ATOM      1  C   UNL     1       8.004   7.919  17.873  0.00  0.00    +0.000 C 
ATOM      2  O   UNL     1       8.497   7.235  18.769  0.00  0.00    +0.000 OA
ATOM      3  N   UNL     1       7.236   7.376  16.863  0.00  0.00    +0.000 N 
ATOM      4  H   UNL     1       7.031   7.957  16.060  0.00  0.00    +0.000 HD
ENDROOT
BRANCH   1   5
ATOM      5  C   UNL     1       8.109   9.455  17.873  0.00  0.00    +0.000 C 
BRANCH   5   6
ATOM      6  O   UNL     1       8.437  10.100  19.104  0.00  0.00    +0.000 OA
BRANCH   6  12
ATOM      7  C   UNL     1       9.817  11.789  20.149  0.00  0.00    +0.000 A 
ATOM      8  C   UNL     1      10.967  12.612  20.133  0.00  0.00    +0.000 A 
ATOM      9  C   UNL     1      11.830  12.613  19.043  0.00  0.00    +0.000 A 
ATOM     10  C   UNL     1      11.561  11.789  17.958  0.00  0.00    +0.000 A 
ATOM     11  C   UNL     1      10.432  10.958  17.968  0.00  0.00    +0.000 A 
ATOM     12  C   UNL     1       9.550  10.929  19.063  0.00  0.00    +0.000 A 
BRANCH   7  15
ATOM     13  C   UNL     1       7.725  13.486  22.819  0.00  0.00    +0.000 C 
ATOM     14  N   UNL     1       8.392  13.177  21.578  0.00  0.00    +0.000 N 
ATOM     15  C   UNL     1       8.970  11.953  21.367  0.00  0.00    +0.000 C 
ATOM     16  O   UNL     1       8.877  11.028  22.170  0.00  0.00    +0.000 OA
ATOM     17  H   UNL     1       8.462  13.891  20.858  0.00  0.00    +0.000 HD
ENDBRANCH   7  15
ENDBRANCH   6  12
ENDBRANCH   5   6
ENDBRANCH   1   5
BRANCH   3  18
ATOM     18  C   UNL     1       6.866   5.956  16.880  0.00  0.00    +0.000 C 
BRANCH  18  19
ATOM     19  C   UNL     1       5.657   5.606  17.794  0.00  0.00    +0.000 C 
BRANCH  19  20
ATOM     20  O   UNL     1       6.102   5.502  19.146  0.00  0.00    +0.000 OA
ATOM     21  H   UNL     1       5.509   6.023  19.712  0.00  0.00    +0.000 HD
ENDBRANCH  19  20
BRANCH  19  22
ATOM     22  C   UNL     1       4.577   6.688  17.614  0.00  0.00    +0.000 C 
BRANCH  22  23
ATOM     23  N   UNL     1       3.169   6.430  17.995  0.00  0.00    +0.000 NA
ATOM     24  C   UNL     1       3.106   6.812  19.426  0.00  0.00    +0.000 C 
ATOM     25  C   UNL     1       1.823   6.366  20.094  0.00  0.00    +0.000 C 
ATOM     26  C   UNL     1       1.896   4.876  20.095  0.00  0.00    +0.000 A 
ATOM     27  C   UNL     1       1.903   4.124  21.267  0.00  0.00    +0.000 A 
ATOM     28  C   UNL     1       1.826   2.740  21.188  0.00  0.00    +0.000 A 
ATOM     29  C   UNL     1       1.658   2.133  19.944  0.00  0.00    +0.000 A 
ATOM     30  C   UNL     1       1.792   2.887  18.770  0.00  0.00    +0.000 A 
ATOM     31  C   UNL     1       2.058   4.258  18.852  0.00  0.00    +0.000 A 
ATOM     32  C   UNL     1       2.625   5.069  17.683  0.00  0.00    +0.000 C 
ENDBRANCH  22  23
ENDBRANCH  19  22
ENDBRANCH  18  19
ENDBRANCH   3  18
TORSDOF 9
ENDMDL
MODEL 9
REMARK VINA RESULT:      -7.2      4.081      6.340
REMARK  Name = 
REMARK  10 active torsions:
REMARK  status: ('A' for Active; 'I' for Inactive)
REMARK    1  A    between atoms: C_1  and  N_2
REMARK    2  A    between atoms: C_3  and  C_5
REMARK    3  A    between atoms: C_10  and  O_11
REMARK    4  A    between atoms: O_11  and  C_12
REMARK    5  A    between atoms: C_12  and  C_13
REMARK    6  A    between atoms: N_15  and  C_16
REMARK    7  A    between atoms: C_16  and  C_17
REMARK    8  A    between atoms: C_17  and  O_18
REMARK    9  A    between atoms: C_17  and  C_19
REMARK   10  A    between atoms: C_19  and  N_20
REMARK                            x       y       z     vdW  Elec       q    Type
REMARK                         _______ _______ _______ _____ _____    ______ ____
ROOT
ATOM      1  C   UNL     1       2.150   7.842  19.046  0.00  0.00    +0.000 C 
ATOM      2  O   UNL     1       1.744   7.914  20.204  0.00  0.00    +0.000 OA
ATOM      3  N   UNL     1       1.741   8.717  18.060  0.00  0.00    +0.000 N 
ATOM      4  H   UNL     1       1.957   8.483  17.100  0.00  0.00    +0.000 HD
ENDROOT
BRANCH   1   5
ATOM      5  C   UNL     1       3.240   6.837  18.629  0.00  0.00    +0.000 C 
BRANCH   5   6
ATOM      6  O   UNL     1       3.570   5.794  19.547  0.00  0.00    +0.000 OA
BRANCH   6  12
ATOM      7  C   UNL     1       3.578   3.658  18.413  0.00  0.00    +0.000 A 
ATOM      8  C   UNL     1       2.987   2.395  18.181  0.00  0.00    +0.000 A 
ATOM      9  C   UNL     1       1.787   2.043  18.789  0.00  0.00    +0.000 A 
ATOM     10  C   UNL     1       1.163   2.944  19.641  0.00  0.00    +0.000 A 
ATOM     11  C   UNL     1       1.746   4.195  19.892  0.00  0.00    +0.000 A 
ATOM     12  C   UNL     1       2.965   4.570  19.299  0.00  0.00    +0.000 A 
BRANCH   7  15
ATOM     13  C   UNL     1       7.196   4.536  17.696  0.00  0.00    +0.000 C 
ATOM     14  N   UNL     1       5.985   4.105  18.348  0.00  0.00    +0.000 N 
ATOM     15  C   UNL     1       4.831   3.895  17.639  0.00  0.00    +0.000 C 
ATOM     16  O   UNL     1       4.783   3.971  16.415  0.00  0.00    +0.000 OA
ATOM     17  H   UNL     1       5.976   3.983  19.357  0.00  0.00    +0.000 HD
ENDBRANCH   7  15
ENDBRANCH   6  12
ENDBRANCH   5   6
ENDBRANCH   1   5
BRANCH   3  18
ATOM     18  C   UNL     1       0.885   9.866  18.382  0.00  0.00    +0.000 C 
BRANCH  18  19
ATOM     19  C   UNL     1       1.647  11.139  18.848  0.00  0.00    +0.000 C 
BRANCH  19  20
ATOM     20  O   UNL     1       2.213  11.793  17.713  0.00  0.00    +0.000 OA
ATOM     21  H   UNL     1       1.539  12.367  17.314  0.00  0.00    +0.000 HD
ENDBRANCH  19  20
BRANCH  19  22
ATOM     22  C   UNL     1       0.666  12.043  19.616  0.00  0.00    +0.000 C 
BRANCH  22  23
ATOM     23  N   UNL     1       0.606  12.019  21.096  0.00  0.00    +0.000 NA
ATOM     24  C   UNL     1      -0.324  10.906  21.402  0.00  0.00    +0.000 C 
ATOM     25  C   UNL     1      -0.748  10.880  22.855  0.00  0.00    +0.000 C 
ATOM     26  C   UNL     1      -1.559  12.121  23.033  0.00  0.00    +0.000 A 
ATOM     27  C   UNL     1      -2.901  12.095  23.404  0.00  0.00    +0.000 A 
ATOM     28  C   UNL     1      -3.550  13.288  23.691  0.00  0.00    +0.000 A 
ATOM     29  C   UNL     1      -2.827  14.480  23.685  0.00  0.00    +0.000 A 
ATOM     30  C   UNL     1      -1.521  14.508  23.177  0.00  0.00    +0.000 A 
ATOM     31  C   UNL     1      -0.932  13.328  22.711  0.00  0.00    +0.000 A 
ATOM     32  C   UNL     1       0.283  13.313  21.778  0.00  0.00    +0.000 C 
ENDBRANCH  22  23
ENDBRANCH  19  22
ENDBRANCH  18  19
ENDBRANCH   3  18
TORSDOF 9
ENDMDL
