MODEL 1
REMARK VINA RESULT:      -8.6      0.000      0.000
REMARK  Name = 
REMARK  3 active torsions:
REMARK  status: ('A' for Active; 'I' for Inactive)
REMARK    1  A    between atoms: C_2  and  C_3
REMARK    2  A    between atoms: C_4  and  C_5
REMARK    3  A    between atoms: C_9  and  N_10
REMARK                            x       y       z     vdW  Elec       q    Type
REMARK                         _______ _______ _______ _____ _____    ______ ____
ROOT
ATOM      1  O   UNL     1       5.126   5.694  18.534  0.00  0.00    +0.000 OA
ATOM      2  C   UNL     1       4.345   5.018  17.869  0.00  0.00    +0.000 C 
ATOM      3  N   UNL     1       3.052   4.707  18.254  0.00  0.00    +0.000 N 
ATOM      4  C   UNL     1       2.521   5.305  19.483  0.00  0.00    +0.000 C 
ATOM      5  C   UNL     1       1.765   4.309  20.383  0.00  0.00    +0.000 C 
ATOM      6  C   UNL     1       2.711   3.301  21.057  0.00  0.00    +0.000 C 
ATOM      7  N   UNL     1       3.387   2.416  20.108  0.00  0.00    +0.000 NA
ATOM      8  C   UNL     1       2.479   1.796  19.144  0.00  0.00    +0.000 C 
ATOM      9  C   UNL     1       1.486   2.773  18.479  0.00  0.00    +0.000 C 
ATOM     10  C   UNL     1       0.729   3.544  19.560  0.00  0.00    +0.000 C 
ATOM     11  C   UNL     1       2.175   3.777  17.540  0.00  0.00    +0.000 C 
ATOM     12  H   UNL     1       3.925   1.709  20.608  0.00  0.00    +0.000 HD
ENDROOT
BRANCH   2  13
ATOM     13  C   UNL     1       4.752   4.572  16.515  0.00  0.00    +0.000 C 
ATOM     14  C   UNL     1       6.015   4.733  16.091  0.00  0.00    +0.000 C 
BRANCH  14  15
ATOM     15  C   UNL     1       6.408   4.523  14.690  0.00  0.00    +0.000 A 
ATOM     16  C   UNL     1       7.478   5.242  14.136  0.00  0.00    +0.000 A 
ATOM     17  C   UNL     1       7.807   5.100  12.783  0.00  0.00    +0.000 A 
ATOM     18  C   UNL     1       7.072   4.243  11.963  0.00  0.00    +0.000 A 
ATOM     19  C   UNL     1       5.999   3.533  12.507  0.00  0.00    +0.000 A 
ATOM     20  C   UNL     1       5.662   3.676  13.858  0.00  0.00    +0.000 A 
BRANCH  19  21
ATOM     21  N   UNL     1       5.199   2.639  11.659  0.00  0.00    +0.000 N 
ATOM     22  O   UNL     1       4.083   3.037  11.294  0.00  0.00    +0.000 OA
ATOM     23  O   UNL     1       5.688   1.546  11.351  0.00  0.00    +0.000 OA
ENDBRANCH  19  21
ENDBRANCH  14  15
ENDBRANCH   2  13
TORSDOF 3
ENDMDL
MODEL 2
REMARK VINA RESULT:      -8.3      0.907      1.208
REMARK  Name = 
REMARK  3 active torsions:
REMARK  status: ('A' for Active; 'I' for Inactive)
REMARK    1  A    between atoms: C_2  and  C_3
REMARK    2  A    between atoms: C_4  and  C_5
REMARK    3  A    between atoms: C_9  and  N_10
REMARK                            x       y       z     vdW  Elec       q    Type
REMARK                         _______ _______ _______ _____ _____    ______ ____
ROOT
ATOM      1  O   UNL     1       6.583   4.844  19.309  0.00  0.00    +0.000 OA
ATOM      2  C   UNL     1       5.853   4.631  18.344  0.00  0.00    +0.000 C 
ATOM      3  N   UNL     1       4.470   4.660  18.385  0.00  0.00    +0.000 N 
ATOM      4  C   UNL     1       3.812   5.078  19.626  0.00  0.00    +0.000 C 
ATOM      5  C   UNL     1       2.624   4.184  20.031  0.00  0.00    +0.000 C 
ATOM      6  C   UNL     1       3.080   2.796  20.517  0.00  0.00    +0.000 C 
ATOM      7  N   UNL     1       3.729   2.002  19.474  0.00  0.00    +0.000 NA
ATOM      8  C   UNL     1       2.972   1.953  18.225  0.00  0.00    +0.000 C 
ATOM      9  C   UNL     1       2.462   3.324  17.729  0.00  0.00    +0.000 C 
ATOM     10  C   UNL     1       1.674   4.007  18.847  0.00  0.00    +0.000 C 
ATOM     11  C   UNL     1       3.599   4.256  17.279  0.00  0.00    +0.000 C 
ATOM     12  H   UNL     1       3.924   1.063  19.818  0.00  0.00    +0.000 HD
ENDROOT
BRANCH   2  13
ATOM     13  C   UNL     1       6.467   4.422  17.010  0.00  0.00    +0.000 C 
ATOM     14  C   UNL     1       5.995   5.064  15.931  0.00  0.00    +0.000 C 
BRANCH  14  15
ATOM     15  C   UNL     1       6.412   4.719  14.564  0.00  0.00    +0.000 A 
ATOM     16  C   UNL     1       7.535   5.331  13.988  0.00  0.00    +0.000 A 
ATOM     17  C   UNL     1       7.891   5.063  12.661  0.00  0.00    +0.000 A 
ATOM     18  C   UNL     1       7.131   4.183  11.889  0.00  0.00    +0.000 A 
ATOM     19  C   UNL     1       6.005   3.579  12.455  0.00  0.00    +0.000 A 
ATOM     20  C   UNL     1       5.641   3.849  13.779  0.00  0.00    +0.000 A 
BRANCH  19  21
ATOM     21  N   UNL     1       5.178   2.664  11.657  0.00  0.00    +0.000 N 
ATOM     22  O   UNL     1       5.656   1.556  11.372  0.00  0.00    +0.000 OA
ATOM     23  O   UNL     1       4.051   3.047  11.324  0.00  0.00    +0.000 OA
ENDBRANCH  19  21
ENDBRANCH  14  15
ENDBRANCH   2  13
TORSDOF 3
ENDMDL
MODEL 3
REMARK VINA RESULT:      -7.9      2.116      2.401
REMARK  Name = 
REMARK  3 active torsions:
REMARK  status: ('A' for Active; 'I' for Inactive)
REMARK    1  A    between atoms: C_2  and  C_3
REMARK    2  A    between atoms: C_4  and  C_5
REMARK    3  A    between atoms: C_9  and  N_10
REMARK                            x       y       z     vdW  Elec       q    Type
REMARK                         _______ _______ _______ _____ _____    ______ ____
ROOT
ATOM      1  O   UNL     1       5.717   5.419  18.960  0.00  0.00    +0.000 OA
ATOM      2  C   UNL     1       4.779   5.200  18.198  0.00  0.00    +0.000 C 
ATOM      3  N   UNL     1       3.470   5.000  18.603  0.00  0.00    +0.000 N 
ATOM      4  C   UNL     1       3.140   5.165  20.021  0.00  0.00    +0.000 C 
ATOM      5  C   UNL     1       2.235   4.052  20.582  0.00  0.00    +0.000 C 
ATOM      6  C   UNL     1       2.978   2.711  20.716  0.00  0.00    +0.000 C 
ATOM      7  N   UNL     1       3.403   2.153  19.433  0.00  0.00    +0.000 NA
ATOM      8  C   UNL     1       2.338   2.122  18.432  0.00  0.00    +0.000 C 
ATOM      9  C   UNL     1       1.542   3.438  18.300  0.00  0.00    +0.000 C 
ATOM     10  C   UNL     1       1.021   3.857  19.674  0.00  0.00    +0.000 C 
ATOM     11  C   UNL     1       2.381   4.586  17.715  0.00  0.00    +0.000 C 
ATOM     12  H   UNL     1       3.803   1.225  19.568  0.00  0.00    +0.000 HD
ENDROOT
BRANCH   2  13
ATOM     13  C   UNL     1       5.015   5.242  16.735  0.00  0.00    +0.000 C 
ATOM     14  C   UNL     1       5.352   4.131  16.063  0.00  0.00    +0.000 C 
BRANCH  14  15
ATOM     15  C   UNL     1       5.818   4.165  14.669  0.00  0.00    +0.000 A 
ATOM     16  C   UNL     1       5.328   3.242  13.733  0.00  0.00    +0.000 A 
ATOM     17  C   UNL     1       5.825   3.222  12.424  0.00  0.00    +0.000 A 
ATOM     18  C   UNL     1       6.820   4.119  12.032  0.00  0.00    +0.000 A 
ATOM     19  C   UNL     1       7.319   5.033  12.964  0.00  0.00    +0.000 A 
ATOM     20  C   UNL     1       6.830   5.053  14.275  0.00  0.00    +0.000 A 
BRANCH  19  21
ATOM     21  N   UNL     1       8.379   5.975  12.580  0.00  0.00    +0.000 N 
ATOM     22  O   UNL     1       9.366   6.066  13.324  0.00  0.00    +0.000 OA
ATOM     23  O   UNL     1       8.230   6.615  11.532  0.00  0.00    +0.000 OA
ENDBRANCH  19  21
ENDBRANCH  14  15
ENDBRANCH   2  13
TORSDOF 3
ENDMDL
MODEL 4
REMARK VINA RESULT:      -7.8      4.443      8.379
REMARK  Name = 
REMARK  3 active torsions:
REMARK  status: ('A' for Active; 'I' for Inactive)
REMARK    1  A    between atoms: C_2  and  C_3
REMARK    2  A    between atoms: C_4  and  C_5
REMARK    3  A    between atoms: C_9  and  N_10
REMARK                            x       y       z     vdW  Elec       q    Type
REMARK                         _______ _______ _______ _____ _____    ______ ____
ROOT
ATOM      1  O   UNL     1       3.938   6.117  17.267  0.00  0.00    +0.000 OA
ATOM      2  C   UNL     1       3.139   6.010  18.194  0.00  0.00    +0.000 C 
ATOM      3  N   UNL     1       3.165   4.998  19.138  0.00  0.00    +0.000 N 
ATOM      4  C   UNL     1       4.276   4.042  19.115  0.00  0.00    +0.000 C 
ATOM      5  C   UNL     1       3.838   2.575  19.285  0.00  0.00    +0.000 C 
ATOM      6  C   UNL     1       3.102   2.041  18.044  0.00  0.00    +0.000 C 
ATOM      7  N   UNL     1       1.833   2.720  17.785  0.00  0.00    +0.000 NA
ATOM      8  C   UNL     1       0.974   2.815  18.965  0.00  0.00    +0.000 C 
ATOM      9  C   UNL     1       1.690   3.309  20.241  0.00  0.00    +0.000 C 
ATOM     10  C   UNL     1       2.921   2.441  20.501  0.00  0.00    +0.000 C 
ATOM     11  C   UNL     1       2.127   4.780  20.149  0.00  0.00    +0.000 C 
ATOM     12  H   UNL     1       1.342   2.268  17.015  0.00  0.00    +0.000 HD
ENDROOT
BRANCH   2  13
ATOM     13  C   UNL     1       2.127   7.074  18.398  0.00  0.00    +0.000 C 
ATOM     14  C   UNL     1       2.315   8.030  19.320  0.00  0.00    +0.000 C 
BRANCH  14  15
ATOM     15  C   UNL     1       1.249   8.961  19.718  0.00  0.00    +0.000 A 
ATOM     16  C   UNL     1       0.623   9.776  18.763  0.00  0.00    +0.000 A 
ATOM     17  C   UNL     1      -0.338  10.717  19.149  0.00  0.00    +0.000 A 
ATOM     18  C   UNL     1      -0.686  10.863  20.493  0.00  0.00    +0.000 A 
ATOM     19  C   UNL     1      -0.057  10.061  21.450  0.00  0.00    +0.000 A 
ATOM     20  C   UNL     1       0.909   9.123  21.069  0.00  0.00    +0.000 A 
BRANCH  19  21
ATOM     21  N   UNL     1      -0.393  10.208  22.872  0.00  0.00    +0.000 N 
ATOM     22  O   UNL     1      -1.435  10.816  23.158  0.00  0.00    +0.000 OA
ATOM     23  O   UNL     1       0.378   9.710  23.701  0.00  0.00    +0.000 OA
ENDBRANCH  19  21
ENDBRANCH  14  15
ENDBRANCH   2  13
TORSDOF 3
ENDMDL
MODEL 5
REMARK VINA RESULT:      -7.6      6.051      7.996
REMARK  Name = 
REMARK  3 active torsions:
REMARK  status: ('A' for Active; 'I' for Inactive)
REMARK    1  A    between atoms: C_2  and  C_3
REMARK    2  A    between atoms: C_4  and  C_5
REMARK    3  A    between atoms: C_9  and  N_10
REMARK                            x       y       z     vdW  Elec       q    Type
REMARK                         _______ _______ _______ _____ _____    ______ ____
ROOT
ATOM      1  O   UNL     1       7.684   6.720  16.114  0.00  0.00    +0.000 OA
ATOM      2  C   UNL     1       7.462   6.662  17.321  0.00  0.00    +0.000 C 
ATOM      3  N   UNL     1       6.834   5.603  17.953  0.00  0.00    +0.000 N 
ATOM      4  C   UNL     1       6.500   4.412  17.166  0.00  0.00    +0.000 C 
ATOM      5  C   UNL     1       5.083   3.869  17.431  0.00  0.00    +0.000 C 
ATOM      6  C   UNL     1       3.991   4.788  16.855  0.00  0.00    +0.000 C 
ATOM      7  N   UNL     1       3.947   6.104  17.491  0.00  0.00    +0.000 NA
ATOM      8  C   UNL     1       3.935   6.043  18.952  0.00  0.00    +0.000 C 
ATOM      9  C   UNL     1       4.990   5.097  19.563  0.00  0.00    +0.000 C 
ATOM     10  C   UNL     1       4.856   3.711  18.934  0.00  0.00    +0.000 C 
ATOM     11  C   UNL     1       6.429   5.599  19.361  0.00  0.00    +0.000 C 
ATOM     12  H   UNL     1       3.151   6.637  17.143  0.00  0.00    +0.000 HD
ENDROOT
BRANCH   2  13
ATOM     13  C   UNL     1       7.977   7.739  18.200  0.00  0.00    +0.000 C 
ATOM     14  C   UNL     1       8.174   8.978  17.722  0.00  0.00    +0.000 C 
BRANCH  14  15
ATOM     15  C   UNL     1       8.893  10.010  18.483  0.00  0.00    +0.000 A 
ATOM     16  C   UNL     1       8.991   9.926  19.879  0.00  0.00    +0.000 A 
ATOM     17  C   UNL     1       9.609  10.945  20.614  0.00  0.00    +0.000 A 
ATOM     18  C   UNL     1      10.133  12.064  19.966  0.00  0.00    +0.000 A 
ATOM     19  C   UNL     1      10.029  12.158  18.576  0.00  0.00    +0.000 A 
ATOM     20  C   UNL     1       9.407  11.145  17.838  0.00  0.00    +0.000 A 
BRANCH  19  21
ATOM     21  N   UNL     1      10.558  13.335  17.873  0.00  0.00    +0.000 N 
ATOM     22  O   UNL     1      10.546  14.419  18.475  0.00  0.00    +0.000 OA
ATOM     23  O   UNL     1      10.993  13.175  16.727  0.00  0.00    +0.000 OA
ENDBRANCH  19  21
ENDBRANCH  14  15
ENDBRANCH   2  13
TORSDOF 3
ENDMDL
MODEL 6
REMARK VINA RESULT:      -7.6      4.788      8.725
REMARK  Name = 
REMARK  3 active torsions:
REMARK  status: ('A' for Active; 'I' for Inactive)
REMARK    1  A    between atoms: C_2  and  C_3
REMARK    2  A    between atoms: C_4  and  C_5
REMARK    3  A    between atoms: C_9  and  N_10
REMARK                            x       y       z     vdW  Elec       q    Type
REMARK                         _______ _______ _______ _____ _____    ______ ____
ROOT
ATOM      1  O   UNL     1       3.558   7.244  17.483  0.00  0.00    +0.000 OA
ATOM      2  C   UNL     1       3.039   6.851  18.525  0.00  0.00    +0.000 C 
ATOM      3  N   UNL     1       3.296   5.626  19.116  0.00  0.00    +0.000 N 
ATOM      4  C   UNL     1       4.334   4.769  18.537  0.00  0.00    +0.000 C 
ATOM      5  C   UNL     1       3.922   3.290  18.414  0.00  0.00    +0.000 C 
ATOM      6  C   UNL     1       2.863   3.071  17.319  0.00  0.00    +0.000 C 
ATOM      7  N   UNL     1       1.589   3.729  17.605  0.00  0.00    +0.000 NA
ATOM      8  C   UNL     1       1.086   3.461  18.952  0.00  0.00    +0.000 C 
ATOM      9  C   UNL     1       2.135   3.630  20.073  0.00  0.00    +0.000 C 
ATOM     10  C   UNL     1       3.368   2.789  19.747  0.00  0.00    +0.000 C 
ATOM     11  C   UNL     1       2.567   5.093  20.270  0.00  0.00    +0.000 C 
ATOM     12  H   UNL     1       0.896   3.476  16.902  0.00  0.00    +0.000 HD
ENDROOT
BRANCH   2  13
ATOM     13  C   UNL     1       2.148   7.769  19.275  0.00  0.00    +0.000 C 
ATOM     14  C   UNL     1       1.574   8.817  18.665  0.00  0.00    +0.000 C 
BRANCH  14  15
ATOM     15  C   UNL     1       0.877   9.876  19.409  0.00  0.00    +0.000 A 
ATOM     16  C   UNL     1       0.598  11.108  18.799  0.00  0.00    +0.000 A 
ATOM     17  C   UNL     1       0.003  12.145  19.527  0.00  0.00    +0.000 A 
ATOM     18  C   UNL     1      -0.318  11.970  20.874  0.00  0.00    +0.000 A 
ATOM     19  C   UNL     1      -0.033  10.748  21.489  0.00  0.00    +0.000 A 
ATOM     20  C   UNL     1       0.568   9.711  20.768  0.00  0.00    +0.000 A 
BRANCH  19  21
ATOM     21  N   UNL     1      -0.344  10.547  22.910  0.00  0.00    +0.000 N 
ATOM     22  O   UNL     1       0.336   9.722  23.538  0.00  0.00    +0.000 OA
ATOM     23  O   UNL     1      -1.260  11.218  23.401  0.00  0.00    +0.000 OA
ENDBRANCH  19  21
ENDBRANCH  14  15
ENDBRANCH   2  13
TORSDOF 3
ENDMDL
MODEL 7
REMARK VINA RESULT:      -7.5      7.315      9.226
REMARK  Name = 
REMARK  3 active torsions:
REMARK  status: ('A' for Active; 'I' for Inactive)
REMARK    1  A    between atoms: C_2  and  C_3
REMARK    2  A    between atoms: C_4  and  C_5
REMARK    3  A    between atoms: C_9  and  N_10
REMARK                            x       y       z     vdW  Elec       q    Type
REMARK                         _______ _______ _______ _____ _____    ______ ____
ROOT
ATOM      1  O   UNL     1       7.906  11.642  17.190  0.00  0.00    +0.000 OA
ATOM      2  C   UNL     1       8.537  11.142  18.118  0.00  0.00    +0.000 C 
ATOM      3  N   UNL     1       9.194  11.865  19.099  0.00  0.00    +0.000 N 
ATOM      4  C   UNL     1       9.050  13.323  19.114  0.00  0.00    +0.000 C 
ATOM      5  C   UNL     1      10.374  14.077  19.337  0.00  0.00    +0.000 C 
ATOM      6  C   UNL     1      11.305  13.992  18.114  0.00  0.00    +0.000 C 
ATOM      7  N   UNL     1      11.761  12.632  17.828  0.00  0.00    +0.000 NA
ATOM      8  C   UNL     1      12.289  11.937  19.000  0.00  0.00    +0.000 C 
ATOM      9  C   UNL     1      11.401  12.038  20.260  0.00  0.00    +0.000 C 
ATOM     10  C   UNL     1      11.102  13.507  20.554  0.00  0.00    +0.000 C 
ATOM     11  C   UNL     1      10.073  11.278  20.114  0.00  0.00    +0.000 C 
ATOM     12  H   UNL     1      12.446  12.643  17.073  0.00  0.00    +0.000 HD
ENDROOT
BRANCH   2  13
ATOM     13  C   UNL     1       8.532   9.668  18.281  0.00  0.00    +0.000 C 
ATOM     14  C   UNL     1       7.808   8.891  17.461  0.00  0.00    +0.000 C 
BRANCH  14  15
ATOM     15  C   UNL     1       7.588   7.461  17.722  0.00  0.00    +0.000 A 
ATOM     16  C   UNL     1       8.167   6.845  18.841  0.00  0.00    +0.000 A 
ATOM     17  C   UNL     1       8.022   5.468  19.051  0.00  0.00    +0.000 A 
ATOM     18  C   UNL     1       7.302   4.687  18.147  0.00  0.00    +0.000 A 
ATOM     19  C   UNL     1       6.732   5.294  17.025  0.00  0.00    +0.000 A 
ATOM     20  C   UNL     1       6.879   6.669  16.807  0.00  0.00    +0.000 A 
BRANCH  19  21
ATOM     21  N   UNL     1       5.984   4.490  16.049  0.00  0.00    +0.000 N 
ATOM     22  O   UNL     1       6.627   3.939  15.143  0.00  0.00    +0.000 OA
ATOM     23  O   UNL     1       4.759   4.400  16.193  0.00  0.00    +0.000 OA
ENDBRANCH  19  21
ENDBRANCH  14  15
ENDBRANCH   2  13
TORSDOF 3
ENDMDL
MODEL 8
REMARK VINA RESULT:      -7.5      4.965      7.797
REMARK  Name = 
REMARK  3 active torsions:
REMARK  status: ('A' for Active; 'I' for Inactive)
REMARK    1  A    between atoms: C_2  and  C_3
REMARK    2  A    between atoms: C_4  and  C_5
REMARK    3  A    between atoms: C_9  and  N_10
REMARK                            x       y       z     vdW  Elec       q    Type
REMARK                         _______ _______ _______ _____ _____    ______ ____
ROOT
ATOM      1  O   UNL     1       3.972   6.963  17.383  0.00  0.00    +0.000 OA
ATOM      2  C   UNL     1       3.153   6.689  18.257  0.00  0.00    +0.000 C 
ATOM      3  N   UNL     1       3.234   5.587  19.090  0.00  0.00    +0.000 N 
ATOM      4  C   UNL     1       4.424   4.734  19.015  0.00  0.00    +0.000 C 
ATOM      5  C   UNL     1       4.109   3.226  19.010  0.00  0.00    +0.000 C 
ATOM      6  C   UNL     1       3.467   2.770  17.688  0.00  0.00    +0.000 C 
ATOM      7  N   UNL     1       2.153   3.366  17.447  0.00  0.00    +0.000 NA
ATOM      8  C   UNL     1       1.249   3.261  18.591  0.00  0.00    +0.000 C 
ATOM      9  C   UNL     1       1.874   3.671  19.942  0.00  0.00    +0.000 C 
ATOM     10  C   UNL     1       3.166   2.885  20.163  0.00  0.00    +0.000 C 
ATOM     11  C   UNL     1       2.184   5.174  20.025  0.00  0.00    +0.000 C 
ATOM     12  H   UNL     1       1.731   2.961  16.612  0.00  0.00    +0.000 HD
ENDROOT
BRANCH   2  13
ATOM     13  C   UNL     1       2.045   7.637  18.528  0.00  0.00    +0.000 C 
ATOM     14  C   UNL     1       1.858   8.712  17.748  0.00  0.00    +0.000 C 
BRANCH  14  15
ATOM     15  C   UNL     1       0.929   9.794  18.107  0.00  0.00    +0.000 A 
ATOM     16  C   UNL     1       1.368  10.882  18.875  0.00  0.00    +0.000 A 
ATOM     17  C   UNL     1       0.470  11.875  19.284  0.00  0.00    +0.000 A 
ATOM     18  C   UNL     1      -0.879  11.794  18.936  0.00  0.00    +0.000 A 
ATOM     19  C   UNL     1      -1.324  10.706  18.180  0.00  0.00    +0.000 A 
ATOM     20  C   UNL     1      -0.431   9.708  17.774  0.00  0.00    +0.000 A 
BRANCH  19  21
ATOM     21  N   UNL     1      -2.743  10.590  17.817  0.00  0.00    +0.000 N 
ATOM     22  O   UNL     1      -3.361  11.634  17.565  0.00  0.00    +0.000 OA
ATOM     23  O   UNL     1      -3.236   9.457  17.774  0.00  0.00    +0.000 OA
ENDBRANCH  19  21
ENDBRANCH  14  15
ENDBRANCH   2  13
TORSDOF 3
ENDMDL
MODEL 9
REMARK VINA RESULT:      -7.4      5.127      9.199
REMARK  Name = 
REMARK  3 active torsions:
REMARK  status: ('A' for Active; 'I' for Inactive)
REMARK    1  A    between atoms: C_2  and  C_3
REMARK    2  A    between atoms: C_4  and  C_5
REMARK    3  A    between atoms: C_9  and  N_10
REMARK                            x       y       z     vdW  Elec       q    Type
REMARK                         _______ _______ _______ _____ _____    ______ ____
ROOT
ATOM      1  O   UNL     1       3.093   7.264  18.347  0.00  0.00    +0.000 OA
ATOM      2  C   UNL     1       2.658   6.643  19.314  0.00  0.00    +0.000 C 
ATOM      3  N   UNL     1       3.020   5.348  19.641  0.00  0.00    +0.000 N 
ATOM      4  C   UNL     1       4.074   4.693  18.861  0.00  0.00    +0.000 C 
ATOM      5  C   UNL     1       3.745   3.240  18.468  0.00  0.00    +0.000 C 
ATOM      6  C   UNL     1       2.641   3.163  17.398  0.00  0.00    +0.000 C 
ATOM      7  N   UNL     1       1.348   3.663  17.863  0.00  0.00    +0.000 NA
ATOM      8  C   UNL     1       0.939   3.106  19.151  0.00  0.00    +0.000 C 
ATOM      9  C   UNL     1       2.036   3.128  20.237  0.00  0.00    +0.000 C 
ATOM     10  C   UNL     1       3.297   2.453  19.699  0.00  0.00    +0.000 C 
ATOM     11  C   UNL     1       2.390   4.552  20.698  0.00  0.00    +0.000 C 
ATOM     12  H   UNL     1       0.633   3.503  17.154  0.00  0.00    +0.000 HD
ENDROOT
BRANCH   2  13
ATOM     13  C   UNL     1       1.757   7.334  20.267  0.00  0.00    +0.000 C 
ATOM     14  C   UNL     1       1.262   8.548  19.984  0.00  0.00    +0.000 C 
BRANCH  14  15
ATOM     15  C   UNL     1       0.560   9.365  20.984  0.00  0.00    +0.000 A 
ATOM     16  C   UNL     1       0.552   8.985  22.335  0.00  0.00    +0.000 A 
ATOM     17  C   UNL     1      -0.178   9.718  23.278  0.00  0.00    +0.000 A 
ATOM     18  C   UNL     1      -0.914  10.837  22.887  0.00  0.00    +0.000 A 
ATOM     19  C   UNL     1      -0.919  11.214  21.541  0.00  0.00    +0.000 A 
ATOM     20  C   UNL     1      -0.195  10.481  20.594  0.00  0.00    +0.000 A 
BRANCH  19  21
ATOM     21  N   UNL     1      -1.701  12.377  21.102  0.00  0.00    +0.000 N 
ATOM     22  O   UNL     1      -2.247  13.067  21.976  0.00  0.00    +0.000 OA
ATOM     23  O   UNL     1      -1.762  12.607  19.889  0.00  0.00    +0.000 OA
ENDBRANCH  19  21
ENDBRANCH  14  15
ENDBRANCH   2  13
TORSDOF 3
ENDMDL
