MODEL 1
REMARK VINA RESULT:      -7.4      0.000      0.000
REMARK  Name = 
REMARK  6 active torsions:
REMARK  status: ('A' for Active; 'I' for Inactive)
REMARK    1  A    between atoms: C_1  and  C_2
REMARK    2  A    between atoms: C_2  and  C_3
REMARK    3  A    between atoms: C_5  and  O_6
REMARK    4  A    between atoms: C_7  and  O_8
REMARK    5  A    between atoms: O_8  and  C_9
REMARK    6  A    between atoms: C_12  and  C_13
REMARK                            x       y       z     vdW  Elec       q    Type
REMARK                         _______ _______ _______ _____ _____    ______ ____
ROOT
ATOM      1  C   UNL     1       1.900   3.264  19.514  0.00  0.00    +0.000 A 
ATOM      2  C   UNL     1       2.517   2.132  18.969  0.00  0.00    +0.000 A 
ATOM      3  C   UNL     1       3.625   2.271  18.129  0.00  0.00    +0.000 A 
ATOM      4  C   UNL     1       4.097   3.544  17.774  0.00  0.00    +0.000 A 
ATOM      5  C   UNL     1       3.492   4.671  18.336  0.00  0.00    +0.000 A 
ATOM      6  C   UNL     1       2.410   4.525  19.196  0.00  0.00    +0.000 A 
ATOM      7  F   UNL     1       1.863   5.621  19.739  0.00  0.00    +0.000 F 
ENDROOT
BRANCH   1   9
ATOM      8  C   UNL     1       1.302   2.664  21.855  0.00  0.00    +0.000 C 
ATOM      9  C   UNL     1       0.773   3.112  20.500  0.00  0.00    +0.000 C 
ENDBRANCH   1   9
BRANCH   3  10
ATOM     10  O   UNL     1       4.248   1.137  17.686  0.00  0.00    +0.000 OA
ATOM     11  H   UNL     1       4.835   1.359  16.946  0.00  0.00    +0.000 HD
ENDBRANCH   3  10
BRANCH   4  12
ATOM     12  O   UNL     1       5.169   3.829  16.952  0.00  0.00    +0.000 OA
BRANCH  12  13
ATOM     13  C   UNL     1       5.979   4.909  17.215  0.00  0.00    +0.000 A 
ATOM     14  C   UNL     1       6.977   4.917  18.192  0.00  0.00    +0.000 A 
ATOM     15  C   UNL     1       7.673   6.097  18.464  0.00  0.00    +0.000 A 
ATOM     16  C   UNL     1       7.435   7.245  17.702  0.00  0.00    +0.000 A 
ATOM     17  C   UNL     1       6.516   7.207  16.652  0.00  0.00    +0.000 A 
ATOM     18  C   UNL     1       5.795   6.040  16.418  0.00  0.00    +0.000 A 
ATOM     19  F   UNL     1       4.911   6.020  15.409  0.00  0.00    +0.000 F 
BRANCH  16  20
ATOM     20  C   UNL     1       8.123   8.462  18.010  0.00  0.00    +0.000 C 
ATOM     21  N   UNL     1       8.686   9.446  18.245  0.00  0.00    +0.000 NA
ENDBRANCH  16  20
ENDBRANCH  12  13
ENDBRANCH   4  12
TORSDOF 5
ENDMDL
MODEL 2
REMARK VINA RESULT:      -7.3      1.198      1.210
REMARK  Name = 
REMARK  6 active torsions:
REMARK  status: ('A' for Active; 'I' for Inactive)
REMARK    1  A    between atoms: C_1  and  C_2
REMARK    2  A    between atoms: C_2  and  C_3
REMARK    3  A    between atoms: C_5  and  O_6
REMARK    4  A    between atoms: C_7  and  O_8
REMARK    5  A    between atoms: O_8  and  C_9
REMARK    6  A    between atoms: C_12  and  C_13
REMARK                            x       y       z     vdW  Elec       q    Type
REMARK                         _______ _______ _______ _____ _____    ______ ____
ROOT
ATOM      1  C   UNL     1       2.129   3.757  19.390  0.00  0.00    +0.000 A 
ATOM      2  C   UNL     1       3.292   3.177  19.913  0.00  0.00    +0.000 A 
ATOM      3  C   UNL     1       4.517   3.349  19.264  0.00  0.00    +0.000 A 
ATOM      4  C   UNL     1       4.590   4.053  18.052  0.00  0.00    +0.000 A 
ATOM      5  C   UNL     1       3.433   4.647  17.543  0.00  0.00    +0.000 A 
ATOM      6  C   UNL     1       2.223   4.498  18.210  0.00  0.00    +0.000 A 
ATOM      7  F   UNL     1       1.132   5.098  17.713  0.00  0.00    +0.000 F 
ENDROOT
BRANCH   1   9
ATOM      8  C   UNL     1       1.006   2.850  21.418  0.00  0.00    +0.000 C 
ATOM      9  C   UNL     1       0.830   3.661  20.143  0.00  0.00    +0.000 C 
ENDBRANCH   1   9
BRANCH   3  10
ATOM     10  O   UNL     1       5.639   2.837  19.854  0.00  0.00    +0.000 OA
ATOM     11  H   UNL     1       5.502   2.778  20.813  0.00  0.00    +0.000 HD
ENDBRANCH   3  10
BRANCH   4  12
ATOM     12  O   UNL     1       5.724   4.290  17.301  0.00  0.00    +0.000 OA
BRANCH  12  13
ATOM     13  C   UNL     1       6.492   5.407  17.537  0.00  0.00    +0.000 A 
ATOM     14  C   UNL     1       7.482   5.482  18.520  0.00  0.00    +0.000 A 
ATOM     15  C   UNL     1       8.131   6.695  18.760  0.00  0.00    +0.000 A 
ATOM     16  C   UNL     1       7.857   7.810  17.962  0.00  0.00    +0.000 A 
ATOM     17  C   UNL     1       6.948   7.706  16.907  0.00  0.00    +0.000 A 
ATOM     18  C   UNL     1       6.272   6.506  16.704  0.00  0.00    +0.000 A 
ATOM     19  F   UNL     1       5.398   6.423  15.691  0.00  0.00    +0.000 F 
BRANCH  16  20
ATOM     20  C   UNL     1       8.497   9.060  18.237  0.00  0.00    +0.000 C 
ATOM     21  N   UNL     1       9.025  10.069  18.449  0.00  0.00    +0.000 NA
ENDBRANCH  16  20
ENDBRANCH  12  13
ENDBRANCH   4  12
TORSDOF 5
ENDMDL
MODEL 3
REMARK VINA RESULT:      -7.2      2.739      3.326
REMARK  Name = 
REMARK  6 active torsions:
REMARK  status: ('A' for Active; 'I' for Inactive)
REMARK    1  A    between atoms: C_1  and  C_2
REMARK    2  A    between atoms: C_2  and  C_3
REMARK    3  A    between atoms: C_5  and  O_6
REMARK    4  A    between atoms: C_7  and  O_8
REMARK    5  A    between atoms: O_8  and  C_9
REMARK    6  A    between atoms: C_12  and  C_13
REMARK                            x       y       z     vdW  Elec       q    Type
REMARK                         _______ _______ _______ _____ _____    ______ ____
ROOT
ATOM      1  C   UNL     1       2.259   4.100  20.426  0.00  0.00    +0.000 A 
ATOM      2  C   UNL     1       3.318   3.247  20.090  0.00  0.00    +0.000 A 
ATOM      3  C   UNL     1       4.460   3.755  19.467  0.00  0.00    +0.000 A 
ATOM      4  C   UNL     1       4.539   5.112  19.117  0.00  0.00    +0.000 A 
ATOM      5  C   UNL     1       3.491   5.965  19.471  0.00  0.00    +0.000 A 
ATOM      6  C   UNL     1       2.370   5.459  20.119  0.00  0.00    +0.000 A 
ATOM      7  F   UNL     1       1.388   6.302  20.469  0.00  0.00    +0.000 F 
ENDROOT
BRANCH   1   9
ATOM      8  C   UNL     1       1.461   2.350  22.005  0.00  0.00    +0.000 C 
ATOM      9  C   UNL     1       1.074   3.574  21.189  0.00  0.00    +0.000 C 
ENDBRANCH   1   9
BRANCH   3  10
ATOM     10  O   UNL     1       5.503   2.903  19.233  0.00  0.00    +0.000 OA
ATOM     11  H   UNL     1       5.865   3.070  18.348  0.00  0.00    +0.000 HD
ENDBRANCH   3  10
BRANCH   4  12
ATOM     12  O   UNL     1       5.596   5.745  18.494  0.00  0.00    +0.000 OA
BRANCH  12  13
ATOM     13  C   UNL     1       5.868   5.503  17.168  0.00  0.00    +0.000 A 
ATOM     14  C   UNL     1       5.070   5.952  16.112  0.00  0.00    +0.000 A 
ATOM     15  C   UNL     1       5.364   5.559  14.804  0.00  0.00    +0.000 A 
ATOM     16  C   UNL     1       6.505   4.793  14.540  0.00  0.00    +0.000 A 
ATOM     17  C   UNL     1       7.363   4.438  15.581  0.00  0.00    +0.000 A 
ATOM     18  C   UNL     1       7.037   4.794  16.887  0.00  0.00    +0.000 A 
ATOM     19  F   UNL     1       7.869   4.440  17.878  0.00  0.00    +0.000 F 
BRANCH  16  20
ATOM     20  C   UNL     1       6.780   4.362  13.203  0.00  0.00    +0.000 C 
ATOM     21  N   UNL     1       7.002   3.999  12.126  0.00  0.00    +0.000 NA
ENDBRANCH  16  20
ENDBRANCH  12  13
ENDBRANCH   4  12
TORSDOF 5
ENDMDL
MODEL 4
REMARK VINA RESULT:      -6.8      3.114      3.954
REMARK  Name = 
REMARK  6 active torsions:
REMARK  status: ('A' for Active; 'I' for Inactive)
REMARK    1  A    between atoms: C_1  and  C_2
REMARK    2  A    between atoms: C_2  and  C_3
REMARK    3  A    between atoms: C_5  and  O_6
REMARK    4  A    between atoms: C_7  and  O_8
REMARK    5  A    between atoms: O_8  and  C_9
REMARK    6  A    between atoms: C_12  and  C_13
REMARK                            x       y       z     vdW  Elec       q    Type
REMARK                         _______ _______ _______ _____ _____    ______ ____
ROOT
ATOM      1  C   UNL     1       2.428   4.280  20.370  0.00  0.00    +0.000 A 
ATOM      2  C   UNL     1       2.271   5.568  19.843  0.00  0.00    +0.000 A 
ATOM      3  C   UNL     1       3.306   6.163  19.118  0.00  0.00    +0.000 A 
ATOM      4  C   UNL     1       4.536   5.505  18.958  0.00  0.00    +0.000 A 
ATOM      5  C   UNL     1       4.683   4.212  19.467  0.00  0.00    +0.000 A 
ATOM      6  C   UNL     1       3.638   3.613  20.160  0.00  0.00    +0.000 A 
ATOM      7  F   UNL     1       3.797   2.364  20.618  0.00  0.00    +0.000 F 
ENDROOT
BRANCH   1   9
ATOM      8  C   UNL     1       0.482   2.757  20.074  0.00  0.00    +0.000 C 
ATOM      9  C   UNL     1       1.278   3.598  21.060  0.00  0.00    +0.000 C 
ENDBRANCH   1   9
BRANCH   3  10
ATOM     10  O   UNL     1       3.080   7.386  18.551  0.00  0.00    +0.000 OA
ATOM     11  H   UNL     1       2.368   7.311  17.895  0.00  0.00    +0.000 HD
ENDBRANCH   3  10
BRANCH   4  12
ATOM     12  O   UNL     1       5.642   5.974  18.278  0.00  0.00    +0.000 OA
BRANCH  12  13
ATOM     13  C   UNL     1       5.873   5.591  16.978  0.00  0.00    +0.000 A 
ATOM     14  C   UNL     1       5.151   6.072  15.882  0.00  0.00    +0.000 A 
ATOM     15  C   UNL     1       5.382   5.539  14.611  0.00  0.00    +0.000 A 
ATOM     16  C   UNL     1       6.392   4.592  14.419  0.00  0.00    +0.000 A 
ATOM     17  C   UNL     1       7.188   4.193  15.494  0.00  0.00    +0.000 A 
ATOM     18  C   UNL     1       6.921   4.694  16.764  0.00  0.00    +0.000 A 
ATOM     19  F   UNL     1       7.691   4.296  17.789  0.00  0.00    +0.000 F 
BRANCH  16  20
ATOM     20  C   UNL     1       6.598   4.022  13.122  0.00  0.00    +0.000 C 
ATOM     21  N   UNL     1       6.757   3.572  12.066  0.00  0.00    +0.000 NA
ENDBRANCH  16  20
ENDBRANCH  12  13
ENDBRANCH   4  12
TORSDOF 5
ENDMDL
MODEL 5
REMARK VINA RESULT:      -6.7      3.187      6.548
REMARK  Name = 
REMARK  6 active torsions:
REMARK  status: ('A' for Active; 'I' for Inactive)
REMARK    1  A    between atoms: C_1  and  C_2
REMARK    2  A    between atoms: C_2  and  C_3
REMARK    3  A    between atoms: C_5  and  O_6
REMARK    4  A    between atoms: C_7  and  O_8
REMARK    5  A    between atoms: O_8  and  C_9
REMARK    6  A    between atoms: C_12  and  C_13
REMARK                            x       y       z     vdW  Elec       q    Type
REMARK                         _______ _______ _______ _____ _____    ______ ____
ROOT
ATOM      1  C   UNL     1       7.470   7.031  18.012  0.00  0.00    +0.000 A 
ATOM      2  C   UNL     1       6.767   7.285  16.828  0.00  0.00    +0.000 A 
ATOM      3  C   UNL     1       5.638   6.528  16.504  0.00  0.00    +0.000 A 
ATOM      4  C   UNL     1       5.229   5.467  17.328  0.00  0.00    +0.000 A 
ATOM      5  C   UNL     1       5.919   5.229  18.518  0.00  0.00    +0.000 A 
ATOM      6  C   UNL     1       7.023   6.007  18.851  0.00  0.00    +0.000 A 
ATOM      7  F   UNL     1       7.654   5.773  20.010  0.00  0.00    +0.000 F 
ENDROOT
BRANCH   1   9
ATOM      8  C   UNL     1       8.325   9.367  18.084  0.00  0.00    +0.000 C 
ATOM      9  C   UNL     1       8.622   7.912  18.414  0.00  0.00    +0.000 C 
ENDBRANCH   1   9
BRANCH   3  10
ATOM     10  O   UNL     1       4.934   6.864  15.382  0.00  0.00    +0.000 OA
ATOM     11  H   UNL     1       5.544   6.962  14.634  0.00  0.00    +0.000 HD
ENDBRANCH   3  10
BRANCH   4  12
ATOM     12  O   UNL     1       4.146   4.636  17.127  0.00  0.00    +0.000 OA
BRANCH  12  13
ATOM     13  C   UNL     1       3.397   4.199  18.195  0.00  0.00    +0.000 A 
ATOM     14  C   UNL     1       2.594   5.031  18.978  0.00  0.00    +0.000 A 
ATOM     15  C   UNL     1       1.960   4.518  20.112  0.00  0.00    +0.000 A 
ATOM     16  C   UNL     1       2.055   3.155  20.414  0.00  0.00    +0.000 A 
ATOM     17  C   UNL     1       2.766   2.302  19.570  0.00  0.00    +0.000 A 
ATOM     18  C   UNL     1       3.433   2.830  18.468  0.00  0.00    +0.000 A 
ATOM     19  F   UNL     1       4.118   1.998  17.669  0.00  0.00    +0.000 F 
BRANCH  16  20
ATOM     20  C   UNL     1       1.434   2.642  21.597  0.00  0.00    +0.000 C 
ATOM     21  N   UNL     1       0.931   2.241  22.561  0.00  0.00    +0.000 NA
ENDBRANCH  16  20
ENDBRANCH  12  13
ENDBRANCH   4  12
TORSDOF 5
ENDMDL
MODEL 6
REMARK VINA RESULT:      -6.7      2.633      3.155
REMARK  Name = 
REMARK  6 active torsions:
REMARK  status: ('A' for Active; 'I' for Inactive)
REMARK    1  A    between atoms: C_1  and  C_2
REMARK    2  A    between atoms: C_2  and  C_3
REMARK    3  A    between atoms: C_5  and  O_6
REMARK    4  A    between atoms: C_7  and  O_8
REMARK    5  A    between atoms: O_8  and  C_9
REMARK    6  A    between atoms: C_12  and  C_13
REMARK                            x       y       z     vdW  Elec       q    Type
REMARK                         _______ _______ _______ _____ _____    ______ ____
ROOT
ATOM      1  C   UNL     1       2.289   3.663  20.404  0.00  0.00    +0.000 A 
ATOM      2  C   UNL     1       3.194   2.602  20.277  0.00  0.00    +0.000 A 
ATOM      3  C   UNL     1       4.459   2.819  19.724  0.00  0.00    +0.000 A 
ATOM      4  C   UNL     1       4.817   4.085  19.236  0.00  0.00    +0.000 A 
ATOM      5  C   UNL     1       3.921   5.146  19.383  0.00  0.00    +0.000 A 
ATOM      6  C   UNL     1       2.676   4.931  19.962  0.00  0.00    +0.000 A 
ATOM      7  F   UNL     1       1.843   5.971  20.112  0.00  0.00    +0.000 F 
ENDROOT
BRANCH   1   9
ATOM      8  C   UNL     1       1.108   2.456  22.233  0.00  0.00    +0.000 C 
ATOM      9  C   UNL     1       0.968   3.454  21.094  0.00  0.00    +0.000 C 
ENDBRANCH   1   9
BRANCH   3  10
ATOM     10  O   UNL     1       5.340   1.774  19.696  0.00  0.00    +0.000 OA
ATOM     11  H   UNL     1       5.595   1.542  20.604  0.00  0.00    +0.000 HD
ENDBRANCH   3  10
BRANCH   4  12
ATOM     12  O   UNL     1       6.022   4.438  18.660  0.00  0.00    +0.000 OA
BRANCH  12  13
ATOM     13  C   UNL     1       6.160   4.454  17.292  0.00  0.00    +0.000 A 
ATOM     14  C   UNL     1       5.344   3.734  16.416  0.00  0.00    +0.000 A 
ATOM     15  C   UNL     1       5.634   3.722  15.049  0.00  0.00    +0.000 A 
ATOM     16  C   UNL     1       6.682   4.499  14.546  0.00  0.00    +0.000 A 
ATOM     17  C   UNL     1       7.428   5.305  15.407  0.00  0.00    +0.000 A 
ATOM     18  C   UNL     1       7.162   5.275  16.772  0.00  0.00    +0.000 A 
ATOM     19  F   UNL     1       7.892   6.051  17.588  0.00  0.00    +0.000 F 
BRANCH  16  20
ATOM     20  C   UNL     1       6.997   4.454  13.151  0.00  0.00    +0.000 C 
ATOM     21  N   UNL     1       7.263   4.429  12.023  0.00  0.00    +0.000 NA
ENDBRANCH  16  20
ENDBRANCH  12  13
ENDBRANCH   4  12
TORSDOF 5
ENDMDL
MODEL 7
REMARK VINA RESULT:      -6.7      3.784      5.972
REMARK  Name = 
REMARK  6 active torsions:
REMARK  status: ('A' for Active; 'I' for Inactive)
REMARK    1  A    between atoms: C_1  and  C_2
REMARK    2  A    between atoms: C_2  and  C_3
REMARK    3  A    between atoms: C_5  and  O_6
REMARK    4  A    between atoms: C_7  and  O_8
REMARK    5  A    between atoms: O_8  and  C_9
REMARK    6  A    between atoms: C_12  and  C_13
REMARK                            x       y       z     vdW  Elec       q    Type
REMARK                         _______ _______ _______ _____ _____    ______ ____
ROOT
ATOM      1  C   UNL     1       5.972   4.911  16.103  0.00  0.00    +0.000 A 
ATOM      2  C   UNL     1       4.771   4.203  16.239  0.00  0.00    +0.000 A 
ATOM      3  C   UNL     1       3.851   4.563  17.227  0.00  0.00    +0.000 A 
ATOM      4  C   UNL     1       4.142   5.597  18.131  0.00  0.00    +0.000 A 
ATOM      5  C   UNL     1       5.330   6.314  17.980  0.00  0.00    +0.000 A 
ATOM      6  C   UNL     1       6.228   5.972  16.975  0.00  0.00    +0.000 A 
ATOM      7  F   UNL     1       7.350   6.691  16.837  0.00  0.00    +0.000 F 
ENDROOT
BRANCH   1   9
ATOM      8  C   UNL     1       6.186   3.871  13.851  0.00  0.00    +0.000 C 
ATOM      9  C   UNL     1       6.915   4.592  14.975  0.00  0.00    +0.000 C 
ENDBRANCH   1   9
BRANCH   3  10
ATOM     10  O   UNL     1       2.656   3.900  17.271  0.00  0.00    +0.000 OA
ATOM     11  H   UNL     1       2.146   4.204  18.039  0.00  0.00    +0.000 HD
ENDBRANCH   3  10
BRANCH   4  12
ATOM     12  O   UNL     1       3.335   6.050  19.156  0.00  0.00    +0.000 OA
BRANCH  12  13
ATOM     13  C   UNL     1       2.606   7.207  19.007  0.00  0.00    +0.000 A 
ATOM     14  C   UNL     1       2.560   7.955  17.829  0.00  0.00    +0.000 A 
ATOM     15  C   UNL     1       1.883   9.177  17.809  0.00  0.00    +0.000 A 
ATOM     16  C   UNL     1       1.179   9.610  18.937  0.00  0.00    +0.000 A 
ATOM     17  C   UNL     1       1.132   8.809  20.079  0.00  0.00    +0.000 A 
ATOM     18  C   UNL     1       1.847   7.615  20.106  0.00  0.00    +0.000 A 
ATOM     19  F   UNL     1       1.798   6.860  21.213  0.00  0.00    +0.000 F 
BRANCH  16  20
ATOM     20  C   UNL     1       0.519  10.879  18.923  0.00  0.00    +0.000 C 
ATOM     21  N   UNL     1      -0.026  11.902  18.920  0.00  0.00    +0.000 NA
ENDBRANCH  16  20
ENDBRANCH  12  13
ENDBRANCH   4  12
TORSDOF 5
ENDMDL
MODEL 8
REMARK VINA RESULT:      -6.7      4.720      6.297
REMARK  Name = 
REMARK  6 active torsions:
REMARK  status: ('A' for Active; 'I' for Inactive)
REMARK    1  A    between atoms: C_1  and  C_2
REMARK    2  A    between atoms: C_2  and  C_3
REMARK    3  A    between atoms: C_5  and  O_6
REMARK    4  A    between atoms: C_7  and  O_8
REMARK    5  A    between atoms: O_8  and  C_9
REMARK    6  A    between atoms: C_12  and  C_13
REMARK                            x       y       z     vdW  Elec       q    Type
REMARK                         _______ _______ _______ _____ _____    ______ ____
ROOT
ATOM      1  C   UNL     1       2.243   3.708  18.441  0.00  0.00    +0.000 A 
ATOM      2  C   UNL     1       2.960   4.640  17.679  0.00  0.00    +0.000 A 
ATOM      3  C   UNL     1       3.113   5.952  18.135  0.00  0.00    +0.000 A 
ATOM      4  C   UNL     1       2.504   6.369  19.328  0.00  0.00    +0.000 A 
ATOM      5  C   UNL     1       1.807   5.433  20.096  0.00  0.00    +0.000 A 
ATOM      6  C   UNL     1       1.685   4.122  19.653  0.00  0.00    +0.000 A 
ATOM      7  F   UNL     1       1.031   3.238  20.420  0.00  0.00    +0.000 F 
ENDROOT
BRANCH   1   9
ATOM      8  C   UNL     1       3.463   1.542  18.322  0.00  0.00    +0.000 C 
ATOM      9  C   UNL     1       2.166   2.271  18.004  0.00  0.00    +0.000 C 
ENDBRANCH   1   9
BRANCH   3  10
ATOM     10  O   UNL     1       3.891   6.804  17.401  0.00  0.00    +0.000 OA
ATOM     11  H   UNL     1       3.334   7.501  17.018  0.00  0.00    +0.000 HD
ENDBRANCH   3  10
BRANCH   4  12
ATOM     12  O   UNL     1       2.564   7.629  19.890  0.00  0.00    +0.000 OA
BRANCH  12  13
ATOM     13  C   UNL     1       1.545   8.530  19.686  0.00  0.00    +0.000 A 
ATOM     14  C   UNL     1       1.227   9.082  18.443  0.00  0.00    +0.000 A 
ATOM     15  C   UNL     1       0.249  10.076  18.354  0.00  0.00    +0.000 A 
ATOM     16  C   UNL     1      -0.474  10.454  19.490  0.00  0.00    +0.000 A 
ATOM     17  C   UNL     1      -0.234   9.823  20.711  0.00  0.00    +0.000 A 
ATOM     18  C   UNL     1       0.774   8.868  20.800  0.00  0.00    +0.000 A 
ATOM     19  F   UNL     1       0.997   8.275  21.983  0.00  0.00    +0.000 F 
BRANCH  16  20
ATOM     20  C   UNL     1      -1.448  11.499  19.401  0.00  0.00    +0.000 C 
ATOM     21  N   UNL     1      -2.246  12.335  19.320  0.00  0.00    +0.000 NA
ENDBRANCH  16  20
ENDBRANCH  12  13
ENDBRANCH   4  12
TORSDOF 5
ENDMDL
MODEL 9
REMARK VINA RESULT:      -6.6      3.106      3.862
REMARK  Name = 
REMARK  6 active torsions:
REMARK  status: ('A' for Active; 'I' for Inactive)
REMARK    1  A    between atoms: C_1  and  C_2
REMARK    2  A    between atoms: C_2  and  C_3
REMARK    3  A    between atoms: C_5  and  O_6
REMARK    4  A    between atoms: C_7  and  O_8
REMARK    5  A    between atoms: O_8  and  C_9
REMARK    6  A    between atoms: C_12  and  C_13
REMARK                            x       y       z     vdW  Elec       q    Type
REMARK                         _______ _______ _______ _____ _____    ______ ____
ROOT
ATOM      1  C   UNL     1       1.662   7.464  20.215  0.00  0.00    +0.000 A 
ATOM      2  C   UNL     1       1.565   6.316  21.011  0.00  0.00    +0.000 A 
ATOM      3  C   UNL     1       2.319   5.181  20.703  0.00  0.00    +0.000 A 
ATOM      4  C   UNL     1       3.138   5.154  19.563  0.00  0.00    +0.000 A 
ATOM      5  C   UNL     1       3.248   6.307  18.783  0.00  0.00    +0.000 A 
ATOM      6  C   UNL     1       2.519   7.444  19.112  0.00  0.00    +0.000 A 
ATOM      7  F   UNL     1       2.662   8.545  18.360  0.00  0.00    +0.000 F 
ENDROOT
BRANCH   1   9
ATOM      8  C   UNL     1      -0.137   8.419  21.645  0.00  0.00    +0.000 C 
ATOM      9  C   UNL     1       0.931   8.720  20.604  0.00  0.00    +0.000 C 
ENDBRANCH   1   9
BRANCH   3  10
ATOM     10  O   UNL     1       2.258   4.112  21.554  0.00  0.00    +0.000 OA
ATOM     11  H   UNL     1       1.586   4.279  22.235  0.00  0.00    +0.000 HD
ENDBRANCH   3  10
BRANCH   4  12
ATOM     12  O   UNL     1       3.926   4.105  19.136  0.00  0.00    +0.000 OA
BRANCH  12  13
ATOM     13  C   UNL     1       4.803   4.275  18.090  0.00  0.00    +0.000 A 
ATOM     14  C   UNL     1       6.130   4.684  18.241  0.00  0.00    +0.000 A 
ATOM     15  C   UNL     1       6.910   4.939  17.110  0.00  0.00    +0.000 A 
ATOM     16  C   UNL     1       6.395   4.701  15.832  0.00  0.00    +0.000 A 
ATOM     17  C   UNL     1       5.107   4.187  15.684  0.00  0.00    +0.000 A 
ATOM     18  C   UNL     1       4.320   3.979  16.813  0.00  0.00    +0.000 A 
ATOM     19  F   UNL     1       3.081   3.491  16.654  0.00  0.00    +0.000 F 
BRANCH  16  20
ATOM     20  C   UNL     1       7.187   5.000  14.678  0.00  0.00    +0.000 C 
ATOM     21  N   UNL     1       7.827   5.258  13.747  0.00  0.00    +0.000 NA
ENDBRANCH  16  20
ENDBRANCH  12  13
ENDBRANCH   4  12
TORSDOF 5
ENDMDL
