MODEL 1
REMARK VINA RESULT:      -8.4      0.000      0.000
REMARK  Name = 
REMARK  4 active torsions:
REMARK  status: ('A' for Active; 'I' for Inactive)
REMARK    1  A    between atoms: C_1  and  C_2
REMARK    2  A    between atoms: N_13  and  S_14
REMARK    3  A    between atoms: S_14  and  C_17
REMARK    4  A    between atoms: C_22  and  C_23
REMARK                            x       y       z     vdW  Elec       q    Type
REMARK                         _______ _______ _______ _____ _____    ______ ____
ROOT
ATOM      1  C   UNL     1       6.346   5.246  19.434  0.00  0.00    +0.000 C 
ATOM      2  C   UNL     1       6.718   5.040  17.973  0.00  0.00    +0.000 C 
ATOM      3  C   UNL     1       7.431   6.296  17.444  0.00  0.00    +0.000 C 
ATOM      4  O   UNL     1       7.825   7.220  18.151  0.00  0.00    +0.000 OA
ATOM      5  N   UNL     1       7.706   6.293  16.098  0.00  0.00    +0.000 N 
ATOM      6  C   UNL     1       7.117   5.387  15.205  0.00  0.00    +0.000 A 
ATOM      7  C   UNL     1       7.561   5.375  13.881  0.00  0.00    +0.000 A 
ATOM      8  C   UNL     1       6.951   4.530  12.960  0.00  0.00    +0.000 A 
ATOM      9  C   UNL     1       5.916   3.693  13.373  0.00  0.00    +0.000 A 
ATOM     10 CL   UNL     1       5.136   2.683  12.216  0.00  0.00    +0.000 Cl
ATOM     11  C   UNL     1       5.490   3.680  14.704  0.00  0.00    +0.000 A 
ATOM     12  C   UNL     1       6.061   4.552  15.635  0.00  0.00    +0.000 A 
ATOM     13  N   UNL     1       5.617   4.706  17.014  0.00  0.00    +0.000 N 
ATOM     14  H   UNL     1       8.295   7.042  15.758  0.00  0.00    +0.000 HD
ENDROOT
BRANCH  13  15
ATOM     15  S   UNL     1       4.104   4.193  17.523  0.00  0.00    +0.000 S 
ATOM     16  O   UNL     1       3.263   3.794  16.411  0.00  0.00    +0.000 OA
ATOM     17  O   UNL     1       4.290   3.302  18.653  0.00  0.00    +0.000 OA
BRANCH  15  18
ATOM     18  C   UNL     1       3.177   5.512  18.171  0.00  0.00    +0.000 A 
ATOM     19  C   UNL     1       3.224   6.821  17.579  0.00  0.00    +0.000 A 
ATOM     20  C   UNL     1       2.542   7.732  18.336  0.00  0.00    +0.000 A 
ATOM     21 CL   UNL     1       2.426   9.420  18.049  0.00  0.00    +0.000 Cl
ATOM     22  S   UNL     1       1.779   7.054  19.677  0.00  0.00    +0.000 S 
ATOM     23  C   UNL     1       2.401   5.480  19.322  0.00  0.00    +0.000 A 
BRANCH  23  24
ATOM     24  C   UNL     1       2.110   4.394  20.215  0.00  0.00    +0.000 A 
ATOM     25  C   UNL     1       2.509   4.181  21.527  0.00  0.00    +0.000 A 
ATOM     26  N   UNL     1       2.013   2.994  22.007  0.00  0.00    +0.000 NA
ATOM     27  C   UNL     1       1.350   2.514  20.984  0.00  0.00    +0.000 A 
ATOM     28  O   UNL     1       1.349   3.300  19.876  0.00  0.00    +0.000 OA
ENDBRANCH  23  24
ENDBRANCH  15  18
ENDBRANCH  13  15
TORSDOF 3
ENDMDL
MODEL 2
REMARK VINA RESULT:      -7.0      9.087     12.069
REMARK  Name = 
REMARK  4 active torsions:
REMARK  status: ('A' for Active; 'I' for Inactive)
REMARK    1  A    between atoms: C_1  and  C_2
REMARK    2  A    between atoms: N_13  and  S_14
REMARK    3  A    between atoms: S_14  and  C_17
REMARK    4  A    between atoms: C_22  and  C_23
REMARK                            x       y       z     vdW  Elec       q    Type
REMARK                         _______ _______ _______ _____ _____    ______ ____
ROOT
ATOM      1  C   UNL     1      -1.686  10.436  17.400  0.00  0.00    +0.000 C 
ATOM      2  C   UNL     1      -3.094  10.699  17.913  0.00  0.00    +0.000 C 
ATOM      3  C   UNL     1      -4.042  10.916  16.722  0.00  0.00    +0.000 C 
ATOM      4  O   UNL     1      -3.745  10.695  15.550  0.00  0.00    +0.000 OA
ATOM      5  N   UNL     1      -5.322  11.293  17.049  0.00  0.00    +0.000 N 
ATOM      6  C   UNL     1      -5.673  11.757  18.324  0.00  0.00    +0.000 A 
ATOM      7  C   UNL     1      -7.023  11.988  18.598  0.00  0.00    +0.000 A 
ATOM      8  C   UNL     1      -7.394  12.507  19.835  0.00  0.00    +0.000 A 
ATOM      9  C   UNL     1      -6.416  12.776  20.790  0.00  0.00    +0.000 A 
ATOM     10 CL   UNL     1      -6.879  13.462  22.300  0.00  0.00    +0.000 Cl
ATOM     11  C   UNL     1      -5.066  12.518  20.530  0.00  0.00    +0.000 A 
ATOM     12  C   UNL     1      -4.671  12.036  19.280  0.00  0.00    +0.000 A 
ATOM     13  N   UNL     1      -3.288  11.843  18.861  0.00  0.00    +0.000 N 
ATOM     14  H   UNL     1      -5.994  11.305  16.293  0.00  0.00    +0.000 HD
ENDROOT
BRANCH  13  15
ATOM     15  S   UNL     1      -2.008  12.586  19.651  0.00  0.00    +0.000 S 
ATOM     16  O   UNL     1      -0.902  12.858  18.754  0.00  0.00    +0.000 OA
ATOM     17  O   UNL     1      -2.550  13.644  20.483  0.00  0.00    +0.000 OA
BRANCH  15  18
ATOM     18  C   UNL     1      -1.251  11.503  20.779  0.00  0.00    +0.000 A 
ATOM     19  C   UNL     1      -0.388  10.444  20.335  0.00  0.00    +0.000 A 
ATOM     20  C   UNL     1      -0.028   9.630  21.371  0.00  0.00    +0.000 A 
ATOM     21 CL   UNL     1       0.910   8.196  21.270  0.00  0.00    +0.000 Cl
ATOM     22  S   UNL     1      -0.615  10.145  22.865  0.00  0.00    +0.000 S 
ATOM     23  C   UNL     1      -1.451  11.481  22.152  0.00  0.00    +0.000 A 
BRANCH  23  24
ATOM     24  C   UNL     1      -2.245  12.336  22.989  0.00  0.00    +0.000 A 
ATOM     25  C   UNL     1      -1.975  13.601  23.491  0.00  0.00    +0.000 A 
ATOM     26  N   UNL     1      -3.010  14.055  24.270  0.00  0.00    +0.000 NA
ATOM     27  C   UNL     1      -3.864  13.061  24.238  0.00  0.00    +0.000 A 
ATOM     28  O   UNL     1      -3.484  11.999  23.482  0.00  0.00    +0.000 OA
ENDBRANCH  23  24
ENDBRANCH  15  18
ENDBRANCH  13  15
TORSDOF 3
ENDMDL
MODEL 3
REMARK VINA RESULT:      -6.8      6.153      8.363
REMARK  Name = 
REMARK  4 active torsions:
REMARK  status: ('A' for Active; 'I' for Inactive)
REMARK    1  A    between atoms: C_1  and  C_2
REMARK    2  A    between atoms: N_13  and  S_14
REMARK    3  A    between atoms: S_14  and  C_17
REMARK    4  A    between atoms: C_22  and  C_23
REMARK                            x       y       z     vdW  Elec       q    Type
REMARK                         _______ _______ _______ _____ _____    ______ ____
ROOT
ATOM      1  C   UNL     1       1.051  12.830  20.846  0.00  0.00    +0.000 C 
ATOM      2  C   UNL     1       1.625  11.594  20.169  0.00  0.00    +0.000 C 
ATOM      3  C   UNL     1       1.608  11.789  18.644  0.00  0.00    +0.000 C 
ATOM      4  O   UNL     1       1.371  12.857  18.084  0.00  0.00    +0.000 OA
ATOM      5  N   UNL     1       1.981  10.692  17.905  0.00  0.00    +0.000 N 
ATOM      6  C   UNL     1       2.063   9.404  18.450  0.00  0.00    +0.000 A 
ATOM      7  C   UNL     1       2.580   8.378  17.656  0.00  0.00    +0.000 A 
ATOM      8  C   UNL     1       2.615   7.078  18.150  0.00  0.00    +0.000 A 
ATOM      9  C   UNL     1       2.151   6.818  19.437  0.00  0.00    +0.000 A 
ATOM     10 CL   UNL     1       2.156   5.199  20.024  0.00  0.00    +0.000 Cl
ATOM     11  C   UNL     1       1.661   7.847  20.247  0.00  0.00    +0.000 A 
ATOM     12  C   UNL     1       1.578   9.152  19.754  0.00  0.00    +0.000 A 
ATOM     13  N   UNL     1       0.980  10.275  20.464  0.00  0.00    +0.000 N 
ATOM     14  H   UNL     1       2.110  10.842  16.913  0.00  0.00    +0.000 HD
ENDROOT
BRANCH  13  15
ATOM     15  S   UNL     1      -0.070  10.053  21.753  0.00  0.00    +0.000 S 
ATOM     16  O   UNL     1      -0.868   8.851  21.603  0.00  0.00    +0.000 OA
ATOM     17  O   UNL     1       0.671  10.287  22.978  0.00  0.00    +0.000 OA
BRANCH  15  18
ATOM     18  C   UNL     1      -1.313  11.266  21.769  0.00  0.00    +0.000 A 
ATOM     19  C   UNL     1      -1.752  11.872  22.997  0.00  0.00    +0.000 A 
ATOM     20  C   UNL     1      -2.833  12.681  22.792  0.00  0.00    +0.000 A 
ATOM     21 CL   UNL     1      -3.729  13.518  23.993  0.00  0.00    +0.000 Cl
ATOM     22  S   UNL     1      -3.280  12.807  21.172  0.00  0.00    +0.000 S 
ATOM     23  C   UNL     1      -2.048  11.700  20.674  0.00  0.00    +0.000 A 
BRANCH  23  24
ATOM     24  C   UNL     1      -1.950  11.338  19.288  0.00  0.00    +0.000 A 
ATOM     25  C   UNL     1      -2.031  12.124  18.148  0.00  0.00    +0.000 A 
ATOM     26  N   UNL     1      -1.901  11.364  17.013  0.00  0.00    +0.000 NA
ATOM     27  C   UNL     1      -1.765  10.148  17.484  0.00  0.00    +0.000 A 
ATOM     28  O   UNL     1      -1.772  10.051  18.838  0.00  0.00    +0.000 OA
ENDBRANCH  23  24
ENDBRANCH  15  18
ENDBRANCH  13  15
TORSDOF 3
ENDMDL
MODEL 4
REMARK VINA RESULT:      -6.7      3.020      6.483
REMARK  Name = 
REMARK  4 active torsions:
REMARK  status: ('A' for Active; 'I' for Inactive)
REMARK    1  A    between atoms: C_1  and  C_2
REMARK    2  A    between atoms: N_13  and  S_14
REMARK    3  A    between atoms: S_14  and  C_17
REMARK    4  A    between atoms: C_22  and  C_23
REMARK                            x       y       z     vdW  Elec       q    Type
REMARK                         _______ _______ _______ _____ _____    ______ ____
ROOT
ATOM      1  C   UNL     1       2.368   8.682  18.088  0.00  0.00    +0.000 C 
ATOM      2  C   UNL     1       2.136   7.290  18.658  0.00  0.00    +0.000 C 
ATOM      3  C   UNL     1       1.874   7.391  20.170  0.00  0.00    +0.000 C 
ATOM      4  O   UNL     1       1.671   8.445  20.768  0.00  0.00    +0.000 OA
ATOM      5  N   UNL     1       1.777   6.192  20.832  0.00  0.00    +0.000 N 
ATOM      6  C   UNL     1       2.195   4.979  20.269  0.00  0.00    +0.000 A 
ATOM      7  C   UNL     1       1.932   3.797  20.966  0.00  0.00    +0.000 A 
ATOM      8  C   UNL     1       2.390   2.584  20.460  0.00  0.00    +0.000 A 
ATOM      9  C   UNL     1       3.090   2.562  19.256  0.00  0.00    +0.000 A 
ATOM     10 CL   UNL     1       3.693   1.063  18.660  0.00  0.00    +0.000 Cl
ATOM     11  C   UNL     1       3.328   3.738  18.539  0.00  0.00    +0.000 A 
ATOM     12  C   UNL     1       2.913   4.970  19.052  0.00  0.00    +0.000 A 
ATOM     13  N   UNL     1       3.209   6.265  18.452  0.00  0.00    +0.000 N 
ATOM     14  H   UNL     1       1.468   6.234  21.795  0.00  0.00    +0.000 HD
ENDROOT
BRANCH  13  15
ATOM     15  S   UNL     1       4.445   6.465  17.335  0.00  0.00    +0.000 S 
ATOM     16  O   UNL     1       4.186   5.743  16.104  0.00  0.00    +0.000 OA
ATOM     17  O   UNL     1       4.787   7.874  17.296  0.00  0.00    +0.000 OA
BRANCH  15  18
ATOM     18  C   UNL     1       5.905   5.687  17.865  0.00  0.00    +0.000 A 
ATOM     19  C   UNL     1       6.339   5.762  19.233  0.00  0.00    +0.000 A 
ATOM     20  C   UNL     1       7.579   5.212  19.390  0.00  0.00    +0.000 A 
ATOM     21 CL   UNL     1       8.508   5.177  20.833  0.00  0.00    +0.000 Cl
ATOM     22  S   UNL     1       8.197   4.532  17.977  0.00  0.00    +0.000 S 
ATOM     23  C   UNL     1       6.816   5.019  17.058  0.00  0.00    +0.000 A 
BRANCH  23  24
ATOM     24  C   UNL     1       6.780   4.742  15.649  0.00  0.00    +0.000 A 
ATOM     25  C   UNL     1       6.133   3.733  14.950  0.00  0.00    +0.000 A 
ATOM     26  N   UNL     1       6.381   3.828  13.603  0.00  0.00    +0.000 NA
ATOM     27  C   UNL     1       7.176   4.867  13.520  0.00  0.00    +0.000 A 
ATOM     28  O   UNL     1       7.453   5.477  14.701  0.00  0.00    +0.000 OA
ENDBRANCH  23  24
ENDBRANCH  15  18
ENDBRANCH  13  15
TORSDOF 3
ENDMDL
MODEL 5
REMARK VINA RESULT:      -6.6      2.241      3.219
REMARK  Name = 
REMARK  4 active torsions:
REMARK  status: ('A' for Active; 'I' for Inactive)
REMARK    1  A    between atoms: C_1  and  C_2
REMARK    2  A    between atoms: N_13  and  S_14
REMARK    3  A    between atoms: S_14  and  C_17
REMARK    4  A    between atoms: C_22  and  C_23
REMARK                            x       y       z     vdW  Elec       q    Type
REMARK                         _______ _______ _______ _____ _____    ______ ____
ROOT
ATOM      1  C   UNL     1       5.873   4.306  19.487  0.00  0.00    +0.000 C 
ATOM      2  C   UNL     1       6.369   4.363  18.049  0.00  0.00    +0.000 C 
ATOM      3  C   UNL     1       7.017   5.733  17.784  0.00  0.00    +0.000 C 
ATOM      4  O   UNL     1       7.281   6.556  18.657  0.00  0.00    +0.000 OA
ATOM      5  N   UNL     1       7.392   5.965  16.483  0.00  0.00    +0.000 N 
ATOM      6  C   UNL     1       6.946   5.176  15.413  0.00  0.00    +0.000 A 
ATOM      7  C   UNL     1       7.487   5.407  14.147  0.00  0.00    +0.000 A 
ATOM      8  C   UNL     1       7.018   4.681  13.056  0.00  0.00    +0.000 A 
ATOM      9  C   UNL     1       6.026   3.722  13.244  0.00  0.00    +0.000 A 
ATOM     10 CL   UNL     1       5.419   2.860  11.882  0.00  0.00    +0.000 Cl
ATOM     11  C   UNL     1       5.503   3.466  14.515  0.00  0.00    +0.000 A 
ATOM     12  C   UNL     1       5.931   4.213  15.615  0.00  0.00    +0.000 A 
ATOM     13  N   UNL     1       5.374   4.114  16.958  0.00  0.00    +0.000 N 
ATOM     14  H   UNL     1       7.942   6.797  16.315  0.00  0.00    +0.000 HD
ENDROOT
BRANCH  13  15
ATOM     15  S   UNL     1       3.872   3.425  17.248  0.00  0.00    +0.000 S 
ATOM     16  O   UNL     1       2.856   3.943  16.353  0.00  0.00    +0.000 OA
ATOM     17  O   UNL     1       4.057   1.993  17.391  0.00  0.00    +0.000 OA
BRANCH  15  18
ATOM     18  C   UNL     1       3.236   3.927  18.785  0.00  0.00    +0.000 A 
ATOM     19  C   UNL     1       2.939   2.974  19.819  0.00  0.00    +0.000 A 
ATOM     20  C   UNL     1       2.310   3.570  20.876  0.00  0.00    +0.000 A 
ATOM     21 CL   UNL     1       1.696   2.788  22.275  0.00  0.00    +0.000 Cl
ATOM     22  S   UNL     1       2.147   5.238  20.707  0.00  0.00    +0.000 S 
ATOM     23  C   UNL     1       2.875   5.220  19.138  0.00  0.00    +0.000 A 
BRANCH  23  24
ATOM     24  C   UNL     1       2.980   6.448  18.401  0.00  0.00    +0.000 A 
ATOM     25  C   UNL     1       2.062   7.475  18.236  0.00  0.00    +0.000 A 
ATOM     26  N   UNL     1       2.568   8.465  17.430  0.00  0.00    +0.000 NA
ATOM     27  C   UNL     1       3.757   8.012  17.115  0.00  0.00    +0.000 A 
ATOM     28  O   UNL     1       4.083   6.815  17.667  0.00  0.00    +0.000 OA
ENDBRANCH  23  24
ENDBRANCH  15  18
ENDBRANCH  13  15
TORSDOF 3
ENDMDL
MODEL 6
REMARK VINA RESULT:      -6.6      9.648     11.162
REMARK  Name = 
REMARK  4 active torsions:
REMARK  status: ('A' for Active; 'I' for Inactive)
REMARK    1  A    between atoms: C_1  and  C_2
REMARK    2  A    between atoms: N_13  and  S_14
REMARK    3  A    between atoms: S_14  and  C_17
REMARK    4  A    between atoms: C_22  and  C_23
REMARK                            x       y       z     vdW  Elec       q    Type
REMARK                         _______ _______ _______ _____ _____    ______ ____
ROOT
ATOM      1  C   UNL     1       9.216  18.324  18.914  0.00  0.00    +0.000 C 
ATOM      2  C   UNL     1       9.826  16.948  18.689  0.00  0.00    +0.000 C 
ATOM      3  C   UNL     1      10.921  17.041  17.613  0.00  0.00    +0.000 C 
ATOM      4  O   UNL     1      11.372  18.096  17.173  0.00  0.00    +0.000 OA
ATOM      5  N   UNL     1      11.465  15.842  17.221  0.00  0.00    +0.000 N 
ATOM      6  C   UNL     1      10.873  14.608  17.519  0.00  0.00    +0.000 A 
ATOM      7  C   UNL     1      11.569  13.441  17.194  0.00  0.00    +0.000 A 
ATOM      8  C   UNL     1      10.978  12.202  17.422  0.00  0.00    +0.000 A 
ATOM      9  C   UNL     1       9.706  12.140  17.987  0.00  0.00    +0.000 A 
ATOM     10 CL   UNL     1       8.963  10.604  18.223  0.00  0.00    +0.000 Cl
ATOM     11  C   UNL     1       9.018  13.304  18.342  0.00  0.00    +0.000 A 
ATOM     12  C   UNL     1       9.577  14.558  18.082  0.00  0.00    +0.000 A 
ATOM     13  N   UNL     1       8.904  15.832  18.301  0.00  0.00    +0.000 N 
ATOM     14  H   UNL     1      12.278  15.893  16.621  0.00  0.00    +0.000 HD
ENDROOT
BRANCH  13  15
ATOM     15  S   UNL     1       7.238  15.940  18.466  0.00  0.00    +0.000 S 
ATOM     16  O   UNL     1       6.781  17.316  18.461  0.00  0.00    +0.000 OA
ATOM     17  O   UNL     1       6.637  14.968  17.573  0.00  0.00    +0.000 OA
BRANCH  15  18
ATOM     18  C   UNL     1       6.729  15.436  20.049  0.00  0.00    +0.000 A 
ATOM     19  C   UNL     1       7.679  15.197  21.100  0.00  0.00    +0.000 A 
ATOM     20  C   UNL     1       7.074  14.667  22.204  0.00  0.00    +0.000 A 
ATOM     21 CL   UNL     1       7.847  14.144  23.644  0.00  0.00    +0.000 Cl
ATOM     22  S   UNL     1       5.401  14.530  22.053  0.00  0.00    +0.000 S 
ATOM     23  C   UNL     1       5.429  15.134  20.433  0.00  0.00    +0.000 A 
BRANCH  23  24
ATOM     24  C   UNL     1       4.201  15.210  19.693  0.00  0.00    +0.000 A 
ATOM     25  C   UNL     1       3.309  16.263  19.543  0.00  0.00    +0.000 A 
ATOM     26  N   UNL     1       2.244  15.899  18.757  0.00  0.00    +0.000 NA
ATOM     27  C   UNL     1       2.502  14.647  18.469  0.00  0.00    +0.000 A 
ATOM     28  O   UNL     1       3.662  14.164  18.982  0.00  0.00    +0.000 OA
ENDBRANCH  23  24
ENDBRANCH  15  18
ENDBRANCH  13  15
TORSDOF 3
ENDMDL
MODEL 7
REMARK VINA RESULT:      -6.6      8.298     10.897
REMARK  Name = 
REMARK  4 active torsions:
REMARK  status: ('A' for Active; 'I' for Inactive)
REMARK    1  A    between atoms: C_1  and  C_2
REMARK    2  A    between atoms: N_13  and  S_14
REMARK    3  A    between atoms: S_14  and  C_17
REMARK    4  A    between atoms: C_22  and  C_23
REMARK                            x       y       z     vdW  Elec       q    Type
REMARK                         _______ _______ _______ _____ _____    ______ ____
ROOT
ATOM      1  C   UNL     1       0.386  10.436  21.079  0.00  0.00    +0.000 C 
ATOM      2  C   UNL     1      -0.585  10.306  19.915  0.00  0.00    +0.000 C 
ATOM      3  C   UNL     1       0.201  10.074  18.613  0.00  0.00    +0.000 C 
ATOM      4  O   UNL     1       1.401   9.818  18.565  0.00  0.00    +0.000 OA
ATOM      5  N   UNL     1      -0.552  10.068  17.464  0.00  0.00    +0.000 N 
ATOM      6  C   UNL     1      -1.867  10.548  17.417  0.00  0.00    +0.000 A 
ATOM      7  C   UNL     1      -2.595  10.377  16.237  0.00  0.00    +0.000 A 
ATOM      8  C   UNL     1      -3.881  10.899  16.141  0.00  0.00    +0.000 A 
ATOM      9  C   UNL     1      -4.434  11.571  17.230  0.00  0.00    +0.000 A 
ATOM     10 CL   UNL     1      -6.009  12.253  17.087  0.00  0.00    +0.000 Cl
ATOM     11  C   UNL     1      -3.721  11.717  18.423  0.00  0.00    +0.000 A 
ATOM     12  C   UNL     1      -2.412  11.238  18.524  0.00  0.00    +0.000 A 
ATOM     13  N   UNL     1      -1.538  11.437  19.672  0.00  0.00    +0.000 N 
ATOM     14  H   UNL     1      -0.077   9.780  16.618  0.00  0.00    +0.000 HD
ENDROOT
BRANCH  13  15
ATOM     15  S   UNL     1      -1.829  12.631  20.814  0.00  0.00    +0.000 S 
ATOM     16  O   UNL     1      -2.933  13.489  20.432  0.00  0.00    +0.000 OA
ATOM     17  O   UNL     1      -1.808  12.009  22.125  0.00  0.00    +0.000 OA
BRANCH  15  18
ATOM     18  C   UNL     1      -0.529  13.781  20.868  0.00  0.00    +0.000 A 
ATOM     19  C   UNL     1       0.518  13.773  19.884  0.00  0.00    +0.000 A 
ATOM     20  C   UNL     1       1.508  14.659  20.205  0.00  0.00    +0.000 A 
ATOM     21 CL   UNL     1       2.981  14.900  19.359  0.00  0.00    +0.000 Cl
ATOM     22  S   UNL     1       1.180  15.557  21.593  0.00  0.00    +0.000 S 
ATOM     23  C   UNL     1      -0.312  14.726  21.862  0.00  0.00    +0.000 A 
BRANCH  23  24
ATOM     24  C   UNL     1      -1.092  15.046  23.025  0.00  0.00    +0.000 A 
ATOM     25  C   UNL     1      -2.260  15.785  23.145  0.00  0.00    +0.000 A 
ATOM     26  N   UNL     1      -2.665  15.860  24.454  0.00  0.00    +0.000 NA
ATOM     27  C   UNL     1      -1.735  15.190  25.091  0.00  0.00    +0.000 A 
ATOM     28  O   UNL     1      -0.764  14.661  24.303  0.00  0.00    +0.000 OA
ENDBRANCH  23  24
ENDBRANCH  15  18
ENDBRANCH  13  15
TORSDOF 3
ENDMDL
MODEL 8
REMARK VINA RESULT:      -6.6      8.180     10.694
REMARK  Name = 
REMARK  4 active torsions:
REMARK  status: ('A' for Active; 'I' for Inactive)
REMARK    1  A    between atoms: C_1  and  C_2
REMARK    2  A    between atoms: N_13  and  S_14
REMARK    3  A    between atoms: S_14  and  C_17
REMARK    4  A    between atoms: C_22  and  C_23
REMARK                            x       y       z     vdW  Elec       q    Type
REMARK                         _______ _______ _______ _____ _____    ______ ____
ROOT
ATOM      1  C   UNL     1       0.877   9.997  20.994  0.00  0.00    +0.000 C 
ATOM      2  C   UNL     1      -0.230  10.073  19.952  0.00  0.00    +0.000 C 
ATOM      3  C   UNL     1       0.384   9.998  18.544  0.00  0.00    +0.000 C 
ATOM      4  O   UNL     1       1.555   9.705  18.313  0.00  0.00    +0.000 OA
ATOM      5  N   UNL     1      -0.497  10.187  17.507  0.00  0.00    +0.000 N 
ATOM      6  C   UNL     1      -1.780  10.720  17.689  0.00  0.00    +0.000 A 
ATOM      7  C   UNL     1      -2.649  10.748  16.596  0.00  0.00    +0.000 A 
ATOM      8  C   UNL     1      -3.906  11.328  16.733  0.00  0.00    +0.000 A 
ATOM      9  C   UNL     1      -4.289  11.859  17.963  0.00  0.00    +0.000 A 
ATOM     10 CL   UNL     1      -5.829  12.616  18.111  0.00  0.00    +0.000 Cl
ATOM     11  C   UNL     1      -3.434  11.805  19.068  0.00  0.00    +0.000 A 
ATOM     12  C   UNL     1      -2.152  11.265  18.939  0.00  0.00    +0.000 A 
ATOM     13  N   UNL     1      -1.139  11.263  19.987  0.00  0.00    +0.000 N 
ATOM     14  H   UNL     1      -0.142  10.004  16.577  0.00  0.00    +0.000 HD
ENDROOT
BRANCH  13  15
ATOM     15  S   UNL     1      -1.227  12.292  21.309  0.00  0.00    +0.000 S 
ATOM     16  O   UNL     1      -2.488  12.164  22.013  0.00  0.00    +0.000 OA
ATOM     17  O   UNL     1       0.026  12.195  22.034  0.00  0.00    +0.000 OA
BRANCH  15  18
ATOM     18  C   UNL     1      -1.302  13.954  20.810  0.00  0.00    +0.000 A 
ATOM     19  C   UNL     1      -2.429  14.783  21.137  0.00  0.00    +0.000 A 
ATOM     20  C   UNL     1      -2.347  15.999  20.519  0.00  0.00    +0.000 A 
ATOM     21 CL   UNL     1      -3.521  17.250  20.558  0.00  0.00    +0.000 Cl
ATOM     22  S   UNL     1      -0.926  16.208  19.636  0.00  0.00    +0.000 S 
ATOM     23  C   UNL     1      -0.380  14.610  20.006  0.00  0.00    +0.000 A 
BRANCH  23  24
ATOM     24  C   UNL     1       0.859  14.146  19.445  0.00  0.00    +0.000 A 
ATOM     25  C   UNL     1       2.166  14.370  19.852  0.00  0.00    +0.000 A 
ATOM     26  N   UNL     1       3.057  13.748  19.013  0.00  0.00    +0.000 NA
ATOM     27  C   UNL     1       2.281  13.186  18.119  0.00  0.00    +0.000 A 
ATOM     28  O   UNL     1       0.950  13.368  18.315  0.00  0.00    +0.000 OA
ENDBRANCH  23  24
ENDBRANCH  15  18
ENDBRANCH  13  15
TORSDOF 3
ENDMDL
MODEL 9
REMARK VINA RESULT:      -6.4      8.258     10.790
REMARK  Name = 
REMARK  4 active torsions:
REMARK  status: ('A' for Active; 'I' for Inactive)
REMARK    1  A    between atoms: C_1  and  C_2
REMARK    2  A    between atoms: N_13  and  S_14
REMARK    3  A    between atoms: S_14  and  C_17
REMARK    4  A    between atoms: C_22  and  C_23
REMARK                            x       y       z     vdW  Elec       q    Type
REMARK                         _______ _______ _______ _____ _____    ______ ____
ROOT
ATOM      1  C   UNL     1       3.102  13.012  18.300  0.00  0.00    +0.000 C 
ATOM      2  C   UNL     1       2.346  14.311  18.063  0.00  0.00    +0.000 C 
ATOM      3  C   UNL     1       3.345  15.475  17.953  0.00  0.00    +0.000 C 
ATOM      4  O   UNL     1       4.562  15.336  17.857  0.00  0.00    +0.000 OA
ATOM      5  N   UNL     1       2.785  16.726  17.867  0.00  0.00    +0.000 N 
ATOM      6  C   UNL     1       1.441  16.978  18.173  0.00  0.00    +0.000 A 
ATOM      7  C   UNL     1       0.931  18.255  17.927  0.00  0.00    +0.000 A 
ATOM      8  C   UNL     1      -0.382  18.550  18.278  0.00  0.00    +0.000 A 
ATOM      9  C   UNL     1      -1.178  17.563  18.857  0.00  0.00    +0.000 A 
ATOM     10 CL   UNL     1      -2.788  17.950  19.331  0.00  0.00    +0.000 Cl
ATOM     11  C   UNL     1      -0.681  16.275  19.077  0.00  0.00    +0.000 A 
ATOM     12  C   UNL     1       0.648  15.972  18.769  0.00  0.00    +0.000 A 
ATOM     13  N   UNL     1       1.302  14.703  19.064  0.00  0.00    +0.000 N 
ATOM     14  H   UNL     1       3.417  17.487  17.656  0.00  0.00    +0.000 HD
ENDROOT
BRANCH  13  15
ATOM     15  S   UNL     1       0.686  13.626  20.192  0.00  0.00    +0.000 S 
ATOM     16  O   UNL     1       1.732  12.846  20.825  0.00  0.00    +0.000 OA
ATOM     17  O   UNL     1      -0.286  14.336  21.003  0.00  0.00    +0.000 OA
BRANCH  15  18
ATOM     18  C   UNL     1      -0.236  12.369  19.426  0.00  0.00    +0.000 A 
ATOM     19  C   UNL     1      -0.840  12.565  18.137  0.00  0.00    +0.000 A 
ATOM     20  C   UNL     1      -1.638  11.509  17.797  0.00  0.00    +0.000 A 
ATOM     21 CL   UNL     1      -2.618  11.374  16.395  0.00  0.00    +0.000 Cl
ATOM     22  S   UNL     1      -1.615  10.259  18.928  0.00  0.00    +0.000 S 
ATOM     23  C   UNL     1      -0.555  11.136  19.977  0.00  0.00    +0.000 A 
BRANCH  23  24
ATOM     24  C   UNL     1      -0.181  10.557  21.237  0.00  0.00    +0.000 A 
ATOM     25  C   UNL     1      -0.651  10.815  22.516  0.00  0.00    +0.000 A 
ATOM     26  N   UNL     1      -0.002  10.041  23.446  0.00  0.00    +0.000 NA
ATOM     27  C   UNL     1       0.848   9.356  22.721  0.00  0.00    +0.000 A 
ATOM     28  O   UNL     1       0.794   9.599  21.386  0.00  0.00    +0.000 OA
ENDBRANCH  23  24
ENDBRANCH  15  18
ENDBRANCH  13  15
TORSDOF 3
ENDMDL
