MODEL 1
REMARK VINA RESULT:      -6.3      0.000      0.000
REMARK  Name = 
REMARK  8 active torsions:
REMARK  status: ('A' for Active; 'I' for Inactive)
REMARK    1  A    between atoms: C_1  and  C_2
REMARK    2  A    between atoms: C_2  and  O_3
REMARK    3  A    between atoms: O_3  and  C_4
REMARK    4  A    between atoms: C_4  and  O_5
REMARK    5  A    between atoms: O_5  and  C_6
REMARK    6  A    between atoms: C_6  and  C_7
REMARK    7  A    between atoms: C_23  and  C_24
REMARK    8  A    between atoms: C_23  and  C_25
REMARK                            x       y       z     vdW  Elec       q    Type
REMARK                         _______ _______ _______ _____ _____    ______ ____
ROOT
ATOM      1  C   UNL     1       3.844   3.867  19.068  0.00  0.00    +0.000 C 
ATOM      2  C   UNL     1       4.349   5.222  19.744  0.00  0.00    +0.000 C 
ATOM      3  C   UNL     1       3.304   6.303  19.464  0.00  0.00    +0.000 A 
ATOM      4  C   UNL     1       2.627   7.062  20.411  0.00  0.00    +0.000 A 
ATOM      5  C   UNL     1       1.679   7.987  19.965  0.00  0.00    +0.000 A 
ATOM      6 BR   UNL     1       0.728   9.023  21.228  0.00  0.00    +0.000 Br
ATOM      7  C   UNL     1       1.420   8.159  18.600  0.00  0.00    +0.000 A 
ATOM      8  C   UNL     1       2.126   7.422  17.647  0.00  0.00    +0.000 A 
ATOM      9  C   UNL     1       3.073   6.503  18.085  0.00  0.00    +0.000 A 
ATOM     10  C   UNL     1       3.955   5.645  17.200  0.00  0.00    +0.000 C 
ATOM     11  N   UNL     1       5.369   5.895  17.673  0.00  0.00    +0.000 N 
ATOM     12  C   UNL     1       6.349   6.333  16.861  0.00  0.00    +0.000 A 
ATOM     13  C   UNL     1       7.629   6.527  17.372  0.00  0.00    +0.000 A 
ATOM     14  C   UNL     1       7.878   6.282  18.722  0.00  0.00    +0.000 A 
ATOM     15  C   UNL     1       6.848   5.844  19.545  0.00  0.00    +0.000 A 
ATOM     16  C   UNL     1       5.589   5.648  18.994  0.00  0.00    +0.000 A 
ATOM     17  C   UNL     1       3.688   4.123  17.463  0.00  0.00    +0.000 C 
ATOM     18  C   UNL     1       2.278   3.744  16.956  0.00  0.00    +0.000 C 
ATOM     19  C   UNL     1       4.704   3.359  16.568  0.00  0.00    +0.000 C 
ENDROOT
BRANCH   1  20
ATOM     20  O   UNL     1       4.833   2.863  19.347  0.00  0.00    +0.000 OA
BRANCH  20  22
ATOM     21  C   UNL     1       5.131   1.097  20.923  0.00  0.00    +0.000 C 
ATOM     22  C   UNL     1       4.336   1.573  19.724  0.00  0.00    +0.000 C 
ENDBRANCH  20  22
ENDBRANCH   1  20
BRANCH   1  23
ATOM     23  O   UNL     1       2.569   3.487  19.629  0.00  0.00    +0.000 OA
BRANCH  23  24
ATOM     24  C   UNL     1       2.424   3.651  21.046  0.00  0.00    +0.000 C 
ATOM     25  C   UNL     1       1.355   2.700  21.549  0.00  0.00    +0.000 C 
ENDBRANCH  23  24
ENDBRANCH   1  23
TORSDOF 4
ENDMDL
MODEL 2
REMARK VINA RESULT:      -5.8      7.652     10.280
REMARK  Name = 
REMARK  8 active torsions:
REMARK  status: ('A' for Active; 'I' for Inactive)
REMARK    1  A    between atoms: C_1  and  C_2
REMARK    2  A    between atoms: C_2  and  O_3
REMARK    3  A    between atoms: O_3  and  C_4
REMARK    4  A    between atoms: C_4  and  O_5
REMARK    5  A    between atoms: O_5  and  C_6
REMARK    6  A    between atoms: C_6  and  C_7
REMARK    7  A    between atoms: C_23  and  C_24
REMARK    8  A    between atoms: C_23  and  C_25
REMARK                            x       y       z     vdW  Elec       q    Type
REMARK                         _______ _______ _______ _____ _____    ______ ____
ROOT
ATOM      1  C   UNL     1      -0.140  13.736  20.101  0.00  0.00    +0.000 C 
ATOM      2  C   UNL     1      -0.212  12.212  19.634  0.00  0.00    +0.000 C 
ATOM      3  C   UNL     1      -1.596  11.973  19.029  0.00  0.00    +0.000 A 
ATOM      4  C   UNL     1      -1.867  11.509  17.747  0.00  0.00    +0.000 A 
ATOM      5  C   UNL     1      -3.203  11.381  17.357  0.00  0.00    +0.000 A 
ATOM      6 BR   UNL     1      -3.607  10.769  15.615  0.00  0.00    +0.000 Br
ATOM      7  C   UNL     1      -4.249  11.700  18.233  0.00  0.00    +0.000 A 
ATOM      8  C   UNL     1      -3.976  12.133  19.533  0.00  0.00    +0.000 A 
ATOM      9  C   UNL     1      -2.648  12.257  19.927  0.00  0.00    +0.000 A 
ATOM     10  C   UNL     1      -2.165  12.675  21.301  0.00  0.00    +0.000 C 
ATOM     11  N   UNL     1      -1.201  11.595  21.737  0.00  0.00    +0.000 N 
ATOM     12  C   UNL     1      -1.346  10.898  22.879  0.00  0.00    +0.000 A 
ATOM     13  C   UNL     1      -0.407   9.927  23.216  0.00  0.00    +0.000 A 
ATOM     14  C   UNL     1       0.663   9.675  22.359  0.00  0.00    +0.000 A 
ATOM     15  C   UNL     1       0.787  10.398  21.178  0.00  0.00    +0.000 A 
ATOM     16  C   UNL     1      -0.162  11.368  20.885  0.00  0.00    +0.000 A 
ATOM     17  C   UNL     1      -1.311  13.987  21.211  0.00  0.00    +0.000 C 
ATOM     18  C   UNL     1      -2.220  15.177  20.827  0.00  0.00    +0.000 C 
ATOM     19  C   UNL     1      -0.808  14.259  22.657  0.00  0.00    +0.000 C 
ENDROOT
BRANCH   1  20
ATOM     20  O   UNL     1       1.168  13.943  20.660  0.00  0.00    +0.000 OA
BRANCH  20  22
ATOM     21  C   UNL     1       3.486  14.283  20.209  0.00  0.00    +0.000 C 
ATOM     22  C   UNL     1       2.269  13.433  19.898  0.00  0.00    +0.000 C 
ENDBRANCH  20  22
ENDBRANCH   1  20
BRANCH   1  23
ATOM     23  O   UNL     1      -0.345  14.605  18.967  0.00  0.00    +0.000 OA
BRANCH  23  24
ATOM     24  C   UNL     1       0.383  15.840  18.973  0.00  0.00    +0.000 C 
ATOM     25  C   UNL     1      -0.389  16.875  18.177  0.00  0.00    +0.000 C 
ENDBRANCH  23  24
ENDBRANCH   1  23
TORSDOF 4
ENDMDL
MODEL 3
REMARK VINA RESULT:      -5.4      7.270      9.625
REMARK  Name = 
REMARK  8 active torsions:
REMARK  status: ('A' for Active; 'I' for Inactive)
REMARK    1  A    between atoms: C_1  and  C_2
REMARK    2  A    between atoms: C_2  and  O_3
REMARK    3  A    between atoms: O_3  and  C_4
REMARK    4  A    between atoms: C_4  and  O_5
REMARK    5  A    between atoms: O_5  and  C_6
REMARK    6  A    between atoms: C_6  and  C_7
REMARK    7  A    between atoms: C_23  and  C_24
REMARK    8  A    between atoms: C_23  and  C_25
REMARK                            x       y       z     vdW  Elec       q    Type
REMARK                         _______ _______ _______ _____ _____    ______ ____
ROOT
ATOM      1  C   UNL     1       0.787  12.986  20.003  0.00  0.00    +0.000 C 
ATOM      2  C   UNL     1       0.456  11.451  19.719  0.00  0.00    +0.000 C 
ATOM      3  C   UNL     1      -0.879  11.390  18.977  0.00  0.00    +0.000 A 
ATOM      4  C   UNL     1      -1.109  10.806  17.737  0.00  0.00    +0.000 A 
ATOM      5  C   UNL     1      -2.397  10.875  17.199  0.00  0.00    +0.000 A 
ATOM      6 BR   UNL     1      -2.740  10.106  15.507  0.00  0.00    +0.000 Br
ATOM      7  C   UNL     1      -3.439  11.506  17.891  0.00  0.00    +0.000 A 
ATOM      8  C   UNL     1      -3.216  12.063  19.152  0.00  0.00    +0.000 A 
ATOM      9  C   UNL     1      -1.937  11.992  19.693  0.00  0.00    +0.000 A 
ATOM     10  C   UNL     1      -1.520  12.506  21.056  0.00  0.00    +0.000 C 
ATOM     11  N   UNL     1      -0.843  11.339  21.739  0.00  0.00    +0.000 N 
ATOM     12  C   UNL     1      -1.239  10.853  22.930  0.00  0.00    +0.000 A 
ATOM     13  C   UNL     1      -0.555   9.783  23.498  0.00  0.00    +0.000 A 
ATOM     14  C   UNL     1       0.523   9.215  22.820  0.00  0.00    +0.000 A 
ATOM     15  C   UNL     1       0.908   9.724  21.586  0.00  0.00    +0.000 A 
ATOM     16  C   UNL     1       0.209  10.802  21.060  0.00  0.00    +0.000 A 
ATOM     17  C   UNL     1      -0.414  13.609  20.916  0.00  0.00    +0.000 C 
ATOM     18  C   UNL     1      -1.021  14.879  20.279  0.00  0.00    +0.000 C 
ATOM     19  C   UNL     1      -0.014  13.987  22.371  0.00  0.00    +0.000 C 
ENDROOT
BRANCH   1  20
ATOM     20  O   UNL     1       2.047  13.024  20.694  0.00  0.00    +0.000 OA
BRANCH  20  22
ATOM     21  C   UNL     1       3.977  14.253  21.371  0.00  0.00    +0.000 C 
ATOM     22  C   UNL     1       2.478  14.312  21.152  0.00  0.00    +0.000 C 
ENDBRANCH  20  22
ENDBRANCH   1  20
BRANCH   1  23
ATOM     23  O   UNL     1       0.877  13.706  18.755  0.00  0.00    +0.000 OA
BRANCH  23  24
ATOM     24  C   UNL     1       2.053  13.473  17.969  0.00  0.00    +0.000 C 
ATOM     25  C   UNL     1       2.769  14.791  17.743  0.00  0.00    +0.000 C 
ENDBRANCH  23  24
ENDBRANCH   1  23
TORSDOF 4
ENDMDL
MODEL 4
REMARK VINA RESULT:      -5.4      8.045     10.839
REMARK  Name = 
REMARK  8 active torsions:
REMARK  status: ('A' for Active; 'I' for Inactive)
REMARK    1  A    between atoms: C_1  and  C_2
REMARK    2  A    between atoms: C_2  and  O_3
REMARK    3  A    between atoms: O_3  and  C_4
REMARK    4  A    between atoms: C_4  and  O_5
REMARK    5  A    between atoms: O_5  and  C_6
REMARK    6  A    between atoms: C_6  and  C_7
REMARK    7  A    between atoms: C_23  and  C_24
REMARK    8  A    between atoms: C_23  and  C_25
REMARK                            x       y       z     vdW  Elec       q    Type
REMARK                         _______ _______ _______ _____ _____    ______ ____
ROOT
ATOM      1  C   UNL     1      -0.648  12.430  21.291  0.00  0.00    +0.000 C 
ATOM      2  C   UNL     1      -0.996  12.870  19.797  0.00  0.00    +0.000 C 
ATOM      3  C   UNL     1      -0.937  14.397  19.733  0.00  0.00    +0.000 A 
ATOM      4  C   UNL     1      -0.141  15.158  18.885  0.00  0.00    +0.000 A 
ATOM      5  C   UNL     1      -0.200  16.550  18.992  0.00  0.00    +0.000 A 
ATOM      6 BR   UNL     1       0.882  17.614  17.865  0.00  0.00    +0.000 Br
ATOM      7  C   UNL     1      -1.045  17.172  19.921  0.00  0.00    +0.000 A 
ATOM      8  C   UNL     1      -1.870  16.408  20.749  0.00  0.00    +0.000 A 
ATOM      9  C   UNL     1      -1.819  15.022  20.642  0.00  0.00    +0.000 A 
ATOM     10  C   UNL     1      -2.662  14.039  21.429  0.00  0.00    +0.000 C 
ATOM     11  N   UNL     1      -3.308  13.143  20.396  0.00  0.00    +0.000 N 
ATOM     12  C   UNL     1      -4.641  12.978  20.297  0.00  0.00    +0.000 A 
ATOM     13  C   UNL     1      -5.157  12.125  19.326  0.00  0.00    +0.000 A 
ATOM     14  C   UNL     1      -4.290  11.464  18.456  0.00  0.00    +0.000 A 
ATOM     15  C   UNL     1      -2.919  11.660  18.568  0.00  0.00    +0.000 A 
ATOM     16  C   UNL     1      -2.442  12.507  19.560  0.00  0.00    +0.000 A 
ATOM     17  C   UNL     1      -1.753  13.096  22.291  0.00  0.00    +0.000 C 
ATOM     18  C   UNL     1      -1.086  13.908  23.425  0.00  0.00    +0.000 C 
ATOM     19  C   UNL     1      -2.722  12.091  22.974  0.00  0.00    +0.000 C 
ENDROOT
BRANCH   1  20
ATOM     20  O   UNL     1      -0.702  10.994  21.330  0.00  0.00    +0.000 OA
BRANCH  20  22
ATOM     21  C   UNL     1      -0.224   9.546  23.165  0.00  0.00    +0.000 C 
ATOM     22  C   UNL     1       0.371  10.341  22.019  0.00  0.00    +0.000 C 
ENDBRANCH  20  22
ENDBRANCH   1  20
BRANCH   1  23
ATOM     23  O   UNL     1       0.672  12.894  21.642  0.00  0.00    +0.000 OA
BRANCH  23  24
ATOM     24  C   UNL     1       1.688  12.736  20.643  0.00  0.00    +0.000 C 
ATOM     25  C   UNL     1       2.743  13.810  20.833  0.00  0.00    +0.000 C 
ENDBRANCH  23  24
ENDBRANCH   1  23
TORSDOF 4
ENDMDL
MODEL 5
REMARK VINA RESULT:      -5.3      9.128     11.087
REMARK  Name = 
REMARK  8 active torsions:
REMARK  status: ('A' for Active; 'I' for Inactive)
REMARK    1  A    between atoms: C_1  and  C_2
REMARK    2  A    between atoms: C_2  and  O_3
REMARK    3  A    between atoms: O_3  and  C_4
REMARK    4  A    between atoms: C_4  and  O_5
REMARK    5  A    between atoms: O_5  and  C_6
REMARK    6  A    between atoms: C_6  and  C_7
REMARK    7  A    between atoms: C_23  and  C_24
REMARK    8  A    between atoms: C_23  and  C_25
REMARK                            x       y       z     vdW  Elec       q    Type
REMARK                         _______ _______ _______ _____ _____    ______ ____
ROOT
ATOM      1  C   UNL     1       9.445  13.805  19.177  0.00  0.00    +0.000 C 
ATOM      2  C   UNL     1       9.675  14.043  20.738  0.00  0.00    +0.000 C 
ATOM      3  C   UNL     1       8.327  13.875  21.440  0.00  0.00    +0.000 A 
ATOM      4  C   UNL     1       8.035  12.985  22.467  0.00  0.00    +0.000 A 
ATOM      5  C   UNL     1       6.731  12.953  22.967  0.00  0.00    +0.000 A 
ATOM      6 BR   UNL     1       6.297  11.742  24.352  0.00  0.00    +0.000 Br
ATOM      7  C   UNL     1       5.738  13.800  22.459  0.00  0.00    +0.000 A 
ATOM      8  C   UNL     1       6.039  14.719  21.450  0.00  0.00    +0.000 A 
ATOM      9  C   UNL     1       7.337  14.758  20.953  0.00  0.00    +0.000 A 
ATOM     10  C   UNL     1       7.853  15.707  19.891  0.00  0.00    +0.000 C 
ATOM     11  N   UNL     1       9.079  16.359  20.491  0.00  0.00    +0.000 N 
ATOM     12  C   UNL     1       9.217  17.692  20.613  0.00  0.00    +0.000 A 
ATOM     13  C   UNL     1      10.383  18.214  21.166  0.00  0.00    +0.000 A 
ATOM     14  C   UNL     1      11.387  17.351  21.603  0.00  0.00    +0.000 A 
ATOM     15  C   UNL     1      11.217  15.977  21.479  0.00  0.00    +0.000 A 
ATOM     16  C   UNL     1      10.047  15.496  20.909  0.00  0.00    +0.000 A 
ATOM     17  C   UNL     1       8.371  14.911  18.642  0.00  0.00    +0.000 C 
ATOM     18  C   UNL     1       7.179  14.250  17.914  0.00  0.00    +0.000 C 
ATOM     19  C   UNL     1       8.947  15.982  17.673  0.00  0.00    +0.000 C 
ENDROOT
BRANCH   1  20
ATOM     20  O   UNL     1      10.722  13.959  18.535  0.00  0.00    +0.000 OA
BRANCH  20  22
ATOM     21  C   UNL     1      12.331  13.464  16.844  0.00  0.00    +0.000 C 
ATOM     22  C   UNL     1      10.908  13.232  17.315  0.00  0.00    +0.000 C 
ENDBRANCH  20  22
ENDBRANCH   1  20
BRANCH   1  23
ATOM     23  O   UNL     1       8.929  12.475  18.955  0.00  0.00    +0.000 OA
BRANCH  23  24
ATOM     24  C   UNL     1       9.646  11.402  19.580  0.00  0.00    +0.000 C 
ATOM     25  C   UNL     1       9.160  10.083  19.012  0.00  0.00    +0.000 C 
ENDBRANCH  23  24
ENDBRANCH   1  23
TORSDOF 4
ENDMDL
MODEL 6
REMARK VINA RESULT:      -5.3      7.626     10.218
REMARK  Name = 
REMARK  8 active torsions:
REMARK  status: ('A' for Active; 'I' for Inactive)
REMARK    1  A    between atoms: C_1  and  C_2
REMARK    2  A    between atoms: C_2  and  O_3
REMARK    3  A    between atoms: O_3  and  C_4
REMARK    4  A    between atoms: C_4  and  O_5
REMARK    5  A    between atoms: O_5  and  C_6
REMARK    6  A    between atoms: C_6  and  C_7
REMARK    7  A    between atoms: C_23  and  C_24
REMARK    8  A    between atoms: C_23  and  C_25
REMARK                            x       y       z     vdW  Elec       q    Type
REMARK                         _______ _______ _______ _____ _____    ______ ____
ROOT
ATOM      1  C   UNL     1      -0.839  12.508  21.415  0.00  0.00    +0.000 C 
ATOM      2  C   UNL     1      -2.035  13.392  20.837  0.00  0.00    +0.000 C 
ATOM      3  C   UNL     1      -2.656  12.630  19.665  0.00  0.00    +0.000 A 
ATOM      4  C   UNL     1      -3.986  12.247  19.541  0.00  0.00    +0.000 A 
ATOM      5  C   UNL     1      -4.366  11.527  18.405  0.00  0.00    +0.000 A 
ATOM      6 BR   UNL     1      -6.164  10.976  18.214  0.00  0.00    +0.000 Br
ATOM      7  C   UNL     1      -3.438  11.202  17.408  0.00  0.00    +0.000 A 
ATOM      8  C   UNL     1      -2.108  11.617  17.516  0.00  0.00    +0.000 A 
ATOM      9  C   UNL     1      -1.727  12.338  18.642  0.00  0.00    +0.000 A 
ATOM     10  C   UNL     1      -0.345  12.899  18.912  0.00  0.00    +0.000 C 
ATOM     11  N   UNL     1      -0.554  14.366  19.212  0.00  0.00    +0.000 N 
ATOM     12  C   UNL     1       0.054  15.351  18.526  0.00  0.00    +0.000 A 
ATOM     13  C   UNL     1      -0.182  16.678  18.873  0.00  0.00    +0.000 A 
ATOM     14  C   UNL     1      -1.059  16.973  19.916  0.00  0.00    +0.000 A 
ATOM     15  C   UNL     1      -1.687  15.940  20.603  0.00  0.00    +0.000 A 
ATOM     16  C   UNL     1      -1.413  14.629  20.236  0.00  0.00    +0.000 A 
ATOM     17  C   UNL     1       0.254  12.283  20.224  0.00  0.00    +0.000 C 
ATOM     18  C   UNL     1       0.565  10.786  20.003  0.00  0.00    +0.000 C 
ATOM     19  C   UNL     1       1.621  12.996  20.433  0.00  0.00    +0.000 C 
ENDROOT
BRANCH   1  20
ATOM     20  O   UNL     1      -0.273  13.235  22.518  0.00  0.00    +0.000 OA
BRANCH  20  22
ATOM     21  C   UNL     1      -0.735  15.139  23.880  0.00  0.00    +0.000 C 
ATOM     22  C   UNL     1      -1.203  13.755  23.476  0.00  0.00    +0.000 C 
ENDBRANCH  20  22
ENDBRANCH   1  20
BRANCH   1  23
ATOM     23  O   UNL     1      -1.345  11.232  21.861  0.00  0.00    +0.000 OA
BRANCH  23  24
ATOM     24  C   UNL     1      -0.863  10.764  23.128  0.00  0.00    +0.000 C 
ATOM     25  C   UNL     1      -0.460   9.308  22.999  0.00  0.00    +0.000 C 
ENDBRANCH  23  24
ENDBRANCH   1  23
TORSDOF 4
ENDMDL
MODEL 7
REMARK VINA RESULT:      -5.2      9.213     11.001
REMARK  Name = 
REMARK  8 active torsions:
REMARK  status: ('A' for Active; 'I' for Inactive)
REMARK    1  A    between atoms: C_1  and  C_2
REMARK    2  A    between atoms: C_2  and  O_3
REMARK    3  A    between atoms: O_3  and  C_4
REMARK    4  A    between atoms: C_4  and  O_5
REMARK    5  A    between atoms: O_5  and  C_6
REMARK    6  A    between atoms: C_6  and  C_7
REMARK    7  A    between atoms: C_23  and  C_24
REMARK    8  A    between atoms: C_23  and  C_25
REMARK                            x       y       z     vdW  Elec       q    Type
REMARK                         _______ _______ _______ _____ _____    ______ ____
ROOT
ATOM      1  C   UNL     1       9.982  13.604  19.690  0.00  0.00    +0.000 C 
ATOM      2  C   UNL     1       9.620  15.008  20.356  0.00  0.00    +0.000 C 
ATOM      3  C   UNL     1       8.109  15.208  20.232  0.00  0.00    +0.000 A 
ATOM      4  C   UNL     1       7.216  15.427  21.275  0.00  0.00    +0.000 A 
ATOM      5  C   UNL     1       5.859  15.559  20.970  0.00  0.00    +0.000 A 
ATOM      6 BR   UNL     1       4.617  15.840  22.367  0.00  0.00    +0.000 Br
ATOM      7  C   UNL     1       5.402  15.483  19.648  0.00  0.00    +0.000 A 
ATOM      8  C   UNL     1       6.302  15.298  18.597  0.00  0.00    +0.000 A 
ATOM      9  C   UNL     1       7.655  15.172  18.895  0.00  0.00    +0.000 A 
ATOM     10  C   UNL     1       8.774  15.002  17.888  0.00  0.00    +0.000 C 
ATOM     11  N   UNL     1       9.778  16.086  18.213  0.00  0.00    +0.000 N 
ATOM     12  C   UNL     1      10.188  17.001  17.315  0.00  0.00    +0.000 A 
ATOM     13  C   UNL     1      11.125  17.960  17.689  0.00  0.00    +0.000 A 
ATOM     14  C   UNL     1      11.617  17.971  18.994  0.00  0.00    +0.000 A 
ATOM     15  C   UNL     1      11.170  17.025  19.908  0.00  0.00    +0.000 A 
ATOM     16  C   UNL     1      10.246  16.076  19.492  0.00  0.00    +0.000 A 
ATOM     17  C   UNL     1       9.529  13.648  18.122  0.00  0.00    +0.000 C 
ATOM     18  C   UNL     1       8.604  12.465  17.759  0.00  0.00    +0.000 C 
ATOM     19  C   UNL     1      10.694  13.635  17.093  0.00  0.00    +0.000 C 
ENDROOT
BRANCH   1  20
ATOM     20  O   UNL     1      11.403  13.430  19.822  0.00  0.00    +0.000 OA
BRANCH  20  22
ATOM     21  C   UNL     1      12.321  11.403  18.960  0.00  0.00    +0.000 C 
ATOM     22  C   UNL     1      11.846  12.123  20.207  0.00  0.00    +0.000 C 
ENDBRANCH  20  22
ENDBRANCH   1  20
BRANCH   1  23
ATOM     23  O   UNL     1       9.281  12.543  20.373  0.00  0.00    +0.000 OA
BRANCH  23  24
ATOM     24  C   UNL     1       9.390  12.526  21.802  0.00  0.00    +0.000 C 
ATOM     25  C   UNL     1       8.127  11.925  22.389  0.00  0.00    +0.000 C 
ENDBRANCH  23  24
ENDBRANCH   1  23
TORSDOF 4
ENDMDL
MODEL 8
REMARK VINA RESULT:      -5.2      8.364     11.849
REMARK  Name = 
REMARK  8 active torsions:
REMARK  status: ('A' for Active; 'I' for Inactive)
REMARK    1  A    between atoms: C_1  and  C_2
REMARK    2  A    between atoms: C_2  and  O_3
REMARK    3  A    between atoms: O_3  and  C_4
REMARK    4  A    between atoms: C_4  and  O_5
REMARK    5  A    between atoms: O_5  and  C_6
REMARK    6  A    between atoms: C_6  and  C_7
REMARK    7  A    between atoms: C_23  and  C_24
REMARK    8  A    between atoms: C_23  and  C_25
REMARK                            x       y       z     vdW  Elec       q    Type
REMARK                         _______ _______ _______ _____ _____    ______ ____
ROOT
ATOM      1  C   UNL     1      -1.900  14.824  21.062  0.00  0.00    +0.000 C 
ATOM      2  C   UNL     1      -2.933  13.677  20.660  0.00  0.00    +0.000 C 
ATOM      3  C   UNL     1      -3.707  13.282  21.918  0.00  0.00    +0.000 A 
ATOM      4  C   UNL     1      -5.087  13.312  22.083  0.00  0.00    +0.000 A 
ATOM      5  C   UNL     1      -5.616  12.942  23.322  0.00  0.00    +0.000 A 
ATOM      6 BR   UNL     1      -7.487  12.988  23.584  0.00  0.00    +0.000 Br
ATOM      7  C   UNL     1      -4.784  12.539  24.375  0.00  0.00    +0.000 A 
ATOM      8  C   UNL     1      -3.400  12.475  24.199  0.00  0.00    +0.000 A 
ATOM      9  C   UNL     1      -2.869  12.838  22.966  0.00  0.00    +0.000 A 
ATOM     10  C   UNL     1      -1.404  12.798  22.583  0.00  0.00    +0.000 C 
ATOM     11  N   UNL     1      -1.341  11.993  21.304  0.00  0.00    +0.000 N 
ATOM     12  C   UNL     1      -0.583  10.890  21.166  0.00  0.00    +0.000 A 
ATOM     13  C   UNL     1      -0.572  10.211  19.951  0.00  0.00    +0.000 A 
ATOM     14  C   UNL     1      -1.357  10.672  18.896  0.00  0.00    +0.000 A 
ATOM     15  C   UNL     1      -2.142  11.807  19.064  0.00  0.00    +0.000 A 
ATOM     16  C   UNL     1      -2.115  12.464  20.286  0.00  0.00    +0.000 A 
ATOM     17  C   UNL     1      -0.892  14.231  22.202  0.00  0.00    +0.000 C 
ATOM     18  C   UNL     1      -0.859  15.125  23.461  0.00  0.00    +0.000 C 
ATOM     19  C   UNL     1       0.583  14.042  21.750  0.00  0.00    +0.000 C 
ENDROOT
BRANCH   1  20
ATOM     20  O   UNL     1      -1.187  15.187  19.868  0.00  0.00    +0.000 OA
BRANCH  20  22
ATOM     21  C   UNL     1      -0.794  17.072  18.458  0.00  0.00    +0.000 C 
ATOM     22  C   UNL     1      -0.609  16.498  19.849  0.00  0.00    +0.000 C 
ENDBRANCH  20  22
ENDBRANCH   1  20
BRANCH   1  23
ATOM     23  O   UNL     1      -2.614  15.964  21.586  0.00  0.00    +0.000 OA
BRANCH  23  24
ATOM     24  C   UNL     1      -3.708  16.447  20.796  0.00  0.00    +0.000 C 
ATOM     25  C   UNL     1      -4.776  17.008  21.716  0.00  0.00    +0.000 C 
ENDBRANCH  23  24
ENDBRANCH   1  23
TORSDOF 4
ENDMDL
MODEL 9
REMARK VINA RESULT:      -5.2      8.014     11.759
REMARK  Name = 
REMARK  8 active torsions:
REMARK  status: ('A' for Active; 'I' for Inactive)
REMARK    1  A    between atoms: C_1  and  C_2
REMARK    2  A    between atoms: C_2  and  O_3
REMARK    3  A    between atoms: O_3  and  C_4
REMARK    4  A    between atoms: C_4  and  O_5
REMARK    5  A    between atoms: O_5  and  C_6
REMARK    6  A    between atoms: C_6  and  C_7
REMARK    7  A    between atoms: C_23  and  C_24
REMARK    8  A    between atoms: C_23  and  C_25
REMARK                            x       y       z     vdW  Elec       q    Type
REMARK                         _______ _______ _______ _____ _____    ______ ____
ROOT
ATOM      1  C   UNL     1      -1.089  14.405  22.525  0.00  0.00    +0.000 C 
ATOM      2  C   UNL     1      -1.555  12.980  23.073  0.00  0.00    +0.000 C 
ATOM      3  C   UNL     1      -1.137  11.925  22.048  0.00  0.00    +0.000 A 
ATOM      4  C   UNL     1      -0.328  10.820  22.284  0.00  0.00    +0.000 A 
ATOM      5  C   UNL     1      -0.028   9.976  21.211  0.00  0.00    +0.000 A 
ATOM      6 BR   UNL     1       1.085   8.475  21.493  0.00  0.00    +0.000 Br
ATOM      7  C   UNL     1      -0.535  10.225  19.929  0.00  0.00    +0.000 A 
ATOM      8  C   UNL     1      -1.377  11.315  19.700  0.00  0.00    +0.000 A 
ATOM      9  C   UNL     1      -1.682  12.155  20.765  0.00  0.00    +0.000 A 
ATOM     10  C   UNL     1      -2.601  13.358  20.713  0.00  0.00    +0.000 C 
ATOM     11  N   UNL     1      -3.604  13.151  21.826  0.00  0.00    +0.000 N 
ATOM     12  C   UNL     1      -4.934  13.129  21.623  0.00  0.00    +0.000 A 
ATOM     13  C   UNL     1      -5.792  12.945  22.703  0.00  0.00    +0.000 A 
ATOM     14  C   UNL     1      -5.264  12.768  23.981  0.00  0.00    +0.000 A 
ATOM     15  C   UNL     1      -3.886  12.781  24.167  0.00  0.00    +0.000 A 
ATOM     16  C   UNL     1      -3.065  12.982  23.066  0.00  0.00    +0.000 A 
ATOM     17  C   UNL     1      -1.822  14.666  21.090  0.00  0.00    +0.000 C 
ATOM     18  C   UNL     1      -0.804  15.006  19.978  0.00  0.00    +0.000 C 
ATOM     19  C   UNL     1      -2.884  15.802  21.084  0.00  0.00    +0.000 C 
ENDROOT
BRANCH   1  20
ATOM     20  O   UNL     1      -1.483  15.382  23.502  0.00  0.00    +0.000 OA
BRANCH  20  22
ATOM     21  C   UNL     1      -2.186  15.678  25.763  0.00  0.00    +0.000 C 
ATOM     22  C   UNL     1      -1.114  15.103  24.858  0.00  0.00    +0.000 C 
ENDBRANCH  20  22
ENDBRANCH   1  20
BRANCH   1  23
ATOM     23  O   UNL     1       0.344  14.417  22.351  0.00  0.00    +0.000 OA
BRANCH  23  24
ATOM     24  C   UNL     1       0.987  15.694  22.459  0.00  0.00    +0.000 C 
ATOM     25  C   UNL     1       2.424  15.568  21.991  0.00  0.00    +0.000 C 
ENDBRANCH  23  24
ENDBRANCH   1  23
TORSDOF 4
ENDMDL
