MODEL 1
REMARK VINA RESULT:      -6.1      0.000      0.000
REMARK  Name = 
REMARK  6 active torsions:
REMARK  status: ('A' for Active; 'I' for Inactive)
REMARK    1  A    between atoms: C_1  and  C_2
REMARK    2  A    between atoms: C_13  and  O_15
REMARK    3  A    between atoms: O_15  and  C_16
REMARK    4  A    between atoms: C_16  and  C_17
REMARK    5  A    between atoms: C_16  and  C_18
REMARK    6  A    between atoms: C_16  and  C_19
REMARK                            x       y       z     vdW  Elec       q    Type
REMARK                         _______ _______ _______ _____ _____    ______ ____
ROOT
ATOM      1  C   UNL     1      -0.356  14.090  18.434  0.00  0.00    +0.000 C 
ATOM      2  C   UNL     1      -0.333  12.736  19.028  0.00  0.00    +0.000 A 
ATOM      3  C   UNL     1      -1.209  11.664  18.760  0.00  0.00    +0.000 A 
ATOM      4  N   UNL     1      -0.867  10.542  19.395  0.00  0.00    +0.000 NA
ATOM      5  N   UNL     1       0.263  10.881  20.092  0.00  0.00    +0.000 N 
ATOM      6  C   UNL     1       0.973   9.921  20.852  0.00  0.00    +0.000 C 
ATOM      7  O   UNL     1       1.280  10.184  22.009  0.00  0.00    +0.000 OA
ATOM      8  N   UNL     1       1.261   8.726  20.161  0.00  0.00    +0.000 N 
ATOM      9  C   UNL     1       1.220   8.606  18.697  0.00  0.00    +0.000 C 
ATOM     10  C   UNL     1       2.560   8.311  18.030  0.00  0.00    +0.000 C 
ATOM     11  C   UNL     1       3.314   7.063  18.458  0.00  0.00    +0.000 C 
ATOM     12  N   UNL     1       2.539   6.130  19.254  0.00  0.00    +0.000 N 
ATOM     13  C   UNL     1       1.925   5.062  18.607  0.00  0.00    +0.000 C 
ATOM     14  O   UNL     1       2.047   4.886  17.401  0.00  0.00    +0.000 OA
ATOM     15  C   UNL     1       2.371   6.472  20.662  0.00  0.00    +0.000 C 
ATOM     16  C   UNL     1       1.256   7.485  20.948  0.00  0.00    +0.000 C 
ATOM     17  C   UNL     1       0.550  12.223  19.954  0.00  0.00    +0.000 A 
ENDROOT
BRANCH  13  18
ATOM     18  O   UNL     1       1.201   4.257  19.435  0.00  0.00    +0.000 OA
BRANCH  18  19
ATOM     19  C   UNL     1       1.808   3.019  19.912  0.00  0.00    +0.000 C 
ATOM     20  C   UNL     1       1.416   2.723  21.368  0.00  0.00    +0.000 C 
ATOM     21  C   UNL     1       1.238   1.889  19.036  0.00  0.00    +0.000 C 
ATOM     22  C   UNL     1       3.332   3.030  19.719  0.00  0.00    +0.000 C 
ENDBRANCH  18  19
ENDBRANCH  13  18
TORSDOF 2
ENDMDL
MODEL 2
REMARK VINA RESULT:      -5.6      2.247      7.485
REMARK  Name = 
REMARK  6 active torsions:
REMARK  status: ('A' for Active; 'I' for Inactive)
REMARK    1  A    between atoms: C_1  and  C_2
REMARK    2  A    between atoms: C_13  and  O_15
REMARK    3  A    between atoms: O_15  and  C_16
REMARK    4  A    between atoms: C_16  and  C_17
REMARK    5  A    between atoms: C_16  and  C_18
REMARK    6  A    between atoms: C_16  and  C_19
REMARK                            x       y       z     vdW  Elec       q    Type
REMARK                         _______ _______ _______ _____ _____    ______ ____
ROOT
ATOM      1  C   UNL     1       2.408   4.349  17.680  0.00  0.00    +0.000 C 
ATOM      2  C   UNL     1       2.456   5.666  18.351  0.00  0.00    +0.000 A 
ATOM      3  C   UNL     1       3.206   6.797  17.970  0.00  0.00    +0.000 A 
ATOM      4  N   UNL     1       2.963   7.862  18.735  0.00  0.00    +0.000 NA
ATOM      5  N   UNL     1       2.028   7.425  19.636  0.00  0.00    +0.000 N 
ATOM      6  C   UNL     1       1.461   8.301  20.592  0.00  0.00    +0.000 C 
ATOM      7  O   UNL     1       1.426   7.959  21.768  0.00  0.00    +0.000 OA
ATOM      8  N   UNL     1       0.977   9.513  20.058  0.00  0.00    +0.000 N 
ATOM      9  C   UNL     1       0.693   9.714  18.630  0.00  0.00    +0.000 C 
ATOM     10  C   UNL     1      -0.772   9.969  18.288  0.00  0.00    +0.000 C 
ATOM     11  C   UNL     1      -1.468  11.148  18.948  0.00  0.00    +0.000 C 
ATOM     12  N   UNL     1      -0.578  12.078  19.617  0.00  0.00    +0.000 N 
ATOM     13  C   UNL     1      -0.166  13.213  18.923  0.00  0.00    +0.000 C 
ATOM     14  O   UNL     1      -0.557  13.446  17.785  0.00  0.00    +0.000 OA
ATOM     15  C   UNL     1      -0.092  11.672  20.930  0.00  0.00    +0.000 C 
ATOM     16  C   UNL     1       1.101  10.708  20.903  0.00  0.00    +0.000 C 
ATOM     17  C   UNL     1       1.775   6.078  19.477  0.00  0.00    +0.000 A 
ENDROOT
BRANCH  13  18
ATOM     18  O   UNL     1       0.686  14.011  19.625  0.00  0.00    +0.000 OA
BRANCH  18  19
ATOM     19  C   UNL     1       2.066  14.133  19.166  0.00  0.00    +0.000 C 
ATOM     20  C   UNL     1       2.307  15.476  18.457  0.00  0.00    +0.000 C 
ATOM     21  C   UNL     1       2.949  14.105  20.426  0.00  0.00    +0.000 C 
ATOM     22  C   UNL     1       2.474  12.941  18.288  0.00  0.00    +0.000 C 
ENDBRANCH  18  19
ENDBRANCH  13  18
TORSDOF 2
ENDMDL
MODEL 3
REMARK VINA RESULT:      -5.5      2.222      7.316
REMARK  Name = 
REMARK  6 active torsions:
REMARK  status: ('A' for Active; 'I' for Inactive)
REMARK    1  A    between atoms: C_1  and  C_2
REMARK    2  A    between atoms: C_13  and  O_15
REMARK    3  A    between atoms: O_15  and  C_16
REMARK    4  A    between atoms: C_16  and  C_17
REMARK    5  A    between atoms: C_16  and  C_18
REMARK    6  A    between atoms: C_16  and  C_19
REMARK                            x       y       z     vdW  Elec       q    Type
REMARK                         _______ _______ _______ _____ _____    ______ ____
ROOT
ATOM      1  C   UNL     1       4.572   2.163  20.008  0.00  0.00    +0.000 C 
ATOM      2  C   UNL     1       3.984   3.294  19.258  0.00  0.00    +0.000 A 
ATOM      3  C   UNL     1       2.693   3.376  18.699  0.00  0.00    +0.000 A 
ATOM      4  N   UNL     1       2.435   4.569  18.161  0.00  0.00    +0.000 NA
ATOM      5  N   UNL     1       3.580   5.291  18.376  0.00  0.00    +0.000 N 
ATOM      6  C   UNL     1       3.673   6.652  17.998  0.00  0.00    +0.000 C 
ATOM      7  O   UNL     1       4.644   7.025  17.351  0.00  0.00    +0.000 OA
ATOM      8  N   UNL     1       2.597   7.453  18.432  0.00  0.00    +0.000 N 
ATOM      9  C   UNL     1       1.675   7.061  19.507  0.00  0.00    +0.000 C 
ATOM     10  C   UNL     1       1.717   7.939  20.754  0.00  0.00    +0.000 C 
ATOM     11  C   UNL     1       1.447   9.425  20.593  0.00  0.00    +0.000 C 
ATOM     12  N   UNL     1       0.894   9.804  19.306  0.00  0.00    +0.000 N 
ATOM     13  C   UNL     1      -0.487   9.940  19.195  0.00  0.00    +0.000 C 
ATOM     14  O   UNL     1      -1.228   9.772  20.157  0.00  0.00    +0.000 OA
ATOM     15  C   UNL     1       1.840   9.890  18.200  0.00  0.00    +0.000 C 
ATOM     16  C   UNL     1       2.183   8.547  17.543  0.00  0.00    +0.000 C 
ATOM     17  C   UNL     1       4.558   4.511  18.957  0.00  0.00    +0.000 A 
ENDROOT
BRANCH  13  18
ATOM     18  O   UNL     1      -0.911  10.274  17.944  0.00  0.00    +0.000 OA
BRANCH  18  19
ATOM     19  C   UNL     1      -2.299  10.685  17.764  0.00  0.00    +0.000 C 
ATOM     20  C   UNL     1      -2.703  11.766  18.780  0.00  0.00    +0.000 C 
ATOM     21  C   UNL     1      -2.391  11.308  16.360  0.00  0.00    +0.000 C 
ATOM     22  C   UNL     1      -3.252   9.481  17.799  0.00  0.00    +0.000 C 
ENDBRANCH  18  19
ENDBRANCH  13  18
TORSDOF 2
ENDMDL
MODEL 4
REMARK VINA RESULT:      -5.5      2.483      3.608
REMARK  Name = 
REMARK  6 active torsions:
REMARK  status: ('A' for Active; 'I' for Inactive)
REMARK    1  A    between atoms: C_1  and  C_2
REMARK    2  A    between atoms: C_13  and  O_15
REMARK    3  A    between atoms: O_15  and  C_16
REMARK    4  A    between atoms: C_16  and  C_17
REMARK    5  A    between atoms: C_16  and  C_18
REMARK    6  A    between atoms: C_16  and  C_19
REMARK                            x       y       z     vdW  Elec       q    Type
REMARK                         _______ _______ _______ _____ _____    ______ ____
ROOT
ATOM      1  C   UNL     1      -1.396  12.271  22.556  0.00  0.00    +0.000 C 
ATOM      2  C   UNL     1      -0.519  11.705  21.509  0.00  0.00    +0.000 A 
ATOM      3  C   UNL     1       0.885  11.804  21.419  0.00  0.00    +0.000 A 
ATOM      4  N   UNL     1       1.390  11.107  20.399  0.00  0.00    +0.000 NA
ATOM      5  N   UNL     1       0.295  10.533  19.809  0.00  0.00    +0.000 N 
ATOM      6  C   UNL     1       0.431   9.651  18.710  0.00  0.00    +0.000 C 
ATOM      7  O   UNL     1      -0.259   9.829  17.713  0.00  0.00    +0.000 OA
ATOM      8  N   UNL     1       1.379   8.624  18.899  0.00  0.00    +0.000 N 
ATOM      9  C   UNL     1       1.889   8.224  20.219  0.00  0.00    +0.000 C 
ATOM     10  C   UNL     1       1.532   6.805  20.652  0.00  0.00    +0.000 C 
ATOM     11  C   UNL     1       1.954   5.655  19.754  0.00  0.00    +0.000 C 
ATOM     12  N   UNL     1       2.907   6.012  18.720  0.00  0.00    +0.000 N 
ATOM     13  C   UNL     1       4.261   5.801  18.968  0.00  0.00    +0.000 C 
ATOM     14  O   UNL     1       4.651   5.303  20.018  0.00  0.00    +0.000 OA
ATOM     15  C   UNL     1       2.361   6.683  17.547  0.00  0.00    +0.000 C 
ATOM     16  C   UNL     1       2.133   8.189  17.716  0.00  0.00    +0.000 C 
ATOM     17  C   UNL     1      -0.873  10.953  20.409  0.00  0.00    +0.000 A 
ENDROOT
BRANCH  13  18
ATOM     18  O   UNL     1       5.076   6.190  17.948  0.00  0.00    +0.000 OA
BRANCH  18  19
ATOM     19  C   UNL     1       5.649   5.164  17.082  0.00  0.00    +0.000 C 
ATOM     20  C   UNL     1       4.798   3.884  17.086  0.00  0.00    +0.000 C 
ATOM     21  C   UNL     1       5.624   5.736  15.654  0.00  0.00    +0.000 C 
ATOM     22  C   UNL     1       7.114   4.879  17.442  0.00  0.00    +0.000 C 
ENDBRANCH  18  19
ENDBRANCH  13  18
TORSDOF 2
ENDMDL
MODEL 5
REMARK VINA RESULT:      -5.4      3.601      5.618
REMARK  Name = 
REMARK  6 active torsions:
REMARK  status: ('A' for Active; 'I' for Inactive)
REMARK    1  A    between atoms: C_1  and  C_2
REMARK    2  A    between atoms: C_13  and  O_15
REMARK    3  A    between atoms: O_15  and  C_16
REMARK    4  A    between atoms: C_16  and  C_17
REMARK    5  A    between atoms: C_16  and  C_18
REMARK    6  A    between atoms: C_16  and  C_19
REMARK                            x       y       z     vdW  Elec       q    Type
REMARK                         _______ _______ _______ _____ _____    ______ ____
ROOT
ATOM      1  C   UNL     1       1.104   9.726  21.325  0.00  0.00    +0.000 C 
ATOM      2  C   UNL     1       1.415   8.672  20.336  0.00  0.00    +0.000 A 
ATOM      3  C   UNL     1       1.764   8.842  18.980  0.00  0.00    +0.000 A 
ATOM      4  N   UNL     1       2.071   7.694  18.375  0.00  0.00    +0.000 NA
ATOM      5  N   UNL     1       1.928   6.748  19.355  0.00  0.00    +0.000 N 
ATOM      6  C   UNL     1       2.233   5.386  19.114  0.00  0.00    +0.000 C 
ATOM      7  O   UNL     1       1.420   4.527  19.433  0.00  0.00    +0.000 OA
ATOM      8  N   UNL     1       3.491   5.167  18.516  0.00  0.00    +0.000 N 
ATOM      9  C   UNL     1       4.570   6.166  18.507  0.00  0.00    +0.000 C 
ATOM     10  C   UNL     1       5.825   5.775  19.282  0.00  0.00    +0.000 C 
ATOM     11  C   UNL     1       6.538   4.492  18.891  0.00  0.00    +0.000 C 
ATOM     12  N   UNL     1       6.109   3.922  17.628  0.00  0.00    +0.000 N 
ATOM     13  C   UNL     1       6.846   4.218  16.485  0.00  0.00    +0.000 C 
ATOM     14  O   UNL     1       7.849   4.920  16.533  0.00  0.00    +0.000 OA
ATOM     15  C   UNL     1       4.855   3.178  17.651  0.00  0.00    +0.000 C 
ATOM     16  C   UNL     1       3.593   4.045  17.573  0.00  0.00    +0.000 C 
ATOM     17  C   UNL     1       1.447   7.306  20.521  0.00  0.00    +0.000 A 
ENDROOT
BRANCH  13  18
ATOM     18  O   UNL     1       6.350   3.657  15.347  0.00  0.00    +0.000 OA
BRANCH  18  19
ATOM     19  C   UNL     1       5.992   4.533  14.236  0.00  0.00    +0.000 C 
ATOM     20  C   UNL     1       5.296   5.811  14.729  0.00  0.00    +0.000 C 
ATOM     21  C   UNL     1       7.313   4.950  13.566  0.00  0.00    +0.000 C 
ATOM     22  C   UNL     1       5.153   3.792  13.184  0.00  0.00    +0.000 C 
ENDBRANCH  18  19
ENDBRANCH  13  18
TORSDOF 2
ENDMDL
MODEL 6
REMARK VINA RESULT:      -5.4      4.571      6.307
REMARK  Name = 
REMARK  6 active torsions:
REMARK  status: ('A' for Active; 'I' for Inactive)
REMARK    1  A    between atoms: C_1  and  C_2
REMARK    2  A    between atoms: C_13  and  O_15
REMARK    3  A    between atoms: O_15  and  C_16
REMARK    4  A    between atoms: C_16  and  C_17
REMARK    5  A    between atoms: C_16  and  C_18
REMARK    6  A    between atoms: C_16  and  C_19
REMARK                            x       y       z     vdW  Elec       q    Type
REMARK                         _______ _______ _______ _____ _____    ______ ____
ROOT
ATOM      1  C   UNL     1       1.455   9.726  20.241  0.00  0.00    +0.000 C 
ATOM      2  C   UNL     1       1.716   8.532  19.408  0.00  0.00    +0.000 A 
ATOM      3  C   UNL     1       1.516   8.392  18.019  0.00  0.00    +0.000 A 
ATOM      4  N   UNL     1       1.934   7.215  17.551  0.00  0.00    +0.000 NA
ATOM      5  N   UNL     1       2.426   6.569  18.654  0.00  0.00    +0.000 N 
ATOM      6  C   UNL     1       3.029   5.292  18.550  0.00  0.00    +0.000 C 
ATOM      7  O   UNL     1       2.674   4.401  19.311  0.00  0.00    +0.000 OA
ATOM      8  N   UNL     1       4.013   5.192  17.545  0.00  0.00    +0.000 N 
ATOM      9  C   UNL     1       4.668   6.356  16.931  0.00  0.00    +0.000 C 
ATOM     10  C   UNL     1       6.166   6.474  17.193  0.00  0.00    +0.000 C 
ATOM     11  C   UNL     1       7.059   5.316  16.777  0.00  0.00    +0.000 C 
ATOM     12  N   UNL     1       6.422   4.341  15.912  0.00  0.00    +0.000 N 
ATOM     13  C   UNL     1       6.602   4.462  14.537  0.00  0.00    +0.000 C 
ATOM     14  O   UNL     1       7.297   5.348  14.055  0.00  0.00    +0.000 OA
ATOM     15  C   UNL     1       5.539   3.382  16.565  0.00  0.00    +0.000 C 
ATOM     16  C   UNL     1       4.125   3.902  16.850  0.00  0.00    +0.000 C 
ATOM     17  C   UNL     1       2.222   7.311  19.799  0.00  0.00    +0.000 A 
ENDROOT
BRANCH  13  18
ATOM     18  O   UNL     1       5.945   3.515  13.809  0.00  0.00    +0.000 OA
BRANCH  18  19
ATOM     19  C   UNL     1       6.152   3.478  12.365  0.00  0.00    +0.000 C 
ATOM     20  C   UNL     1       6.666   2.104  11.904  0.00  0.00    +0.000 C 
ATOM     21  C   UNL     1       4.772   3.699  11.721  0.00  0.00    +0.000 C 
ATOM     22  C   UNL     1       7.069   4.619  11.898  0.00  0.00    +0.000 C 
ENDBRANCH  18  19
ENDBRANCH  13  18
TORSDOF 2
ENDMDL
MODEL 7
REMARK VINA RESULT:      -5.3      2.575      3.794
REMARK  Name = 
REMARK  6 active torsions:
REMARK  status: ('A' for Active; 'I' for Inactive)
REMARK    1  A    between atoms: C_1  and  C_2
REMARK    2  A    between atoms: C_13  and  O_15
REMARK    3  A    between atoms: O_15  and  C_16
REMARK    4  A    between atoms: C_16  and  C_17
REMARK    5  A    between atoms: C_16  and  C_18
REMARK    6  A    between atoms: C_16  and  C_19
REMARK                            x       y       z     vdW  Elec       q    Type
REMARK                         _______ _______ _______ _____ _____    ______ ____
ROOT
ATOM      1  C   UNL     1      -1.591  11.412  22.832  0.00  0.00    +0.000 C 
ATOM      2  C   UNL     1      -0.564  11.005  21.849  0.00  0.00    +0.000 A 
ATOM      3  C   UNL     1       0.837  11.071  21.992  0.00  0.00    +0.000 A 
ATOM      4  N   UNL     1       1.490  10.542  20.956  0.00  0.00    +0.000 NA
ATOM      5  N   UNL     1       0.497  10.113  20.115  0.00  0.00    +0.000 N 
ATOM      6  C   UNL     1       0.797   9.427  18.914  0.00  0.00    +0.000 C 
ATOM      7  O   UNL     1       0.271   9.795  17.870  0.00  0.00    +0.000 OA
ATOM      8  N   UNL     1       1.698   8.352  19.065  0.00  0.00    +0.000 N 
ATOM      9  C   UNL     1       1.993   7.717  20.357  0.00  0.00    +0.000 C 
ATOM     10  C   UNL     1       1.565   6.258  20.478  0.00  0.00    +0.000 C 
ATOM     11  C   UNL     1       2.115   5.263  19.470  0.00  0.00    +0.000 C 
ATOM     12  N   UNL     1       3.219   5.760  18.670  0.00  0.00    +0.000 N 
ATOM     13  C   UNL     1       4.516   5.465  19.081  0.00  0.00    +0.000 C 
ATOM     14  O   UNL     1       4.736   4.784  20.075  0.00  0.00    +0.000 OA
ATOM     15  C   UNL     1       2.866   6.638  17.561  0.00  0.00    +0.000 C 
ATOM     16  C   UNL     1       2.624   8.101  17.953  0.00  0.00    +0.000 C 
ATOM     17  C   UNL     1      -0.748  10.463  20.594  0.00  0.00    +0.000 A 
ENDROOT
BRANCH  13  18
ATOM     18  O   UNL     1       5.483   5.995  18.280  0.00  0.00    +0.000 OA
BRANCH  18  19
ATOM     19  C   UNL     1       6.069   5.153  17.242  0.00  0.00    +0.000 C 
ATOM     20  C   UNL     1       7.480   4.682  17.628  0.00  0.00    +0.000 C 
ATOM     21  C   UNL     1       5.173   3.905  17.137  0.00  0.00    +0.000 C 
ATOM     22  C   UNL     1       6.052   5.851  15.874  0.00  0.00    +0.000 C 
ENDBRANCH  18  19
ENDBRANCH  13  18
TORSDOF 2
ENDMDL
MODEL 8
REMARK VINA RESULT:      -5.3      1.951      7.462
REMARK  Name = 
REMARK  6 active torsions:
REMARK  status: ('A' for Active; 'I' for Inactive)
REMARK    1  A    between atoms: C_1  and  C_2
REMARK    2  A    between atoms: C_13  and  O_15
REMARK    3  A    between atoms: O_15  and  C_16
REMARK    4  A    between atoms: C_16  and  C_17
REMARK    5  A    between atoms: C_16  and  C_18
REMARK    6  A    between atoms: C_16  and  C_19
REMARK                            x       y       z     vdW  Elec       q    Type
REMARK                         _______ _______ _______ _____ _____    ______ ____
ROOT
ATOM      1  C   UNL     1       3.747   1.644  18.739  0.00  0.00    +0.000 C 
ATOM      2  C   UNL     1       3.245   2.969  18.313  0.00  0.00    +0.000 A 
ATOM      3  C   UNL     1       1.931   3.307  17.930  0.00  0.00    +0.000 A 
ATOM      4  N   UNL     1       1.781   4.609  17.686  0.00  0.00    +0.000 NA
ATOM      5  N   UNL     1       3.021   5.142  17.919  0.00  0.00    +0.000 N 
ATOM      6  C   UNL     1       3.253   6.535  17.826  0.00  0.00    +0.000 C 
ATOM      7  O   UNL     1       4.204   6.939  17.168  0.00  0.00    +0.000 OA
ATOM      8  N   UNL     1       2.328   7.329  18.535  0.00  0.00    +0.000 N 
ATOM      9  C   UNL     1       1.459   6.807  19.599  0.00  0.00    +0.000 C 
ATOM     10  C   UNL     1       1.718   7.378  20.990  0.00  0.00    +0.000 C 
ATOM     11  C   UNL     1       1.625   8.884  21.175  0.00  0.00    +0.000 C 
ATOM     12  N   UNL     1       1.016   9.593  20.066  0.00  0.00    +0.000 N 
ATOM     13  C   UNL     1      -0.342   9.894  20.140  0.00  0.00    +0.000 C 
ATOM     14  O   UNL     1      -1.012   9.596  21.121  0.00  0.00    +0.000 OA
ATOM     15  C   UNL     1       1.866   9.822  18.904  0.00  0.00    +0.000 C 
ATOM     16  C   UNL     1       1.980   8.629  17.947  0.00  0.00    +0.000 C 
ATOM     17  C   UNL     1       3.940   4.155  18.212  0.00  0.00    +0.000 A 
ENDROOT
BRANCH  13  18
ATOM     18  O   UNL     1      -0.825  10.538  19.041  0.00  0.00    +0.000 OA
BRANCH  18  19
ATOM     19  C   UNL     1      -1.348  11.892  19.200  0.00  0.00    +0.000 C 
ATOM     20  C   UNL     1      -0.899  12.517  20.530  0.00  0.00    +0.000 C 
ATOM     21  C   UNL     1      -0.740  12.730  18.061  0.00  0.00    +0.000 C 
ATOM     22  C   UNL     1      -2.875  11.928  19.036  0.00  0.00    +0.000 C 
ENDBRANCH  18  19
ENDBRANCH  13  18
TORSDOF 2
ENDMDL
MODEL 9
REMARK VINA RESULT:      -5.2      4.373      6.699
REMARK  Name = 
REMARK  6 active torsions:
REMARK  status: ('A' for Active; 'I' for Inactive)
REMARK    1  A    between atoms: C_1  and  C_2
REMARK    2  A    between atoms: C_13  and  O_15
REMARK    3  A    between atoms: O_15  and  C_16
REMARK    4  A    between atoms: C_16  and  C_17
REMARK    5  A    between atoms: C_16  and  C_18
REMARK    6  A    between atoms: C_16  and  C_19
REMARK                            x       y       z     vdW  Elec       q    Type
REMARK                         _______ _______ _______ _____ _____    ______ ____
ROOT
ATOM      1  C   UNL     1      -7.270  13.733  17.080  0.00  0.00    +0.000 C 
ATOM      2  C   UNL     1      -6.400  13.157  18.128  0.00  0.00    +0.000 A 
ATOM      3  C   UNL     1      -5.746  11.908  18.110  0.00  0.00    +0.000 A 
ATOM      4  N   UNL     1      -4.961  11.718  19.171  0.00  0.00    +0.000 NA
ATOM      5  N   UNL     1      -5.097  12.869  19.901  0.00  0.00    +0.000 N 
ATOM      6  C   UNL     1      -4.355  13.078  21.089  0.00  0.00    +0.000 C 
ATOM      7  O   UNL     1      -4.941  13.447  22.100  0.00  0.00    +0.000 OA
ATOM      8  N   UNL     1      -2.972  12.834  20.965  0.00  0.00    +0.000 N 
ATOM      9  C   UNL     1      -2.272  12.773  19.674  0.00  0.00    +0.000 C 
ATOM     10  C   UNL     1      -1.232  13.865  19.445  0.00  0.00    +0.000 C 
ATOM     11  C   UNL     1      -0.098  13.996  20.447  0.00  0.00    +0.000 C 
ATOM     12  N   UNL     1       0.033  12.878  21.362  0.00  0.00    +0.000 N 
ATOM     13  C   UNL     1       0.946  11.874  21.052  0.00  0.00    +0.000 C 
ATOM     14  O   UNL     1       1.646  11.931  20.048  0.00  0.00    +0.000 OA
ATOM     15  C   UNL     1      -0.905  12.847  22.478  0.00  0.00    +0.000 C 
ATOM     16  C   UNL     1      -2.288  12.277  22.139  0.00  0.00    +0.000 C 
ATOM     17  C   UNL     1      -6.029  13.712  19.333  0.00  0.00    +0.000 A 
ENDROOT
BRANCH  13  18
ATOM     18  O   UNL     1       0.978  10.857  21.959  0.00  0.00    +0.000 OA
BRANCH  18  19
ATOM     19  C   UNL     1       0.411   9.567  21.580  0.00  0.00    +0.000 C 
ATOM     20  C   UNL     1       1.503   8.496  21.423  0.00  0.00    +0.000 C 
ATOM     21  C   UNL     1      -0.503   9.135  22.740  0.00  0.00    +0.000 C 
ATOM     22  C   UNL     1      -0.462   9.684  20.322  0.00  0.00    +0.000 C 
ENDBRANCH  18  19
ENDBRANCH  13  18
TORSDOF 2
ENDMDL
