MODEL 1
REMARK VINA RESULT:      -8.4      0.000      0.000
REMARK  Name = 
REMARK  9 active torsions:
REMARK  status: ('A' for Active; 'I' for Inactive)
REMARK    1  A    between atoms: C_2  and  O_3
REMARK    2  A    between atoms: C_2  and  C_4
REMARK    3  A    between atoms: C_4  and  O_5
REMARK    4  A    between atoms: C_6  and  C_7
REMARK    5  A    between atoms: C_7  and  C_9
REMARK    6  A    between atoms: C_11  and  C_12
REMARK    7  A    between atoms: C_12  and  C_13
REMARK    8  A    between atoms: N_20  and  C_21
REMARK    9  A    between atoms: C_21  and  C_22
REMARK                            x       y       z     vdW  Elec       q    Type
REMARK                         _______ _______ _______ _____ _____    ______ ____
ROOT
ATOM      1  C   UNL     1       1.699   8.693  19.086  0.00  0.00    +0.000 A 
ATOM      2  C   UNL     1       2.441   8.510  17.977  0.00  0.00    +0.000 A 
ATOM      3  C   UNL     1       3.324   7.373  17.822  0.00  0.00    +0.000 A 
ATOM      4  C   UNL     1       3.327   6.427  18.773  0.00  0.00    +0.000 A 
ATOM      5  N   UNL     1       2.552   6.536  19.915  0.00  0.00    +0.000 N 
ATOM      6  C   UNL     1       1.801   7.687  20.196  0.00  0.00    +0.000 A 
ATOM      7  O   UNL     1       1.218   7.854  21.263  0.00  0.00    +0.000 OA
ENDROOT
BRANCH   1   8
ATOM      8  C   UNL     1       0.791   9.890  19.107  0.00  0.00    +0.000 C 
ATOM      9  O   UNL     1       0.979  10.816  19.895  0.00  0.00    +0.000 OA
BRANCH   8  11
ATOM     10  C   UNL     1      -1.424  10.610  18.196  0.00  0.00    +0.000 C 
ATOM     11  C   UNL     1      -0.270   9.939  18.067  0.00  0.00    +0.000 C 
BRANCH  10  13
ATOM     12  O   UNL     1      -3.409   9.849  17.190  0.00  0.00    +0.000 OA
ATOM     13  C   UNL     1      -2.466  10.626  17.127  0.00  0.00    +0.000 C 
BRANCH  13  14
ATOM     14  O   UNL     1      -2.284  11.472  16.097  0.00  0.00    +0.000 OA
ATOM     15  H   UNL     1      -1.518  11.301  15.520  0.00  0.00    +0.000 HD
ENDBRANCH  13  14
ENDBRANCH  10  13
BRANCH  10  16
ATOM     16  O   UNL     1      -1.709  11.374  19.316  0.00  0.00    +0.000 OA
ATOM     17  H   UNL     1      -2.661  11.233  19.503  0.00  0.00    +0.000 HD
ENDBRANCH  10  16
ENDBRANCH   8  11
ENDBRANCH   1   8
BRANCH   3  18
ATOM     18  C   UNL     1       4.169   7.275  16.568  0.00  0.00    +0.000 C 
BRANCH  18  19
ATOM     19  C   UNL     1       5.270   6.247  16.704  0.00  0.00    +0.000 A 
ATOM     20  C   UNL     1       6.404   6.525  17.482  0.00  0.00    +0.000 A 
ATOM     21  C   UNL     1       7.494   5.655  17.480  0.00  0.00    +0.000 A 
ATOM     22  C   UNL     1       7.455   4.491  16.716  0.00  0.00    +0.000 A 
ATOM     23  C   UNL     1       6.312   4.176  15.983  0.00  0.00    +0.000 A 
ATOM     24  C   UNL     1       5.223   5.049  15.978  0.00  0.00    +0.000 A 
ENDBRANCH  18  19
ENDBRANCH   3  18
BRANCH   5  25
ATOM     25  C   UNL     1       2.534   5.424  20.873  0.00  0.00    +0.000 C 
BRANCH  25  26
ATOM     26  C   UNL     1       2.183   4.110  20.230  0.00  0.00    +0.000 A 
ATOM     27  C   UNL     1       3.189   3.222  19.822  0.00  0.00    +0.000 A 
ATOM     28  C   UNL     1       2.865   2.105  19.052  0.00  0.00    +0.000 A 
ATOM     29 CL   UNL     1       4.119   1.086  18.463  0.00  0.00    +0.000 Cl
ATOM     30  C   UNL     1       1.538   1.836  18.718  0.00  0.00    +0.000 A 
ATOM     31  C   UNL     1       0.525   2.674  19.184  0.00  0.00    +0.000 A 
ATOM     32  C   UNL     1       0.854   3.798  19.933  0.00  0.00    +0.000 A 
ATOM     33  F   UNL     1      -0.132   4.604  20.353  0.00  0.00    +0.000 F 
ENDBRANCH  25  26
ENDBRANCH   5  25
TORSDOF 9
ENDMDL
MODEL 2
REMARK VINA RESULT:      -8.2      5.075      7.860
REMARK  Name = 
REMARK  9 active torsions:
REMARK  status: ('A' for Active; 'I' for Inactive)
REMARK    1  A    between atoms: C_2  and  O_3
REMARK    2  A    between atoms: C_2  and  C_4
REMARK    3  A    between atoms: C_4  and  O_5
REMARK    4  A    between atoms: C_6  and  C_7
REMARK    5  A    between atoms: C_7  and  C_9
REMARK    6  A    between atoms: C_11  and  C_12
REMARK    7  A    between atoms: C_12  and  C_13
REMARK    8  A    between atoms: N_20  and  C_21
REMARK    9  A    between atoms: C_21  and  C_22
REMARK                            x       y       z     vdW  Elec       q    Type
REMARK                         _______ _______ _______ _____ _____    ______ ____
ROOT
ATOM      1  C   UNL     1       5.441   4.999  15.751  0.00  0.00    +0.000 A 
ATOM      2  C   UNL     1       4.564   4.026  16.065  0.00  0.00    +0.000 A 
ATOM      3  C   UNL     1       3.494   4.234  17.018  0.00  0.00    +0.000 A 
ATOM      4  C   UNL     1       3.316   5.463  17.526  0.00  0.00    +0.000 A 
ATOM      5  N   UNL     1       4.156   6.516  17.206  0.00  0.00    +0.000 N 
ATOM      6  C   UNL     1       5.303   6.337  16.418  0.00  0.00    +0.000 A 
ATOM      7  O   UNL     1       6.128   7.228  16.237  0.00  0.00    +0.000 OA
ENDROOT
BRANCH   1   8
ATOM      8  C   UNL     1       6.480   4.669  14.718  0.00  0.00    +0.000 C 
ATOM      9  O   UNL     1       7.569   5.244  14.705  0.00  0.00    +0.000 OA
BRANCH   8  11
ATOM     10  C   UNL     1       6.548   3.510  12.502  0.00  0.00    +0.000 C 
ATOM     11  C   UNL     1       6.164   3.554  13.787  0.00  0.00    +0.000 C 
BRANCH  10  13
ATOM     12  O   UNL     1       5.033   2.182  11.289  0.00  0.00    +0.000 OA
ATOM     13  C   UNL     1       6.201   2.371  11.601  0.00  0.00    +0.000 C 
BRANCH  13  14
ATOM     14  O   UNL     1       7.202   1.561  11.214  0.00  0.00    +0.000 OA
ATOM     15  H   UNL     1       8.079   1.732  11.603  0.00  0.00    +0.000 HD
ENDBRANCH  13  14
ENDBRANCH  10  13
BRANCH  10  16
ATOM     16  O   UNL     1       7.333   4.500  11.936  0.00  0.00    +0.000 OA
ATOM     17  H   UNL     1       7.941   4.800  12.644  0.00  0.00    +0.000 HD
ENDBRANCH  10  16
ENDBRANCH   8  11
ENDBRANCH   1   8
BRANCH   3  18
ATOM     18  C   UNL     1       2.588   3.069  17.360  0.00  0.00    +0.000 C 
BRANCH  18  19
ATOM     19  C   UNL     1       2.330   2.967  18.847  0.00  0.00    +0.000 A 
ATOM     20  C   UNL     1       1.105   3.391  19.382  0.00  0.00    +0.000 A 
ATOM     21  C   UNL     1       0.921   3.455  20.763  0.00  0.00    +0.000 A 
ATOM     22  C   UNL     1       1.950   3.077  21.622  0.00  0.00    +0.000 A 
ATOM     23  C   UNL     1       3.152   2.599  21.101  0.00  0.00    +0.000 A 
ATOM     24  C   UNL     1       3.342   2.542  19.720  0.00  0.00    +0.000 A 
ENDBRANCH  18  19
ENDBRANCH   3  18
BRANCH   5  25
ATOM     25  C   UNL     1       3.852   7.854  17.726  0.00  0.00    +0.000 C 
BRANCH  25  26
ATOM     26  C   UNL     1       2.696   7.853  18.688  0.00  0.00    +0.000 A 
ATOM     27  C   UNL     1       1.656   8.786  18.558  0.00  0.00    +0.000 A 
ATOM     28  C   UNL     1       0.696   8.906  19.563  0.00  0.00    +0.000 A 
ATOM     29 CL   UNL     1      -0.507  10.130  19.446  0.00  0.00    +0.000 Cl
ATOM     30  C   UNL     1       0.734   8.075  20.682  0.00  0.00    +0.000 A 
ATOM     31  C   UNL     1       1.721   7.095  20.782  0.00  0.00    +0.000 A 
ATOM     32  C   UNL     1       2.689   6.991  19.789  0.00  0.00    +0.000 A 
ATOM     33  F   UNL     1       3.643   6.058  19.913  0.00  0.00    +0.000 F 
ENDBRANCH  25  26
ENDBRANCH   5  25
TORSDOF 9
ENDMDL
MODEL 3
REMARK VINA RESULT:      -8.1      2.505      4.928
REMARK  Name = 
REMARK  9 active torsions:
REMARK  status: ('A' for Active; 'I' for Inactive)
REMARK    1  A    between atoms: C_2  and  O_3
REMARK    2  A    between atoms: C_2  and  C_4
REMARK    3  A    between atoms: C_4  and  O_5
REMARK    4  A    between atoms: C_6  and  C_7
REMARK    5  A    between atoms: C_7  and  C_9
REMARK    6  A    between atoms: C_11  and  C_12
REMARK    7  A    between atoms: C_12  and  C_13
REMARK    8  A    between atoms: N_20  and  C_21
REMARK    9  A    between atoms: C_21  and  C_22
REMARK                            x       y       z     vdW  Elec       q    Type
REMARK                         _______ _______ _______ _____ _____    ______ ____
ROOT
ATOM      1  C   UNL     1       1.744   8.570  19.263  0.00  0.00    +0.000 A 
ATOM      2  C   UNL     1       1.681   7.505  20.085  0.00  0.00    +0.000 A 
ATOM      3  C   UNL     1       2.345   6.256  19.777  0.00  0.00    +0.000 A 
ATOM      4  C   UNL     1       3.126   6.195  18.688  0.00  0.00    +0.000 A 
ATOM      5  N   UNL     1       3.267   7.271  17.828  0.00  0.00    +0.000 N 
ATOM      6  C   UNL     1       2.523   8.450  17.985  0.00  0.00    +0.000 A 
ATOM      7  O   UNL     1       2.537   9.358  17.159  0.00  0.00    +0.000 OA
ENDROOT
BRANCH   1   8
ATOM      8  C   UNL     1       1.045   9.820  19.716  0.00  0.00    +0.000 C 
ATOM      9  O   UNL     1       0.782  10.725  18.923  0.00  0.00    +0.000 OA
BRANCH   8  11
ATOM     10  C   UNL     1      -0.453  10.558  21.579  0.00  0.00    +0.000 C 
ATOM     11  C   UNL     1       0.603   9.859  21.135  0.00  0.00    +0.000 C 
BRANCH  10  13
ATOM     12  O   UNL     1      -1.786  11.283  23.376  0.00  0.00    +0.000 OA
ATOM     13  C   UNL     1      -0.856  10.573  23.017  0.00  0.00    +0.000 C 
BRANCH  13  14
ATOM     14  O   UNL     1      -0.127   9.834  23.871  0.00  0.00    +0.000 OA
ATOM     15  H   UNL     1      -0.219  10.041  24.819  0.00  0.00    +0.000 HD
ENDBRANCH  13  14
ENDBRANCH  10  13
BRANCH  10  16
ATOM     16  O   UNL     1      -1.268  11.280  20.724  0.00  0.00    +0.000 OA
ATOM     17  H   UNL     1      -1.184  12.218  20.999  0.00  0.00    +0.000 HD
ENDBRANCH  10  16
ENDBRANCH   8  11
ENDBRANCH   1   8
BRANCH   3  18
ATOM     18  C   UNL     1       2.174   5.088  20.726  0.00  0.00    +0.000 C 
BRANCH  18  19
ATOM     19  C   UNL     1       2.412   3.760  20.043  0.00  0.00    +0.000 A 
ATOM     20  C   UNL     1       3.709   3.231  19.958  0.00  0.00    +0.000 A 
ATOM     21  C   UNL     1       3.960   2.095  19.190  0.00  0.00    +0.000 A 
ATOM     22  C   UNL     1       2.917   1.465  18.515  0.00  0.00    +0.000 A 
ATOM     23  C   UNL     1       1.615   1.948  18.637  0.00  0.00    +0.000 A 
ATOM     24  C   UNL     1       1.362   3.089  19.399  0.00  0.00    +0.000 A 
ENDBRANCH  18  19
ENDBRANCH   3  18
BRANCH   5  25
ATOM     25  C   UNL     1       4.205   7.167  16.704  0.00  0.00    +0.000 C 
BRANCH  25  26
ATOM     26  C   UNL     1       5.312   6.181  16.962  0.00  0.00    +0.000 A 
ATOM     27  C   UNL     1       6.072   6.251  18.140  0.00  0.00    +0.000 A 
ATOM     28  C   UNL     1       7.215   5.465  18.280  0.00  0.00    +0.000 A 
ATOM     29 CL   UNL     1       8.201   5.642  19.678  0.00  0.00    +0.000 Cl
ATOM     30  C   UNL     1       7.590   4.575  17.275  0.00  0.00    +0.000 A 
ATOM     31  C   UNL     1       6.798   4.446  16.134  0.00  0.00    +0.000 A 
ATOM     32  C   UNL     1       5.670   5.245  15.988  0.00  0.00    +0.000 A 
ATOM     33  F   UNL     1       4.933   5.124  14.874  0.00  0.00    +0.000 F 
ENDBRANCH  25  26
ENDBRANCH   5  25
TORSDOF 9
ENDMDL
MODEL 4
REMARK VINA RESULT:      -8.1      1.035      1.414
REMARK  Name = 
REMARK  9 active torsions:
REMARK  status: ('A' for Active; 'I' for Inactive)
REMARK    1  A    between atoms: C_2  and  O_3
REMARK    2  A    between atoms: C_2  and  C_4
REMARK    3  A    between atoms: C_4  and  O_5
REMARK    4  A    between atoms: C_6  and  C_7
REMARK    5  A    between atoms: C_7  and  C_9
REMARK    6  A    between atoms: C_11  and  C_12
REMARK    7  A    between atoms: C_12  and  C_13
REMARK    8  A    between atoms: N_20  and  C_21
REMARK    9  A    between atoms: C_21  and  C_22
REMARK                            x       y       z     vdW  Elec       q    Type
REMARK                         _______ _______ _______ _____ _____    ______ ____
ROOT
ATOM      1  C   UNL     1       1.686   8.865  19.091  0.00  0.00    +0.000 A 
ATOM      2  C   UNL     1       2.496   8.715  18.025  0.00  0.00    +0.000 A 
ATOM      3  C   UNL     1       3.226   7.490  17.780  0.00  0.00    +0.000 A 
ATOM      4  C   UNL     1       3.010   6.441  18.588  0.00  0.00    +0.000 A 
ATOM      5  N   UNL     1       2.155   6.518  19.674  0.00  0.00    +0.000 N 
ATOM      6  C   UNL     1       1.546   7.723  20.056  0.00  0.00    +0.000 A 
ATOM      7  O   UNL     1       0.895   7.838  21.090  0.00  0.00    +0.000 OA
ENDROOT
BRANCH   1   8
ATOM      8  C   UNL     1       0.954  10.171  19.210  0.00  0.00    +0.000 C 
ATOM      9  O   UNL     1       1.483  11.152  19.733  0.00  0.00    +0.000 OA
BRANCH   8  11
ATOM     10  C   UNL     1      -0.926  11.356  18.061  0.00  0.00    +0.000 C 
ATOM     11  C   UNL     1      -0.390  10.240  18.578  0.00  0.00    +0.000 C 
BRANCH  10  13
ATOM     12  O   UNL     1      -3.271  11.206  18.142  0.00  0.00    +0.000 OA
ATOM     13  C   UNL     1      -2.284  11.381  17.441  0.00  0.00    +0.000 C 
BRANCH  13  14
ATOM     14  O   UNL     1      -2.353  11.542  16.108  0.00  0.00    +0.000 OA
ATOM     15  H   UNL     1      -2.665  10.778  15.590  0.00  0.00    +0.000 HD
ENDBRANCH  13  14
ENDBRANCH  10  13
BRANCH  10  16
ATOM     16  O   UNL     1      -0.234  12.556  18.027  0.00  0.00    +0.000 OA
ATOM     17  H   UNL     1       0.147  12.672  18.924  0.00  0.00    +0.000 HD
ENDBRANCH  10  16
ENDBRANCH   8  11
ENDBRANCH   1   8
BRANCH   3  18
ATOM     18  C   UNL     1       4.162   7.426  16.590  0.00  0.00    +0.000 C 
BRANCH  18  19
ATOM     19  C   UNL     1       5.301   6.456  16.814  0.00  0.00    +0.000 A 
ATOM     20  C   UNL     1       5.157   5.105  16.464  0.00  0.00    +0.000 A 
ATOM     21  C   UNL     1       6.135   4.175  16.817  0.00  0.00    +0.000 A 
ATOM     22  C   UNL     1       7.274   4.588  17.504  0.00  0.00    +0.000 A 
ATOM     23  C   UNL     1       7.455   5.937  17.806  0.00  0.00    +0.000 A 
ATOM     24  C   UNL     1       6.474   6.868  17.461  0.00  0.00    +0.000 A 
ENDBRANCH  18  19
ENDBRANCH   3  18
BRANCH   5  25
ATOM     25  C   UNL     1       1.896   5.309  20.465  0.00  0.00    +0.000 C 
BRANCH  25  26
ATOM     26  C   UNL     1       2.350   4.054  19.771  0.00  0.00    +0.000 A 
ATOM     27  C   UNL     1       3.338   3.238  20.342  0.00  0.00    +0.000 A 
ATOM     28  C   UNL     1       3.891   2.192  19.606  0.00  0.00    +0.000 A 
ATOM     29 CL   UNL     1       5.180   1.270  20.275  0.00  0.00    +0.000 Cl
ATOM     30  C   UNL     1       3.442   1.920  18.314  0.00  0.00    +0.000 A 
ATOM     31  C   UNL     1       2.408   2.680  17.768  0.00  0.00    +0.000 A 
ATOM     32  C   UNL     1       1.872   3.735  18.497  0.00  0.00    +0.000 A 
ATOM     33  F   UNL     1       0.895   4.469  17.946  0.00  0.00    +0.000 F 
ENDBRANCH  25  26
ENDBRANCH   5  25
TORSDOF 9
ENDMDL
MODEL 5
REMARK VINA RESULT:      -8.1      1.428      2.637
REMARK  Name = 
REMARK  9 active torsions:
REMARK  status: ('A' for Active; 'I' for Inactive)
REMARK    1  A    between atoms: C_2  and  O_3
REMARK    2  A    between atoms: C_2  and  C_4
REMARK    3  A    between atoms: C_4  and  O_5
REMARK    4  A    between atoms: C_6  and  C_7
REMARK    5  A    between atoms: C_7  and  C_9
REMARK    6  A    between atoms: C_11  and  C_12
REMARK    7  A    between atoms: C_12  and  C_13
REMARK    8  A    between atoms: N_20  and  C_21
REMARK    9  A    between atoms: C_21  and  C_22
REMARK                            x       y       z     vdW  Elec       q    Type
REMARK                         _______ _______ _______ _____ _____    ______ ____
ROOT
ATOM      1  C   UNL     1       1.769   8.691  18.717  0.00  0.00    +0.000 A 
ATOM      2  C   UNL     1       2.564   8.486  17.649  0.00  0.00    +0.000 A 
ATOM      3  C   UNL     1       3.499   7.383  17.587  0.00  0.00    +0.000 A 
ATOM      4  C   UNL     1       3.501   6.485  18.584  0.00  0.00    +0.000 A 
ATOM      5  N   UNL     1       2.675   6.615  19.687  0.00  0.00    +0.000 N 
ATOM      6  C   UNL     1       1.867   7.745  19.880  0.00  0.00    +0.000 A 
ATOM      7  O   UNL     1       1.233   7.939  20.913  0.00  0.00    +0.000 OA
ENDROOT
BRANCH   1   8
ATOM      8  C   UNL     1       0.813   9.847  18.642  0.00  0.00    +0.000 C 
ATOM      9  O   UNL     1      -0.260   9.747  18.048  0.00  0.00    +0.000 OA
BRANCH   8  11
ATOM     10  C   UNL     1       1.933  12.069  18.906  0.00  0.00    +0.000 C 
ATOM     11  C   UNL     1       1.187  11.069  19.401  0.00  0.00    +0.000 C 
BRANCH  10  13
ATOM     12  O   UNL     1       2.638  14.300  19.138  0.00  0.00    +0.000 OA
ATOM     13  C   UNL     1       2.289  13.276  19.709  0.00  0.00    +0.000 C 
BRANCH  13  14
ATOM     14  O   UNL     1       2.260  13.159  21.048  0.00  0.00    +0.000 OA
ATOM     15  H   UNL     1       2.805  12.451  21.438  0.00  0.00    +0.000 HD
ENDBRANCH  13  14
ENDBRANCH  10  13
BRANCH  10  16
ATOM     16  O   UNL     1       2.387  12.067  17.598  0.00  0.00    +0.000 OA
ATOM     17  H   UNL     1       2.922  12.883  17.498  0.00  0.00    +0.000 HD
ENDBRANCH  10  16
ENDBRANCH   8  11
ENDBRANCH   1   8
BRANCH   3  18
ATOM     18  C   UNL     1       4.399   7.260  16.374  0.00  0.00    +0.000 C 
BRANCH  18  19
ATOM     19  C   UNL     1       5.578   6.348  16.631  0.00  0.00    +0.000 A 
ATOM     20  C   UNL     1       5.611   5.062  16.072  0.00  0.00    +0.000 A 
ATOM     21  C   UNL     1       6.610   4.158  16.436  0.00  0.00    +0.000 A 
ATOM     22  C   UNL     1       7.595   4.536  17.345  0.00  0.00    +0.000 A 
ATOM     23  C   UNL     1       7.604   5.831  17.863  0.00  0.00    +0.000 A 
ATOM     24  C   UNL     1       6.602   6.734  17.507  0.00  0.00    +0.000 A 
ENDBRANCH  18  19
ENDBRANCH   3  18
BRANCH   5  25
ATOM     25  C   UNL     1       2.663   5.552  20.698  0.00  0.00    +0.000 C 
BRANCH  25  26
ATOM     26  C   UNL     1       2.267   4.216  20.130  0.00  0.00    +0.000 A 
ATOM     27  C   UNL     1       3.239   3.324  19.655  0.00  0.00    +0.000 A 
ATOM     28  C   UNL     1       2.855   2.181  18.954  0.00  0.00    +0.000 A 
ATOM     29 CL   UNL     1       4.058   1.154  18.278  0.00  0.00    +0.000 Cl
ATOM     30  C   UNL     1       1.506   1.893  18.755  0.00  0.00    +0.000 A 
ATOM     31  C   UNL     1       0.533   2.736  19.290  0.00  0.00    +0.000 A 
ATOM     32  C   UNL     1       0.919   3.885  19.971  0.00  0.00    +0.000 A 
ATOM     33  F   UNL     1      -0.032   4.696  20.458  0.00  0.00    +0.000 F 
ENDBRANCH  25  26
ENDBRANCH   5  25
TORSDOF 9
ENDMDL
MODEL 6
REMARK VINA RESULT:      -8.1      2.037      4.307
REMARK  Name = 
REMARK  9 active torsions:
REMARK  status: ('A' for Active; 'I' for Inactive)
REMARK    1  A    between atoms: C_2  and  O_3
REMARK    2  A    between atoms: C_2  and  C_4
REMARK    3  A    between atoms: C_4  and  O_5
REMARK    4  A    between atoms: C_6  and  C_7
REMARK    5  A    between atoms: C_7  and  C_9
REMARK    6  A    between atoms: C_11  and  C_12
REMARK    7  A    between atoms: C_12  and  C_13
REMARK    8  A    between atoms: N_20  and  C_21
REMARK    9  A    between atoms: C_21  and  C_22
REMARK                            x       y       z     vdW  Elec       q    Type
REMARK                         _______ _______ _______ _____ _____    ______ ____
ROOT
ATOM      1  C   UNL     1       1.518   8.510  19.435  0.00  0.00    +0.000 A 
ATOM      2  C   UNL     1       1.506   7.423  20.229  0.00  0.00    +0.000 A 
ATOM      3  C   UNL     1       2.273   6.235  19.918  0.00  0.00    +0.000 A 
ATOM      4  C   UNL     1       3.094   6.260  18.857  0.00  0.00    +0.000 A 
ATOM      5  N   UNL     1       3.185   7.365  18.029  0.00  0.00    +0.000 N 
ATOM      6  C   UNL     1       2.349   8.481  18.184  0.00  0.00    +0.000 A 
ATOM      7  O   UNL     1       2.324   9.408  17.380  0.00  0.00    +0.000 OA
ENDROOT
BRANCH   1   8
ATOM      8  C   UNL     1       0.711   9.693  19.889  0.00  0.00    +0.000 C 
ATOM      9  O   UNL     1       1.089  10.399  20.824  0.00  0.00    +0.000 OA
BRANCH   8  11
ATOM     10  C   UNL     1      -0.850  11.259  18.719  0.00  0.00    +0.000 C 
ATOM     11  C   UNL     1      -0.500  10.019  19.091  0.00  0.00    +0.000 C 
BRANCH  10  13
ATOM     12  O   UNL     1      -3.177  11.240  18.378  0.00  0.00    +0.000 OA
ATOM     13  C   UNL     1      -2.081  11.540  17.923  0.00  0.00    +0.000 C 
BRANCH  13  14
ATOM     14  O   UNL     1      -1.918  12.069  16.697  0.00  0.00    +0.000 OA
ATOM     15  H   UNL     1      -2.616  12.673  16.384  0.00  0.00    +0.000 HD
ENDBRANCH  13  14
ENDBRANCH  10  13
BRANCH  10  16
ATOM     16  O   UNL     1      -0.065  12.362  19.012  0.00  0.00    +0.000 OA
ATOM     17  H   UNL     1       0.178  12.757  18.147  0.00  0.00    +0.000 HD
ENDBRANCH  10  16
ENDBRANCH   8  11
ENDBRANCH   1   8
BRANCH   3  18
ATOM     18  C   UNL     1       2.156   5.033  20.834  0.00  0.00    +0.000 C 
BRANCH  18  19
ATOM     19  C   UNL     1       2.457   3.738  20.113  0.00  0.00    +0.000 A 
ATOM     20  C   UNL     1       3.766   3.234  20.084  0.00  0.00    +0.000 A 
ATOM     21  C   UNL     1       4.082   2.134  19.287  0.00  0.00    +0.000 A 
ATOM     22  C   UNL     1       3.091   1.515  18.528  0.00  0.00    +0.000 A 
ATOM     23  C   UNL     1       1.776   1.972  18.593  0.00  0.00    +0.000 A 
ATOM     24  C   UNL     1       1.458   3.077  19.384  0.00  0.00    +0.000 A 
ENDBRANCH  18  19
ENDBRANCH   3  18
BRANCH   5  25
ATOM     25  C   UNL     1       4.167   7.359  16.938  0.00  0.00    +0.000 C 
BRANCH  25  26
ATOM     26  C   UNL     1       5.239   6.321  17.129  0.00  0.00    +0.000 A 
ATOM     27  C   UNL     1       6.001   6.288  18.307  0.00  0.00    +0.000 A 
ATOM     28  C   UNL     1       7.117   5.455  18.393  0.00  0.00    +0.000 A 
ATOM     29 CL   UNL     1       8.108   5.507  19.797  0.00  0.00    +0.000 Cl
ATOM     30  C   UNL     1       7.460   4.619  17.331  0.00  0.00    +0.000 A 
ATOM     31  C   UNL     1       6.663   4.592  16.187  0.00  0.00    +0.000 A 
ATOM     32  C   UNL     1       5.564   5.438  16.096  0.00  0.00    +0.000 A 
ATOM     33  F   UNL     1       4.823   5.414  14.978  0.00  0.00    +0.000 F 
ENDBRANCH  25  26
ENDBRANCH   5  25
TORSDOF 9
ENDMDL
MODEL 7
REMARK VINA RESULT:      -8.1      3.504      6.609
REMARK  Name = 
REMARK  9 active torsions:
REMARK  status: ('A' for Active; 'I' for Inactive)
REMARK    1  A    between atoms: C_2  and  O_3
REMARK    2  A    between atoms: C_2  and  C_4
REMARK    3  A    between atoms: C_4  and  O_5
REMARK    4  A    between atoms: C_6  and  C_7
REMARK    5  A    between atoms: C_7  and  C_9
REMARK    6  A    between atoms: C_11  and  C_12
REMARK    7  A    between atoms: C_12  and  C_13
REMARK    8  A    between atoms: N_20  and  C_21
REMARK    9  A    between atoms: C_21  and  C_22
REMARK                            x       y       z     vdW  Elec       q    Type
REMARK                         _______ _______ _______ _____ _____    ______ ____
ROOT
ATOM      1  C   UNL     1       3.838   6.124  17.235  0.00  0.00    +0.000 A 
ATOM      2  C   UNL     1       3.289   4.959  17.627  0.00  0.00    +0.000 A 
ATOM      3  C   UNL     1       3.862   3.679  17.268  0.00  0.00    +0.000 A 
ATOM      4  C   UNL     1       5.029   3.661  16.607  0.00  0.00    +0.000 A 
ATOM      5  N   UNL     1       5.667   4.826  16.216  0.00  0.00    +0.000 N 
ATOM      6  C   UNL     1       5.081   6.088  16.392  0.00  0.00    +0.000 A 
ATOM      7  O   UNL     1       5.569   7.116  15.932  0.00  0.00    +0.000 OA
ENDROOT
BRANCH   1   8
ATOM      8  C   UNL     1       3.171   7.384  17.707  0.00  0.00    +0.000 C 
ATOM      9  O   UNL     1       3.048   8.357  16.963  0.00  0.00    +0.000 OA
BRANCH   8  11
ATOM     10  C   UNL     1       1.814   8.326  19.587  0.00  0.00    +0.000 C 
ATOM     11  C   UNL     1       2.584   7.354  19.073  0.00  0.00    +0.000 C 
BRANCH  10  13
ATOM     12  O   UNL     1       0.602   9.197  21.404  0.00  0.00    +0.000 OA
ATOM     13  C   UNL     1       1.251   8.256  20.967  0.00  0.00    +0.000 C 
BRANCH  13  14
ATOM     14  O   UNL     1       1.537   7.164  21.698  0.00  0.00    +0.000 OA
ATOM     15  H   UNL     1       1.548   6.312  21.226  0.00  0.00    +0.000 HD
ENDBRANCH  13  14
ENDBRANCH  10  13
BRANCH  10  16
ATOM     16  O   UNL     1       1.454   9.443  18.851  0.00  0.00    +0.000 OA
ATOM     17  H   UNL     1       0.500   9.336  18.649  0.00  0.00    +0.000 HD
ENDBRANCH  10  16
ENDBRANCH   8  11
ENDBRANCH   1   8
BRANCH   3  18
ATOM     18  C   UNL     1       3.147   2.415  17.700  0.00  0.00    +0.000 C 
BRANCH  18  19
ATOM     19  C   UNL     1       2.499   2.564  19.058  0.00  0.00    +0.000 A 
ATOM     20  C   UNL     1       1.149   2.931  19.161  0.00  0.00    +0.000 A 
ATOM     21  C   UNL     1       0.590   3.230  20.403  0.00  0.00    +0.000 A 
ATOM     22  C   UNL     1       1.368   3.146  21.556  0.00  0.00    +0.000 A 
ATOM     23  C   UNL     1       2.695   2.728  21.472  0.00  0.00    +0.000 A 
ATOM     24  C   UNL     1       3.259   2.435  20.230  0.00  0.00    +0.000 A 
ENDBRANCH  18  19
ENDBRANCH   3  18
BRANCH   5  25
ATOM     25  C   UNL     1       6.984   4.737  15.574  0.00  0.00    +0.000 C 
BRANCH  25  26
ATOM     26  C   UNL     1       6.893   4.588  14.080  0.00  0.00    +0.000 A 
ATOM     27  C   UNL     1       5.957   3.715  13.504  0.00  0.00    +0.000 A 
ATOM     28  C   UNL     1       6.011   3.435  12.139  0.00  0.00    +0.000 A 
ATOM     29 CL   UNL     1       4.932   2.278  11.465  0.00  0.00    +0.000 Cl
ATOM     30  C   UNL     1       6.965   4.049  11.328  0.00  0.00    +0.000 A 
ATOM     31  C   UNL     1       7.850   4.975  11.881  0.00  0.00    +0.000 A 
ATOM     32  C   UNL     1       7.806   5.236  13.245  0.00  0.00    +0.000 A 
ATOM     33  F   UNL     1       8.680   6.112  13.762  0.00  0.00    +0.000 F 
ENDBRANCH  25  26
ENDBRANCH   5  25
TORSDOF 9
ENDMDL
MODEL 8
REMARK VINA RESULT:      -7.9      4.437      7.490
REMARK  Name = 
REMARK  9 active torsions:
REMARK  status: ('A' for Active; 'I' for Inactive)
REMARK    1  A    between atoms: C_2  and  O_3
REMARK    2  A    between atoms: C_2  and  C_4
REMARK    3  A    between atoms: C_4  and  O_5
REMARK    4  A    between atoms: C_6  and  C_7
REMARK    5  A    between atoms: C_7  and  C_9
REMARK    6  A    between atoms: C_11  and  C_12
REMARK    7  A    between atoms: C_12  and  C_13
REMARK    8  A    between atoms: N_20  and  C_21
REMARK    9  A    between atoms: C_21  and  C_22
REMARK                            x       y       z     vdW  Elec       q    Type
REMARK                         _______ _______ _______ _____ _____    ______ ____
ROOT
ATOM      1  C   UNL     1      -0.913  10.243  17.742  0.00  0.00    +0.000 A 
ATOM      2  C   UNL     1       0.099   9.366  17.601  0.00  0.00    +0.000 A 
ATOM      3  C   UNL     1       1.430   9.640  18.100  0.00  0.00    +0.000 A 
ATOM      4  C   UNL     1       1.632  10.760  18.810  0.00  0.00    +0.000 A 
ATOM      5  N   UNL     1       0.620  11.679  19.029  0.00  0.00    +0.000 N 
ATOM      6  C   UNL     1      -0.644  11.548  18.435  0.00  0.00    +0.000 A 
ATOM      7  O   UNL     1      -1.505  12.419  18.510  0.00  0.00    +0.000 OA
ENDROOT
BRANCH   1   8
ATOM      8  C   UNL     1      -2.256   9.823  17.217  0.00  0.00    +0.000 C 
ATOM      9  O   UNL     1      -3.222   9.697  17.968  0.00  0.00    +0.000 OA
BRANCH   8  11
ATOM     10  C   UNL     1      -3.428  10.082  15.022  0.00  0.00    +0.000 C 
ATOM     11  C   UNL     1      -2.375   9.669  15.743  0.00  0.00    +0.000 C 
BRANCH  10  13
ATOM     12  O   UNL     1      -4.602   9.848  12.997  0.00  0.00    +0.000 OA
ATOM     13  C   UNL     1      -3.508   9.900  13.542  0.00  0.00    +0.000 C 
BRANCH  13  14
ATOM     14  O   UNL     1      -2.351   9.743  12.875  0.00  0.00    +0.000 OA
ATOM     15  H   UNL     1      -1.564   9.529  13.408  0.00  0.00    +0.000 HD
ENDBRANCH  13  14
ENDBRANCH  10  13
BRANCH  10  16
ATOM     16  O   UNL     1      -4.498  10.747  15.599  0.00  0.00    +0.000 OA
ATOM     17  H   UNL     1      -4.573  11.601  15.122  0.00  0.00    +0.000 HD
ENDBRANCH  10  16
ENDBRANCH   8  11
ENDBRANCH   1   8
BRANCH   3  18
ATOM     18  C   UNL     1       2.526   8.625  17.845  0.00  0.00    +0.000 C 
BRANCH  18  19
ATOM     19  C   UNL     1       2.354   7.379  18.684  0.00  0.00    +0.000 A 
ATOM     20  C   UNL     1       2.435   6.111  18.091  0.00  0.00    +0.000 A 
ATOM     21  C   UNL     1       2.115   4.966  18.822  0.00  0.00    +0.000 A 
ATOM     22  C   UNL     1       1.731   5.076  20.156  0.00  0.00    +0.000 A 
ATOM     23  C   UNL     1       1.701   6.326  20.772  0.00  0.00    +0.000 A 
ATOM     24  C   UNL     1       2.013   7.473  20.042  0.00  0.00    +0.000 A 
ENDBRANCH  18  19
ENDBRANCH   3  18
BRANCH   5  25
ATOM     25  C   UNL     1       0.885  12.839  19.889  0.00  0.00    +0.000 C 
BRANCH  25  26
ATOM     26  C   UNL     1       1.507  13.986  19.140  0.00  0.00    +0.000 A 
ATOM     27  C   UNL     1       2.828  13.902  18.673  0.00  0.00    +0.000 A 
ATOM     28  C   UNL     1       3.459  15.034  18.159  0.00  0.00    +0.000 A 
ATOM     29 CL   UNL     1       5.113  14.948  17.696  0.00  0.00    +0.000 Cl
ATOM     30  C   UNL     1       2.775  16.245  18.064  0.00  0.00    +0.000 A 
ATOM     31  C   UNL     1       1.438  16.316  18.456  0.00  0.00    +0.000 A 
ATOM     32  C   UNL     1       0.818  15.191  18.988  0.00  0.00    +0.000 A 
ATOM     33  F   UNL     1      -0.461  15.285  19.381  0.00  0.00    +0.000 F 
ENDBRANCH  25  26
ENDBRANCH   5  25
TORSDOF 9
ENDMDL
MODEL 9
REMARK VINA RESULT:      -7.9      1.878      4.371
REMARK  Name = 
REMARK  9 active torsions:
REMARK  status: ('A' for Active; 'I' for Inactive)
REMARK    1  A    between atoms: C_2  and  O_3
REMARK    2  A    between atoms: C_2  and  C_4
REMARK    3  A    between atoms: C_4  and  O_5
REMARK    4  A    between atoms: C_6  and  C_7
REMARK    5  A    between atoms: C_7  and  C_9
REMARK    6  A    between atoms: C_11  and  C_12
REMARK    7  A    between atoms: C_12  and  C_13
REMARK    8  A    between atoms: N_20  and  C_21
REMARK    9  A    between atoms: C_21  and  C_22
REMARK                            x       y       z     vdW  Elec       q    Type
REMARK                         _______ _______ _______ _____ _____    ______ ____
ROOT
ATOM      1  C   UNL     1       1.466   8.765  19.525  0.00  0.00    +0.000 A 
ATOM      2  C   UNL     1       1.575   7.684  20.320  0.00  0.00    +0.000 A 
ATOM      3  C   UNL     1       2.375   6.535  19.951  0.00  0.00    +0.000 A 
ATOM      4  C   UNL     1       3.105   6.595  18.827  0.00  0.00    +0.000 A 
ATOM      5  N   UNL     1       3.071   7.698  17.991  0.00  0.00    +0.000 N 
ATOM      6  C   UNL     1       2.194   8.770  18.211  0.00  0.00    +0.000 A 
ATOM      7  O   UNL     1       2.056   9.689  17.410  0.00  0.00    +0.000 OA
ENDROOT
BRANCH   1   8
ATOM      8  C   UNL     1       0.639   9.908  20.041  0.00  0.00    +0.000 C 
ATOM      9  O   UNL     1       1.049  10.632  20.947  0.00  0.00    +0.000 OA
BRANCH   8  11
ATOM     10  C   UNL     1      -0.834  11.181  18.470  0.00  0.00    +0.000 C 
ATOM     11  C   UNL     1      -0.642  10.174  19.334  0.00  0.00    +0.000 C 
BRANCH  10  13
ATOM     12  O   UNL     1      -2.318  10.986  16.656  0.00  0.00    +0.000 OA
ATOM     13  C   UNL     1      -2.142  11.414  17.788  0.00  0.00    +0.000 C 
BRANCH  13  14
ATOM     14  O   UNL     1      -3.060  12.146  18.444  0.00  0.00    +0.000 OA
ATOM     15  H   UNL     1      -2.765  12.590  19.260  0.00  0.00    +0.000 HD
ENDBRANCH  13  14
ENDBRANCH  10  13
BRANCH  10  16
ATOM     16  O   UNL     1       0.185  12.050  18.117  0.00  0.00    +0.000 OA
ATOM     17  H   UNL     1       0.746  12.146  18.916  0.00  0.00    +0.000 HD
ENDBRANCH  10  16
ENDBRANCH   8  11
ENDBRANCH   1   8
BRANCH   3  18
ATOM     18  C   UNL     1       2.395   5.335  20.875  0.00  0.00    +0.000 C 
BRANCH  18  19
ATOM     19  C   UNL     1       2.211   4.035  20.124  0.00  0.00    +0.000 A 
ATOM     20  C   UNL     1       3.311   3.203  19.871  0.00  0.00    +0.000 A 
ATOM     21  C   UNL     1       3.180   2.090  19.040  0.00  0.00    +0.000 A 
ATOM     22  C   UNL     1       1.946   1.787  18.471  0.00  0.00    +0.000 A 
ATOM     23  C   UNL     1       0.832   2.574  18.762  0.00  0.00    +0.000 A 
ATOM     24  C   UNL     1       0.962   3.692  19.586  0.00  0.00    +0.000 A 
ENDBRANCH  18  19
ENDBRANCH   3  18
BRANCH   5  25
ATOM     25  C   UNL     1       3.961   7.736  16.824  0.00  0.00    +0.000 C 
BRANCH  25  26
ATOM     26  C   UNL     1       5.027   6.676  16.874  0.00  0.00    +0.000 A 
ATOM     27  C   UNL     1       4.732   5.349  16.526  0.00  0.00    +0.000 A 
ATOM     28  C   UNL     1       5.667   4.341  16.763  0.00  0.00    +0.000 A 
ATOM     29 CL   UNL     1       5.252   2.704  16.439  0.00  0.00    +0.000 Cl
ATOM     30  C   UNL     1       6.914   4.646  17.306  0.00  0.00    +0.000 A 
ATOM     31  C   UNL     1       7.242   5.973  17.583  0.00  0.00    +0.000 A 
ATOM     32  C   UNL     1       6.301   6.972  17.365  0.00  0.00    +0.000 A 
ATOM     33  F   UNL     1       6.626   8.239  17.660  0.00  0.00    +0.000 F 
ENDBRANCH  25  26
ENDBRANCH   5  25
TORSDOF 9
ENDMDL
