MODEL 1
REMARK VINA RESULT:      -6.8      0.000      0.000
REMARK  Name = 
REMARK  13 active torsions:
REMARK  status: ('A' for Active; 'I' for Inactive)
REMARK    1  A    between atoms: C_1  and  C_2
REMARK    2  A    between atoms: C_2  and  C_3
REMARK    3  A    between atoms: C_2  and  C_4
REMARK    4  A    between atoms: C_2  and  C_5
REMARK    5  A    between atoms: N_7  and  C_8
REMARK    6  A    between atoms: C_8  and  C_9
REMARK    7  A    between atoms: C_8  and  C_15
REMARK    8  A    between atoms: C_9  and  C_10
REMARK    9  A    between atoms: C_10  and  C_11
REMARK   10  A    between atoms: C_11  and  C_12
REMARK   11  A    between atoms: C_12  and  C_13
REMARK   12  A    between atoms: C_13  and  S_14
REMARK   13  A    between atoms: N_17  and  C_18
REMARK                            x       y       z     vdW  Elec       q    Type
REMARK                         _______ _______ _______ _____ _____    ______ ____
ROOT
ATOM      1  C   UNL     1       6.316   6.427  17.026  0.00  0.00    +0.000 C 
ENDROOT
BRANCH   1   4
ATOM      2  C   UNL     1       4.034   6.393  18.018  0.00  0.00    +0.000 C 
ATOM      3  O   UNL     1       3.753   7.475  17.507  0.00  0.00    +0.000 OA
ATOM      4  N   UNL     1       5.280   5.836  17.872  0.00  0.00    +0.000 N 
ATOM      5  H   UNL     1       5.508   4.945  18.304  0.00  0.00    +0.000 HD
BRANCH   2   7
ATOM      6  C   UNL     1       3.787   4.519  19.676  0.00  0.00    +0.000 C 
ATOM      7  C   UNL     1       3.026   5.572  18.850  0.00  0.00    +0.000 C 
ATOM      8  C   UNL     1       2.030   4.850  17.932  0.00  0.00    +0.000 C 
ATOM      9  C   UNL     1       2.272   6.501  19.815  0.00  0.00    +0.000 C 
ENDBRANCH   2   7
ENDBRANCH   1   4
BRANCH   1  10
ATOM     10  C   UNL     1       6.803   5.305  16.080  0.00  0.00    +0.000 C 
ATOM     11  O   UNL     1       7.844   4.682  16.292  0.00  0.00    +0.000 OA
ATOM     12  N   UNL     1       6.013   5.103  14.969  0.00  0.00    +0.000 N 
ATOM     13  H   UNL     1       5.082   5.503  14.969  0.00  0.00    +0.000 HD
BRANCH  12  14
ATOM     14  C   UNL     1       6.311   4.085  13.983  0.00  0.00    +0.000 C 
ATOM     15  C   UNL     1       5.080   3.674  13.183  0.00  0.00    +0.000 C 
ATOM     16  C   UNL     1       5.655   3.020  11.933  0.00  0.00    +0.000 C 
ATOM     17  C   UNL     1       7.020   3.670  11.705  0.00  0.00    +0.000 C 
ATOM     18  C   UNL     1       7.268   4.582  12.905  0.00  0.00    +0.000 C 
ENDBRANCH  12  14
ENDBRANCH   1  10
BRANCH   1  19
ATOM     19  C   UNL     1       7.462   6.978  17.889  0.00  0.00    +0.000 C 
BRANCH  19  20
ATOM     20  C   UNL     1       7.821   8.440  17.597  0.00  0.00    +0.000 C 
BRANCH  20  21
ATOM     21  C   UNL     1       8.758   9.066  18.637  0.00  0.00    +0.000 C 
BRANCH  21  22
ATOM     22  C   UNL     1       8.970  10.567  18.414  0.00  0.00    +0.000 C 
BRANCH  22  23
ATOM     23  C   UNL     1       9.495  11.252  19.671  0.00  0.00    +0.000 C 
BRANCH  23  24
ATOM     24  S   UNL     1       9.665  13.038  19.384  0.00  0.00    +0.000 S 
ATOM     25  H   UNL     1      10.633  13.250  20.290  0.00  0.00    +0.000 HD
ENDBRANCH  23  24
ENDBRANCH  22  23
ENDBRANCH  21  22
ENDBRANCH  20  21
ENDBRANCH  19  20
ENDBRANCH   1  19
TORSDOF 10
ENDMDL
MODEL 2
REMARK VINA RESULT:      -6.5      0.804      1.273
REMARK  Name = 
REMARK  13 active torsions:
REMARK  status: ('A' for Active; 'I' for Inactive)
REMARK    1  A    between atoms: C_1  and  C_2
REMARK    2  A    between atoms: C_2  and  C_3
REMARK    3  A    between atoms: C_2  and  C_4
REMARK    4  A    between atoms: C_2  and  C_5
REMARK    5  A    between atoms: N_7  and  C_8
REMARK    6  A    between atoms: C_8  and  C_9
REMARK    7  A    between atoms: C_8  and  C_15
REMARK    8  A    between atoms: C_9  and  C_10
REMARK    9  A    between atoms: C_10  and  C_11
REMARK   10  A    between atoms: C_11  and  C_12
REMARK   11  A    between atoms: C_12  and  C_13
REMARK   12  A    between atoms: C_13  and  S_14
REMARK   13  A    between atoms: N_17  and  C_18
REMARK                            x       y       z     vdW  Elec       q    Type
REMARK                         _______ _______ _______ _____ _____    ______ ____
ROOT
ATOM      1  C   UNL     1       6.119   6.069  17.445  0.00  0.00    +0.000 C 
ENDROOT
BRANCH   1   4
ATOM      2  C   UNL     1       3.820   5.539  18.235  0.00  0.00    +0.000 C 
ATOM      3  O   UNL     1       3.331   6.417  17.527  0.00  0.00    +0.000 OA
ATOM      4  N   UNL     1       5.177   5.337  18.289  0.00  0.00    +0.000 N 
ATOM      5  H   UNL     1       5.574   4.615  18.883  0.00  0.00    +0.000 HD
BRANCH   2   7
ATOM      6  C   UNL     1       1.860   3.964  18.242  0.00  0.00    +0.000 C 
ATOM      7  C   UNL     1       2.966   4.595  19.107  0.00  0.00    +0.000 C 
ATOM      8  C   UNL     1       2.308   5.368  20.258  0.00  0.00    +0.000 C 
ATOM      9  C   UNL     1       3.850   3.469  19.670  0.00  0.00    +0.000 C 
ENDBRANCH   2   7
ENDBRANCH   1   4
BRANCH   1  10
ATOM     10  C   UNL     1       6.687   5.046  16.433  0.00  0.00    +0.000 C 
ATOM     11  O   UNL     1       7.642   4.319  16.711  0.00  0.00    +0.000 OA
ATOM     12  N   UNL     1       6.078   5.057  15.197  0.00  0.00    +0.000 N 
ATOM     13  H   UNL     1       5.185   5.527  15.112  0.00  0.00    +0.000 HD
BRANCH  12  14
ATOM     14  C   UNL     1       6.473   4.157  14.133  0.00  0.00    +0.000 C 
ATOM     15  C   UNL     1       5.286   3.687  13.301  0.00  0.00    +0.000 C 
ATOM     16  C   UNL     1       5.916   3.198  12.003  0.00  0.00    +0.000 C 
ATOM     17  C   UNL     1       7.206   4.001  11.830  0.00  0.00    +0.000 C 
ATOM     18  C   UNL     1       7.366   4.834  13.099  0.00  0.00    +0.000 C 
ENDBRANCH  12  14
ENDBRANCH   1  10
BRANCH   1  19
ATOM     19  C   UNL     1       7.230   6.696  18.300  0.00  0.00    +0.000 C 
BRANCH  19  20
ATOM     20  C   UNL     1       8.133   7.673  17.538  0.00  0.00    +0.000 C 
BRANCH  20  21
ATOM     21  C   UNL     1       7.943   9.139  17.947  0.00  0.00    +0.000 C 
BRANCH  21  22
ATOM     22  C   UNL     1       9.057   9.645  18.871  0.00  0.00    +0.000 C 
BRANCH  22  23
ATOM     23  C   UNL     1       9.224  11.157  18.771  0.00  0.00    +0.000 C 
BRANCH  23  24
ATOM     24  S   UNL     1      10.697  11.684  19.697  0.00  0.00    +0.000 S 
ATOM     25  H   UNL     1      10.047  12.412  20.619  0.00  0.00    +0.000 HD
ENDBRANCH  23  24
ENDBRANCH  22  23
ENDBRANCH  21  22
ENDBRANCH  20  21
ENDBRANCH  19  20
ENDBRANCH   1  19
TORSDOF 10
ENDMDL
MODEL 3
REMARK VINA RESULT:      -6.3      1.777      2.350
REMARK  Name = 
REMARK  13 active torsions:
REMARK  status: ('A' for Active; 'I' for Inactive)
REMARK    1  A    between atoms: C_1  and  C_2
REMARK    2  A    between atoms: C_2  and  C_3
REMARK    3  A    between atoms: C_2  and  C_4
REMARK    4  A    between atoms: C_2  and  C_5
REMARK    5  A    between atoms: N_7  and  C_8
REMARK    6  A    between atoms: C_8  and  C_9
REMARK    7  A    between atoms: C_8  and  C_15
REMARK    8  A    between atoms: C_9  and  C_10
REMARK    9  A    between atoms: C_10  and  C_11
REMARK   10  A    between atoms: C_11  and  C_12
REMARK   11  A    between atoms: C_12  and  C_13
REMARK   12  A    between atoms: C_13  and  S_14
REMARK   13  A    between atoms: N_17  and  C_18
REMARK                            x       y       z     vdW  Elec       q    Type
REMARK                         _______ _______ _______ _____ _____    ______ ____
ROOT
ATOM      1  C   UNL     1       4.529   5.263  17.480  0.00  0.00    +0.000 C 
ENDROOT
BRANCH   1   4
ATOM      2  C   UNL     1       2.418   4.370  18.448  0.00  0.00    +0.000 C 
ATOM      3  O   UNL     1       1.738   4.954  17.606  0.00  0.00    +0.000 OA
ATOM      4  N   UNL     1       3.783   4.506  18.485  0.00  0.00    +0.000 N 
ATOM      5  H   UNL     1       4.338   4.027  19.188  0.00  0.00    +0.000 HD
BRANCH   2   7
ATOM      6  C   UNL     1       0.986   4.274  20.512  0.00  0.00    +0.000 C 
ATOM      7  C   UNL     1       1.809   3.437  19.516  0.00  0.00    +0.000 C 
ATOM      8  C   UNL     1       2.915   2.704  20.287  0.00  0.00    +0.000 C 
ATOM      9  C   UNL     1       0.874   2.419  18.844  0.00  0.00    +0.000 C 
ENDBRANCH   2   7
ENDBRANCH   1   4
BRANCH   1  10
ATOM     10  C   UNL     1       5.032   4.234  16.440  0.00  0.00    +0.000 C 
ATOM     11  O   UNL     1       4.969   3.021  16.644  0.00  0.00    +0.000 OA
ATOM     12  N   UNL     1       5.595   4.783  15.309  0.00  0.00    +0.000 N 
ATOM     13  H   UNL     1       5.426   5.765  15.123  0.00  0.00    +0.000 HD
BRANCH  12  14
ATOM     14  C   UNL     1       6.105   3.968  14.225  0.00  0.00    +0.000 C 
ATOM     15  C   UNL     1       5.029   3.624  13.202  0.00  0.00    +0.000 C 
ATOM     16  C   UNL     1       5.815   3.229  11.959  0.00  0.00    +0.000 C 
ATOM     17  C   UNL     1       7.138   3.992  12.036  0.00  0.00    +0.000 C 
ATOM     18  C   UNL     1       7.148   4.699  13.389  0.00  0.00    +0.000 C 
ENDBRANCH  12  14
ENDBRANCH   1  10
BRANCH   1  19
ATOM     19  C   UNL     1       5.694   6.021  18.134  0.00  0.00    +0.000 C 
BRANCH  19  20
ATOM     20  C   UNL     1       6.136   7.274  17.370  0.00  0.00    +0.000 C 
BRANCH  20  21
ATOM     21  C   UNL     1       7.657   7.419  17.247  0.00  0.00    +0.000 C 
BRANCH  21  22
ATOM     22  C   UNL     1       8.272   8.207  18.409  0.00  0.00    +0.000 C 
BRANCH  22  23
ATOM     23  C   UNL     1       8.377   9.694  18.086  0.00  0.00    +0.000 C 
BRANCH  23  24
ATOM     24  S   UNL     1       9.414  10.530  19.323  0.00  0.00    +0.000 S 
ATOM     25  H   UNL     1       9.939  11.444  18.492  0.00  0.00    +0.000 HD
ENDBRANCH  23  24
ENDBRANCH  22  23
ENDBRANCH  21  22
ENDBRANCH  20  21
ENDBRANCH  19  20
ENDBRANCH   1  19
TORSDOF 10
ENDMDL
MODEL 4
REMARK VINA RESULT:      -6.3      4.100      8.205
REMARK  Name = 
REMARK  13 active torsions:
REMARK  status: ('A' for Active; 'I' for Inactive)
REMARK    1  A    between atoms: C_1  and  C_2
REMARK    2  A    between atoms: C_2  and  C_3
REMARK    3  A    between atoms: C_2  and  C_4
REMARK    4  A    between atoms: C_2  and  C_5
REMARK    5  A    between atoms: N_7  and  C_8
REMARK    6  A    between atoms: C_8  and  C_9
REMARK    7  A    between atoms: C_8  and  C_15
REMARK    8  A    between atoms: C_9  and  C_10
REMARK    9  A    between atoms: C_10  and  C_11
REMARK   10  A    between atoms: C_11  and  C_12
REMARK   11  A    between atoms: C_12  and  C_13
REMARK   12  A    between atoms: C_13  and  S_14
REMARK   13  A    between atoms: N_17  and  C_18
REMARK                            x       y       z     vdW  Elec       q    Type
REMARK                         _______ _______ _______ _____ _____    ______ ____
ROOT
ATOM      1  C   UNL     1       2.830   6.330  17.925  0.00  0.00    +0.000 C 
ENDROOT
BRANCH   1   4
ATOM      2  C   UNL     1       5.205   5.914  17.309  0.00  0.00    +0.000 C 
ATOM      3  O   UNL     1       4.932   5.894  16.111  0.00  0.00    +0.000 OA
ATOM      4  N   UNL     1       4.229   6.073  18.262  0.00  0.00    +0.000 N 
ATOM      5  H   UNL     1       4.461   6.081  19.251  0.00  0.00    +0.000 HD
BRANCH   2   7
ATOM      6  C   UNL     1       7.410   7.087  17.599  0.00  0.00    +0.000 C 
ATOM      7  C   UNL     1       6.646   5.773  17.843  0.00  0.00    +0.000 C 
ATOM      8  C   UNL     1       7.382   4.637  17.120  0.00  0.00    +0.000 C 
ATOM      9  C   UNL     1       6.614   5.498  19.355  0.00  0.00    +0.000 C 
ENDBRANCH   2   7
ENDBRANCH   1   4
BRANCH   1  10
ATOM     10  C   UNL     1       2.488   7.723  18.503  0.00  0.00    +0.000 C 
ATOM     11  O   UNL     1       2.783   8.762  17.911  0.00  0.00    +0.000 OA
ATOM     12  N   UNL     1       1.883   7.703  19.741  0.00  0.00    +0.000 N 
ATOM     13  H   UNL     1       1.493   6.825  20.065  0.00  0.00    +0.000 HD
BRANCH  12  14
ATOM     14  C   UNL     1       1.481   8.914  20.425  0.00  0.00    +0.000 C 
ATOM     15  C   UNL     1       0.182   9.489  19.872  0.00  0.00    +0.000 C 
ATOM     16  C   UNL     1      -0.318  10.404  20.982  0.00  0.00    +0.000 C 
ATOM     17  C   UNL     1       0.229   9.825  22.287  0.00  0.00    +0.000 C 
ATOM     18  C   UNL     1       1.148   8.671  21.892  0.00  0.00    +0.000 C 
ENDBRANCH  12  14
ENDBRANCH   1  10
BRANCH   1  19
ATOM     19  C   UNL     1       1.927   5.235  18.514  0.00  0.00    +0.000 C 
BRANCH  19  20
ATOM     20  C   UNL     1       1.708   4.035  17.585  0.00  0.00    +0.000 C 
BRANCH  20  21
ATOM     21  C   UNL     1       2.802   2.965  17.689  0.00  0.00    +0.000 C 
BRANCH  21  22
ATOM     22  C   UNL     1       2.594   2.020  18.877  0.00  0.00    +0.000 C 
BRANCH  22  23
ATOM     23  C   UNL     1       3.390   2.470  20.098  0.00  0.00    +0.000 C 
BRANCH  23  24
ATOM     24  S   UNL     1       2.263   2.856  21.470  0.00  0.00    +0.000 S 
ATOM     25  H   UNL     1       3.197   2.888  22.433  0.00  0.00    +0.000 HD
ENDBRANCH  23  24
ENDBRANCH  22  23
ENDBRANCH  21  22
ENDBRANCH  20  21
ENDBRANCH  19  20
ENDBRANCH   1  19
TORSDOF 10
ENDMDL
MODEL 5
REMARK VINA RESULT:      -6.3      1.552      2.142
REMARK  Name = 
REMARK  13 active torsions:
REMARK  status: ('A' for Active; 'I' for Inactive)
REMARK    1  A    between atoms: C_1  and  C_2
REMARK    2  A    between atoms: C_2  and  C_3
REMARK    3  A    between atoms: C_2  and  C_4
REMARK    4  A    between atoms: C_2  and  C_5
REMARK    5  A    between atoms: N_7  and  C_8
REMARK    6  A    between atoms: C_8  and  C_9
REMARK    7  A    between atoms: C_8  and  C_15
REMARK    8  A    between atoms: C_9  and  C_10
REMARK    9  A    between atoms: C_10  and  C_11
REMARK   10  A    between atoms: C_11  and  C_12
REMARK   11  A    between atoms: C_12  and  C_13
REMARK   12  A    between atoms: C_13  and  S_14
REMARK   13  A    between atoms: N_17  and  C_18
REMARK                            x       y       z     vdW  Elec       q    Type
REMARK                         _______ _______ _______ _____ _____    ______ ____
ROOT
ATOM      1  C   UNL     1       4.755   5.340  17.368  0.00  0.00    +0.000 C 
ENDROOT
BRANCH   1   4
ATOM      2  C   UNL     1       3.049   4.219  18.792  0.00  0.00    +0.000 C 
ATOM      3  O   UNL     1       2.157   4.951  18.369  0.00  0.00    +0.000 OA
ATOM      4  N   UNL     1       4.353   4.374  18.390  0.00  0.00    +0.000 N 
ATOM      5  H   UNL     1       5.086   3.770  18.749  0.00  0.00    +0.000 HD
BRANCH   2   7
ATOM      6  C   UNL     1       1.785   2.080  19.174  0.00  0.00    +0.000 C 
ATOM      7  C   UNL     1       2.789   3.071  19.790  0.00  0.00    +0.000 C 
ATOM      8  C   UNL     1       2.201   3.615  21.099  0.00  0.00    +0.000 C 
ATOM      9  C   UNL     1       4.102   2.324  20.075  0.00  0.00    +0.000 C 
ENDBRANCH   2   7
ENDBRANCH   1   4
BRANCH   1  10
ATOM     10  C   UNL     1       5.732   4.599  16.425  0.00  0.00    +0.000 C 
ATOM     11  O   UNL     1       6.775   4.092  16.839  0.00  0.00    +0.000 OA
ATOM     12  N   UNL     1       5.368   4.603  15.096  0.00  0.00    +0.000 N 
ATOM     13  H   UNL     1       4.414   4.856  14.866  0.00  0.00    +0.000 HD
BRANCH  12  14
ATOM     14  C   UNL     1       6.158   3.946  14.076  0.00  0.00    +0.000 C 
ATOM     15  C   UNL     1       5.305   3.442  12.917  0.00  0.00    +0.000 C 
ATOM     16  C   UNL     1       6.302   3.257  11.780  0.00  0.00    +0.000 C 
ATOM     17  C   UNL     1       7.429   4.257  12.038  0.00  0.00    +0.000 C 
ATOM     18  C   UNL     1       7.132   4.898  13.392  0.00  0.00    +0.000 C 
ENDBRANCH  12  14
ENDBRANCH   1  10
BRANCH   1  19
ATOM     19  C   UNL     1       5.414   6.565  18.018  0.00  0.00    +0.000 C 
BRANCH  19  20
ATOM     20  C   UNL     1       6.453   7.263  17.132  0.00  0.00    +0.000 C 
BRANCH  20  21
ATOM     21  C   UNL     1       7.742   7.641  17.871  0.00  0.00    +0.000 C 
BRANCH  21  22
ATOM     22  C   UNL     1       8.089   9.128  17.734  0.00  0.00    +0.000 C 
BRANCH  22  23
ATOM     23  C   UNL     1       8.963   9.608  18.887  0.00  0.00    +0.000 C 
BRANCH  23  24
ATOM     24  S   UNL     1       9.590  11.279  18.541  0.00  0.00    +0.000 S 
ATOM     25  H   UNL     1       8.472  11.938  18.881  0.00  0.00    +0.000 HD
ENDBRANCH  23  24
ENDBRANCH  22  23
ENDBRANCH  21  22
ENDBRANCH  20  21
ENDBRANCH  19  20
ENDBRANCH   1  19
TORSDOF 10
ENDMDL
MODEL 6
REMARK VINA RESULT:      -6.3      1.444      2.067
REMARK  Name = 
REMARK  13 active torsions:
REMARK  status: ('A' for Active; 'I' for Inactive)
REMARK    1  A    between atoms: C_1  and  C_2
REMARK    2  A    between atoms: C_2  and  C_3
REMARK    3  A    between atoms: C_2  and  C_4
REMARK    4  A    between atoms: C_2  and  C_5
REMARK    5  A    between atoms: N_7  and  C_8
REMARK    6  A    between atoms: C_8  and  C_9
REMARK    7  A    between atoms: C_8  and  C_15
REMARK    8  A    between atoms: C_9  and  C_10
REMARK    9  A    between atoms: C_10  and  C_11
REMARK   10  A    between atoms: C_11  and  C_12
REMARK   11  A    between atoms: C_12  and  C_13
REMARK   12  A    between atoms: C_13  and  S_14
REMARK   13  A    between atoms: N_17  and  C_18
REMARK                            x       y       z     vdW  Elec       q    Type
REMARK                         _______ _______ _______ _____ _____    ______ ____
ROOT
ATOM      1  C   UNL     1       5.377   6.166  17.599  0.00  0.00    +0.000 C 
ENDROOT
BRANCH   1   4
ATOM      2  C   UNL     1       3.526   4.982  18.767  0.00  0.00    +0.000 C 
ATOM      3  O   UNL     1       3.105   6.032  19.249  0.00  0.00    +0.000 OA
ATOM      4  N   UNL     1       4.657   4.954  17.990  0.00  0.00    +0.000 N 
ATOM      5  H   UNL     1       5.004   4.082  17.602  0.00  0.00    +0.000 HD
BRANCH   2   7
ATOM      6  C   UNL     1       2.474   3.012  17.613  0.00  0.00    +0.000 C 
ATOM      7  C   UNL     1       2.827   3.623  18.981  0.00  0.00    +0.000 C 
ATOM      8  C   UNL     1       1.533   3.802  19.788  0.00  0.00    +0.000 C 
ATOM      9  C   UNL     1       3.775   2.663  19.717  0.00  0.00    +0.000 C 
ENDBRANCH   2   7
ENDBRANCH   1   4
BRANCH   1  10
ATOM     10  C   UNL     1       5.389   6.189  16.053  0.00  0.00    +0.000 C 
ATOM     11  O   UNL     1       4.996   7.167  15.415  0.00  0.00    +0.000 OA
ATOM     12  N   UNL     1       5.818   5.021  15.460  0.00  0.00    +0.000 N 
ATOM     13  H   UNL     1       6.309   4.349  16.037  0.00  0.00    +0.000 HD
BRANCH  12  14
ATOM     14  C   UNL     1       5.905   4.870  14.023  0.00  0.00    +0.000 C 
ATOM     15  C   UNL     1       7.347   4.832  13.530  0.00  0.00    +0.000 C 
ATOM     16  C   UNL     1       7.249   4.191  12.152  0.00  0.00    +0.000 C 
ATOM     17  C   UNL     1       6.015   3.289  12.192  0.00  0.00    +0.000 C 
ATOM     18  C   UNL     1       5.346   3.536  13.542  0.00  0.00    +0.000 C 
ENDBRANCH  12  14
ENDBRANCH   1  10
BRANCH   1  19
ATOM     19  C   UNL     1       6.801   6.153  18.176  0.00  0.00    +0.000 C 
BRANCH  19  20
ATOM     20  C   UNL     1       7.788   7.059  17.430  0.00  0.00    +0.000 C 
BRANCH  20  21
ATOM     21  C   UNL     1       7.625   8.549  17.752  0.00  0.00    +0.000 C 
BRANCH  21  22
ATOM     22  C   UNL     1       8.718   9.076  18.689  0.00  0.00    +0.000 C 
BRANCH  22  23
ATOM     23  C   UNL     1       9.089  10.518  18.362  0.00  0.00    +0.000 C 
BRANCH  23  24
ATOM     24  S   UNL     1       9.638  11.378  19.866  0.00  0.00    +0.000 S 
ATOM     25  H   UNL     1      10.595  12.116  19.283  0.00  0.00    +0.000 HD
ENDBRANCH  23  24
ENDBRANCH  22  23
ENDBRANCH  21  22
ENDBRANCH  20  21
ENDBRANCH  19  20
ENDBRANCH   1  19
TORSDOF 10
ENDMDL
MODEL 7
REMARK VINA RESULT:      -6.3      1.479      1.926
REMARK  Name = 
REMARK  13 active torsions:
REMARK  status: ('A' for Active; 'I' for Inactive)
REMARK    1  A    between atoms: C_1  and  C_2
REMARK    2  A    between atoms: C_2  and  C_3
REMARK    3  A    between atoms: C_2  and  C_4
REMARK    4  A    between atoms: C_2  and  C_5
REMARK    5  A    between atoms: N_7  and  C_8
REMARK    6  A    between atoms: C_8  and  C_9
REMARK    7  A    between atoms: C_8  and  C_15
REMARK    8  A    between atoms: C_9  and  C_10
REMARK    9  A    between atoms: C_10  and  C_11
REMARK   10  A    between atoms: C_11  and  C_12
REMARK   11  A    between atoms: C_12  and  C_13
REMARK   12  A    between atoms: C_13  and  S_14
REMARK   13  A    between atoms: N_17  and  C_18
REMARK                            x       y       z     vdW  Elec       q    Type
REMARK                         _______ _______ _______ _____ _____    ______ ____
ROOT
ATOM      1  C   UNL     1       5.668   5.946  17.976  0.00  0.00    +0.000 C 
ENDROOT
BRANCH   1   4
ATOM      2  C   UNL     1       3.595   5.137  19.090  0.00  0.00    +0.000 C 
ATOM      3  O   UNL     1       3.269   6.280  19.401  0.00  0.00    +0.000 OA
ATOM      4  N   UNL     1       4.775   4.883  18.436  0.00  0.00    +0.000 N 
ATOM      5  H   UNL     1       5.043   3.935  18.189  0.00  0.00    +0.000 HD
BRANCH   2   7
ATOM      6  C   UNL     1       3.625   2.719  19.779  0.00  0.00    +0.000 C 
ATOM      7  C   UNL     1       2.720   3.903  19.395  0.00  0.00    +0.000 C 
ATOM      8  C   UNL     1       1.893   3.510  18.163  0.00  0.00    +0.000 C 
ATOM      9  C   UNL     1       1.785   4.209  20.577  0.00  0.00    +0.000 C 
ENDBRANCH   2   7
ENDBRANCH   1   4
BRANCH   1  10
ATOM     10  C   UNL     1       5.506   6.020  16.439  0.00  0.00    +0.000 C 
ATOM     11  O   UNL     1       4.801   6.874  15.901  0.00  0.00    +0.000 OA
ATOM     12  N   UNL     1       6.165   5.032  15.740  0.00  0.00    +0.000 N 
ATOM     13  H   UNL     1       6.878   4.501  16.227  0.00  0.00    +0.000 HD
BRANCH  12  14
ATOM     14  C   UNL     1       6.135   4.957  14.294  0.00  0.00    +0.000 C 
ATOM     15  C   UNL     1       7.517   5.135  13.675  0.00  0.00    +0.000 C 
ATOM     16  C   UNL     1       7.372   4.546  12.278  0.00  0.00    +0.000 C 
ATOM     17  C   UNL     1       6.276   3.485  12.377  0.00  0.00    +0.000 C 
ATOM     18  C   UNL     1       5.712   3.581  13.793  0.00  0.00    +0.000 C 
ENDBRANCH  12  14
ENDBRANCH   1  10
BRANCH   1  19
ATOM     19  C   UNL     1       7.118   5.640  18.378  0.00  0.00    +0.000 C 
BRANCH  19  20
ATOM     20  C   UNL     1       7.984   6.886  18.602  0.00  0.00    +0.000 C 
BRANCH  20  21
ATOM     21  C   UNL     1       7.932   7.891  17.445  0.00  0.00    +0.000 C 
BRANCH  21  22
ATOM     22  C   UNL     1       8.030   9.345  17.919  0.00  0.00    +0.000 C 
BRANCH  22  23
ATOM     23  C   UNL     1       9.055   9.503  19.037  0.00  0.00    +0.000 C 
BRANCH  23  24
ATOM     24  S   UNL     1       9.781  11.168  18.987  0.00  0.00    +0.000 S 
ATOM     25  H   UNL     1      10.459  11.076  20.142  0.00  0.00    +0.000 HD
ENDBRANCH  23  24
ENDBRANCH  22  23
ENDBRANCH  21  22
ENDBRANCH  20  21
ENDBRANCH  19  20
ENDBRANCH   1  19
TORSDOF 10
ENDMDL
MODEL 8
REMARK VINA RESULT:      -6.2      1.272      1.619
REMARK  Name = 
REMARK  13 active torsions:
REMARK  status: ('A' for Active; 'I' for Inactive)
REMARK    1  A    between atoms: C_1  and  C_2
REMARK    2  A    between atoms: C_2  and  C_3
REMARK    3  A    between atoms: C_2  and  C_4
REMARK    4  A    between atoms: C_2  and  C_5
REMARK    5  A    between atoms: N_7  and  C_8
REMARK    6  A    between atoms: C_8  and  C_9
REMARK    7  A    between atoms: C_8  and  C_15
REMARK    8  A    between atoms: C_9  and  C_10
REMARK    9  A    between atoms: C_10  and  C_11
REMARK   10  A    between atoms: C_11  and  C_12
REMARK   11  A    between atoms: C_12  and  C_13
REMARK   12  A    between atoms: C_13  and  S_14
REMARK   13  A    between atoms: N_17  and  C_18
REMARK                            x       y       z     vdW  Elec       q    Type
REMARK                         _______ _______ _______ _____ _____    ______ ____
ROOT
ATOM      1  C   UNL     1       6.096   6.202  17.451  0.00  0.00    +0.000 C 
ENDROOT
BRANCH   1   4
ATOM      2  C   UNL     1       4.552   4.686  18.680  0.00  0.00    +0.000 C 
ATOM      3  O   UNL     1       5.488   4.014  19.107  0.00  0.00    +0.000 OA
ATOM      4  N   UNL     1       4.760   5.742  17.827  0.00  0.00    +0.000 N 
ATOM      5  H   UNL     1       3.981   6.288  17.471  0.00  0.00    +0.000 HD
BRANCH   2   7
ATOM      6  C   UNL     1       2.535   5.613  19.861  0.00  0.00    +0.000 C 
ATOM      7  C   UNL     1       3.082   4.415  19.063  0.00  0.00    +0.000 C 
ATOM      8  C   UNL     1       2.974   3.155  19.934  0.00  0.00    +0.000 C 
ATOM      9  C   UNL     1       2.237   4.247  17.790  0.00  0.00    +0.000 C 
ENDBRANCH   2   7
ENDBRANCH   1   4
BRANCH   1  10
ATOM     10  C   UNL     1       6.654   5.161  16.452  0.00  0.00    +0.000 C 
ATOM     11  O   UNL     1       7.642   4.474  16.715  0.00  0.00    +0.000 OA
ATOM     12  N   UNL     1       5.994   5.108  15.244  0.00  0.00    +0.000 N 
ATOM     13  H   UNL     1       5.083   5.548  15.181  0.00  0.00    +0.000 HD
BRANCH  12  14
ATOM     14  C   UNL     1       6.373   4.183  14.196  0.00  0.00    +0.000 C 
ATOM     15  C   UNL     1       5.178   3.728  13.365  0.00  0.00    +0.000 C 
ATOM     16  C   UNL     1       5.804   3.203  12.078  0.00  0.00    +0.000 C 
ATOM     17  C   UNL     1       7.112   3.973  11.900  0.00  0.00    +0.000 C 
ATOM     18  C   UNL     1       7.286   4.822  13.157  0.00  0.00    +0.000 C 
ENDBRANCH  12  14
ENDBRANCH   1  10
BRANCH   1  19
ATOM     19  C   UNL     1       6.989   6.329  18.695  0.00  0.00    +0.000 C 
BRANCH  19  20
ATOM     20  C   UNL     1       8.269   7.143  18.468  0.00  0.00    +0.000 C 
BRANCH  20  21
ATOM     21  C   UNL     1       8.016   8.554  17.926  0.00  0.00    +0.000 C 
BRANCH  21  22
ATOM     22  C   UNL     1       8.766   9.634  18.713  0.00  0.00    +0.000 C 
BRANCH  22  23
ATOM     23  C   UNL     1       8.882  10.930  17.916  0.00  0.00    +0.000 C 
BRANCH  23  24
ATOM     24  S   UNL     1      10.513  11.684  18.187  0.00  0.00    +0.000 S 
ATOM     25  H   UNL     1      10.969  11.520  16.936  0.00  0.00    +0.000 HD
ENDBRANCH  23  24
ENDBRANCH  22  23
ENDBRANCH  21  22
ENDBRANCH  20  21
ENDBRANCH  19  20
ENDBRANCH   1  19
TORSDOF 10
ENDMDL
MODEL 9
REMARK VINA RESULT:      -6.2      4.018      8.117
REMARK  Name = 
REMARK  13 active torsions:
REMARK  status: ('A' for Active; 'I' for Inactive)
REMARK    1  A    between atoms: C_1  and  C_2
REMARK    2  A    between atoms: C_2  and  C_3
REMARK    3  A    between atoms: C_2  and  C_4
REMARK    4  A    between atoms: C_2  and  C_5
REMARK    5  A    between atoms: N_7  and  C_8
REMARK    6  A    between atoms: C_8  and  C_9
REMARK    7  A    between atoms: C_8  and  C_15
REMARK    8  A    between atoms: C_9  and  C_10
REMARK    9  A    between atoms: C_10  and  C_11
REMARK   10  A    between atoms: C_11  and  C_12
REMARK   11  A    between atoms: C_12  and  C_13
REMARK   12  A    between atoms: C_13  and  S_14
REMARK   13  A    between atoms: N_17  and  C_18
REMARK                            x       y       z     vdW  Elec       q    Type
REMARK                         _______ _______ _______ _____ _____    ______ ____
ROOT
ATOM      1  C   UNL     1       2.842   6.147  18.853  0.00  0.00    +0.000 C 
ENDROOT
BRANCH   1   4
ATOM      2  C   UNL     1       5.022   5.567  17.803  0.00  0.00    +0.000 C 
ATOM      3  O   UNL     1       4.464   5.058  16.833  0.00  0.00    +0.000 OA
ATOM      4  N   UNL     1       4.302   6.078  18.855  0.00  0.00    +0.000 N 
ATOM      5  H   UNL     1       4.770   6.490  19.657  0.00  0.00    +0.000 HD
BRANCH   2   7
ATOM      6  C   UNL     1       7.218   4.597  17.056  0.00  0.00    +0.000 C 
ATOM      7  C   UNL     1       6.556   5.685  17.921  0.00  0.00    +0.000 C 
ATOM      8  C   UNL     1       7.002   5.494  19.377  0.00  0.00    +0.000 C 
ATOM      9  C   UNL     1       7.012   7.061  17.409  0.00  0.00    +0.000 C 
ENDBRANCH   2   7
ENDBRANCH   1   4
BRANCH   1  10
ATOM     10  C   UNL     1       2.472   7.611  18.520  0.00  0.00    +0.000 C 
ATOM     11  O   UNL     1       2.899   8.176  17.513  0.00  0.00    +0.000 OA
ATOM     12  N   UNL     1       1.680   8.235  19.460  0.00  0.00    +0.000 N 
ATOM     13  H   UNL     1       1.208   7.655  20.144  0.00  0.00    +0.000 HD
BRANCH  12  14
ATOM     14  C   UNL     1       1.227   9.602  19.304  0.00  0.00    +0.000 C 
ATOM     15  C   UNL     1       0.105   9.728  18.280  0.00  0.00    +0.000 C 
ATOM     16  C   UNL     1      -0.548  11.063  18.612  0.00  0.00    +0.000 C 
ATOM     17  C   UNL     1      -0.314  11.290  20.105  0.00  0.00    +0.000 C 
ATOM     18  C   UNL     1       0.590  10.152  20.575  0.00  0.00    +0.000 C 
ENDBRANCH  12  14
ENDBRANCH   1  10
BRANCH   1  19
ATOM     19  C   UNL     1       2.284   5.718  20.219  0.00  0.00    +0.000 C 
BRANCH  19  20
ATOM     20  C   UNL     1       1.156   4.682  20.139  0.00  0.00    +0.000 C 
BRANCH  20  21
ATOM     21  C   UNL     1       1.537   3.309  20.704  0.00  0.00    +0.000 C 
BRANCH  21  22
ATOM     22  C   UNL     1       1.559   2.212  19.633  0.00  0.00    +0.000 C 
BRANCH  22  23
ATOM     23  C   UNL     1       2.811   2.300  18.767  0.00  0.00    +0.000 C 
BRANCH  23  24
ATOM     24  S   UNL     1       4.290   2.411  19.817  0.00  0.00    +0.000 S 
ATOM     25  H   UNL     1       5.041   3.113  18.954  0.00  0.00    +0.000 HD
ENDBRANCH  23  24
ENDBRANCH  22  23
ENDBRANCH  21  22
ENDBRANCH  20  21
ENDBRANCH  19  20
ENDBRANCH   1  19
TORSDOF 10
ENDMDL
