MODEL 1
REMARK VINA RESULT:      -6.7      0.000      0.000
REMARK  Name = 
REMARK  2 active torsions:
REMARK  status: ('A' for Active; 'I' for Inactive)
REMARK    1  A    between atoms: N_8  and  C_9
REMARK    2  A    between atoms: C_9  and  C_10
REMARK                            x       y       z     vdW  Elec       q    Type
REMARK                         _______ _______ _______ _____ _____    ______ ____
ROOT
ATOM      1  O   UNL     1       8.602   8.580  18.713  0.00  0.00    +0.000 OA
ATOM      2  C   UNL     1       8.009   7.577  18.316  0.00  0.00    +0.000 C 
ATOM      3  C   UNL     1       6.889   7.626  17.274  0.00  0.00    +0.000 C 
ATOM      4  O   UNL     1       6.558   6.407  16.625  0.00  0.00    +0.000 OA
ATOM      5  C   UNL     1       6.511   5.273  17.514  0.00  0.00    +0.000 C 
ATOM      6  C   UNL     1       5.370   5.402  18.547  0.00  0.00    +0.000 C 
ATOM      7  C   UNL     1       3.997   5.362  17.875  0.00  0.00    +0.000 C 
ATOM      8  N   UNL     1       3.792   4.154  17.059  0.00  0.00    +0.000 NA
ATOM      9  C   UNL     1       4.845   4.103  16.027  0.00  0.00    +0.000 C 
ATOM     10  C   UNL     1       6.263   4.054  16.611  0.00  0.00    +0.000 C 
ATOM     11  C   UNL     1       7.881   5.139  18.208  0.00  0.00    +0.000 C 
ATOM     12  N   UNL     1       8.277   6.358  18.877  0.00  0.00    +0.000 N 
ATOM     13  H   UNL     1       9.065   6.356  19.516  0.00  0.00    +0.000 HD
ENDROOT
BRANCH   8  14
ATOM     14  C   UNL     1       3.729   2.917  17.862  0.00  0.00    +0.000 C 
BRANCH  14  15
ATOM     15  C   UNL     1       2.768   3.063  19.015  0.00  0.00    +0.000 A 
ATOM     16  C   UNL     1       1.377   3.411  18.908  0.00  0.00    +0.000 A 
ATOM     17  C   UNL     1       0.772   3.571  20.135  0.00  0.00    +0.000 A 
ATOM     18  S   UNL     1       1.835   3.223  21.425  0.00  0.00    +0.000 S 
ATOM     19  C   UNL     1       3.116   2.891  20.345  0.00  0.00    +0.000 A 
ENDBRANCH  14  15
ENDBRANCH   8  14
TORSDOF 2
ENDMDL
MODEL 2
REMARK VINA RESULT:      -6.2      3.332      4.151
REMARK  Name = 
REMARK  2 active torsions:
REMARK  status: ('A' for Active; 'I' for Inactive)
REMARK    1  A    between atoms: N_8  and  C_9
REMARK    2  A    between atoms: C_9  and  C_10
REMARK                            x       y       z     vdW  Elec       q    Type
REMARK                         _______ _______ _______ _____ _____    ______ ____
ROOT
ATOM      1  O   UNL     1       7.913   5.162  14.622  0.00  0.00    +0.000 OA
ATOM      2  C   UNL     1       7.005   5.118  15.451  0.00  0.00    +0.000 C 
ATOM      3  C   UNL     1       5.524   5.201  15.073  0.00  0.00    +0.000 C 
ATOM      4  O   UNL     1       4.585   4.760  16.042  0.00  0.00    +0.000 OA
ATOM      5  C   UNL     1       4.895   5.188  17.384  0.00  0.00    +0.000 C 
ATOM      6  C   UNL     1       4.803   6.723  17.529  0.00  0.00    +0.000 C 
ATOM      7  C   UNL     1       3.370   7.221  17.337  0.00  0.00    +0.000 C 
ATOM      8  N   UNL     1       2.411   6.578  18.252  0.00  0.00    +0.000 NA
ATOM      9  C   UNL     1       2.458   5.120  18.028  0.00  0.00    +0.000 C 
ATOM     10  C   UNL     1       3.844   4.514  18.282  0.00  0.00    +0.000 C 
ATOM     11  C   UNL     1       6.301   4.675  17.749  0.00  0.00    +0.000 C 
ATOM     12  N   UNL     1       7.299   5.084  16.787  0.00  0.00    +0.000 N 
ATOM     13  H   UNL     1       8.285   4.968  16.994  0.00  0.00    +0.000 HD
ENDROOT
BRANCH   8  14
ATOM     14  C   UNL     1       2.628   6.940  19.666  0.00  0.00    +0.000 C 
BRANCH  14  15
ATOM     15  C   UNL     1       1.689   8.039  20.099  0.00  0.00    +0.000 A 
ATOM     16  C   UNL     1       1.291   9.164  19.299  0.00  0.00    +0.000 A 
ATOM     17  C   UNL     1       0.506  10.059  19.990  0.00  0.00    +0.000 A 
ATOM     18  S   UNL     1       0.163   9.521  21.574  0.00  0.00    +0.000 S 
ATOM     19  C   UNL     1       1.094   8.106  21.348  0.00  0.00    +0.000 A 
ENDBRANCH  14  15
ENDBRANCH   8  14
TORSDOF 2
ENDMDL
MODEL 3
REMARK VINA RESULT:      -6.1      3.775      6.388
REMARK  Name = 
REMARK  2 active torsions:
REMARK  status: ('A' for Active; 'I' for Inactive)
REMARK    1  A    between atoms: N_8  and  C_9
REMARK    2  A    between atoms: C_9  and  C_10
REMARK                            x       y       z     vdW  Elec       q    Type
REMARK                         _______ _______ _______ _____ _____    ______ ____
ROOT
ATOM      1  O   UNL     1       0.022   2.320  18.597  0.00  0.00    +0.000 OA
ATOM      2  C   UNL     1       1.197   2.687  18.597  0.00  0.00    +0.000 C 
ATOM      3  C   UNL     1       1.611   4.160  18.635  0.00  0.00    +0.000 C 
ATOM      4  O   UNL     1       2.950   4.444  19.015  0.00  0.00    +0.000 OA
ATOM      5  C   UNL     1       3.919   3.554  18.425  0.00  0.00    +0.000 C 
ATOM      6  C   UNL     1       3.984   3.717  16.890  0.00  0.00    +0.000 C 
ATOM      7  C   UNL     1       4.506   5.098  16.493  0.00  0.00    +0.000 C 
ATOM      8  N   UNL     1       5.821   5.406  17.081  0.00  0.00    +0.000 NA
ATOM      9  C   UNL     1       5.706   5.328  18.550  0.00  0.00    +0.000 C 
ATOM     10  C   UNL     1       5.268   3.946  19.050  0.00  0.00    +0.000 C 
ATOM     11  C   UNL     1       3.560   2.108  18.819  0.00  0.00    +0.000 C 
ATOM     12  N   UNL     1       2.200   1.767  18.466  0.00  0.00    +0.000 N 
ATOM     13  H   UNL     1       1.890   0.802  18.507  0.00  0.00    +0.000 HD
ENDROOT
BRANCH   8  14
ATOM     14  C   UNL     1       6.904   4.553  16.553  0.00  0.00    +0.000 C 
BRANCH  14  15
ATOM     15  C   UNL     1       6.922   4.564  15.045  0.00  0.00    +0.000 A 
ATOM     16  C   UNL     1       6.183   3.674  14.192  0.00  0.00    +0.000 A 
ATOM     17  C   UNL     1       6.473   3.850  12.858  0.00  0.00    +0.000 A 
ATOM     18  S   UNL     1       7.564   5.138  12.603  0.00  0.00    +0.000 S 
ATOM     19  C   UNL     1       7.677   5.439  14.282  0.00  0.00    +0.000 A 
ENDBRANCH  14  15
ENDBRANCH   8  14
TORSDOF 2
ENDMDL
MODEL 4
REMARK VINA RESULT:      -6.0      3.136      3.970
REMARK  Name = 
REMARK  2 active torsions:
REMARK  status: ('A' for Active; 'I' for Inactive)
REMARK    1  A    between atoms: N_8  and  C_9
REMARK    2  A    between atoms: C_9  and  C_10
REMARK                            x       y       z     vdW  Elec       q    Type
REMARK                         _______ _______ _______ _____ _____    ______ ____
ROOT
ATOM      1  O   UNL     1       7.777   5.230  14.426  0.00  0.00    +0.000 OA
ATOM      2  C   UNL     1       7.007   5.066  15.372  0.00  0.00    +0.000 C 
ATOM      3  C   UNL     1       5.533   4.692  15.194  0.00  0.00    +0.000 C 
ATOM      4  O   UNL     1       4.861   4.162  16.327  0.00  0.00    +0.000 OA
ATOM      5  C   UNL     1       5.170   4.850  17.556  0.00  0.00    +0.000 C 
ATOM      6  C   UNL     1       4.661   6.308  17.539  0.00  0.00    +0.000 C 
ATOM      7  C   UNL     1       3.133   6.369  17.491  0.00  0.00    +0.000 C 
ATOM      8  N   UNL     1       2.495   5.634  18.595  0.00  0.00    +0.000 NA
ATOM      9  C   UNL     1       2.932   4.226  18.534  0.00  0.00    +0.000 C 
ATOM     10  C   UNL     1       4.451   4.058  18.661  0.00  0.00    +0.000 C 
ATOM     11  C   UNL     1       6.694   4.793  17.780  0.00  0.00    +0.000 C 
ATOM     12  N   UNL     1       7.432   5.310  16.649  0.00  0.00    +0.000 N 
ATOM     13  H   UNL     1       8.426   5.494  16.730  0.00  0.00    +0.000 HD
ENDROOT
BRANCH   8  14
ATOM     14  C   UNL     1       2.741   6.244  19.916  0.00  0.00    +0.000 C 
BRANCH  14  15
ATOM     15  C   UNL     1       1.946   7.515  20.088  0.00  0.00    +0.000 A 
ATOM     16  C   UNL     1       1.171   7.869  21.245  0.00  0.00    +0.000 A 
ATOM     17  C   UNL     1       0.470   9.042  21.079  0.00  0.00    +0.000 A 
ATOM     18  S   UNL     1       0.799   9.778  19.574  0.00  0.00    +0.000 S 
ATOM     19  C   UNL     1       1.853   8.510  19.128  0.00  0.00    +0.000 A 
ENDBRANCH  14  15
ENDBRANCH   8  14
TORSDOF 2
ENDMDL
MODEL 5
REMARK VINA RESULT:      -5.9      3.743      4.634
REMARK  Name = 
REMARK  2 active torsions:
REMARK  status: ('A' for Active; 'I' for Inactive)
REMARK    1  A    between atoms: N_8  and  C_9
REMARK    2  A    between atoms: C_9  and  C_10
REMARK                            x       y       z     vdW  Elec       q    Type
REMARK                         _______ _______ _______ _____ _____    ______ ____
ROOT
ATOM      1  O   UNL     1       8.206   4.128  16.765  0.00  0.00    +0.000 OA
ATOM      2  C   UNL     1       7.087   4.377  17.212  0.00  0.00    +0.000 C 
ATOM      3  C   UNL     1       5.890   4.723  16.322  0.00  0.00    +0.000 C 
ATOM      4  O   UNL     1       4.600   4.611  16.904  0.00  0.00    +0.000 OA
ATOM      5  C   UNL     1       4.526   5.124  18.249  0.00  0.00    +0.000 C 
ATOM      6  C   UNL     1       4.761   6.650  18.293  0.00  0.00    +0.000 C 
ATOM      7  C   UNL     1       3.644   7.412  17.578  0.00  0.00    +0.000 C 
ATOM      8  N   UNL     1       2.306   7.101  18.109  0.00  0.00    +0.000 NA
ATOM      9  C   UNL     1       2.075   5.650  17.974  0.00  0.00    +0.000 C 
ATOM     10  C   UNL     1       3.103   4.800  18.734  0.00  0.00    +0.000 C 
ATOM     11  C   UNL     1       5.556   4.375  19.117  0.00  0.00    +0.000 C 
ATOM     12  N   UNL     1       6.890   4.445  18.564  0.00  0.00    +0.000 N 
ATOM     13  H   UNL     1       7.687   4.149  19.118  0.00  0.00    +0.000 HD
ENDROOT
BRANCH   8  14
ATOM     14  C   UNL     1       2.107   7.578  19.491  0.00  0.00    +0.000 C 
BRANCH  14  15
ATOM     15  C   UNL     1       1.299   8.852  19.518  0.00  0.00    +0.000 A 
ATOM     16  C   UNL     1       0.900   9.615  18.367  0.00  0.00    +0.000 A 
ATOM     17  C   UNL     1       0.258  10.787  18.701  0.00  0.00    +0.000 A 
ATOM     18  S   UNL     1       0.046  10.944  20.388  0.00  0.00    +0.000 S 
ATOM     19  C   UNL     1       0.845   9.461  20.676  0.00  0.00    +0.000 A 
ENDBRANCH  14  15
ENDBRANCH   8  14
TORSDOF 2
ENDMDL
MODEL 6
REMARK VINA RESULT:      -5.9      2.260      2.678
REMARK  Name = 
REMARK  2 active torsions:
REMARK  status: ('A' for Active; 'I' for Inactive)
REMARK    1  A    between atoms: N_8  and  C_9
REMARK    2  A    between atoms: C_9  and  C_10
REMARK                            x       y       z     vdW  Elec       q    Type
REMARK                         _______ _______ _______ _____ _____    ______ ____
ROOT
ATOM      1  O   UNL     1       8.136   5.467  13.964  0.00  0.00    +0.000 OA
ATOM      2  C   UNL     1       7.275   5.180  14.797  0.00  0.00    +0.000 C 
ATOM      3  C   UNL     1       5.774   5.302  14.523  0.00  0.00    +0.000 C 
ATOM      4  O   UNL     1       4.901   4.595  15.390  0.00  0.00    +0.000 OA
ATOM      5  C   UNL     1       5.274   4.679  16.780  0.00  0.00    +0.000 C 
ATOM      6  C   UNL     1       5.154   6.122  17.318  0.00  0.00    +0.000 C 
ATOM      7  C   UNL     1       3.701   6.599  17.327  0.00  0.00    +0.000 C 
ATOM      8  N   UNL     1       2.810   5.710  18.091  0.00  0.00    +0.000 NA
ATOM      9  C   UNL     1       2.878   4.360  17.500  0.00  0.00    +0.000 C 
ATOM     10  C   UNL     1       4.290   3.760  17.524  0.00  0.00    +0.000 C 
ATOM     11  C   UNL     1       6.710   4.142  16.935  0.00  0.00    +0.000 C 
ATOM     12  N   UNL     1       7.644   4.819  16.064  0.00  0.00    +0.000 N 
ATOM     13  H   UNL     1       8.642   4.689  16.188  0.00  0.00    +0.000 HD
ENDROOT
BRANCH   8  14
ATOM     14  C   UNL     1       3.095   5.708  19.539  0.00  0.00    +0.000 C 
BRANCH  14  15
ATOM     15  C   UNL     1       2.503   4.494  20.210  0.00  0.00    +0.000 A 
ATOM     16  C   UNL     1       1.110   4.141  20.226  0.00  0.00    +0.000 A 
ATOM     17  C   UNL     1       0.848   3.034  21.002  0.00  0.00    +0.000 A 
ATOM     18  S   UNL     1       2.274   2.353  21.648  0.00  0.00    +0.000 S 
ATOM     19  C   UNL     1       3.240   3.559  20.919  0.00  0.00    +0.000 A 
ENDBRANCH  14  15
ENDBRANCH   8  14
TORSDOF 2
ENDMDL
MODEL 7
REMARK VINA RESULT:      -5.9      3.780      6.337
REMARK  Name = 
REMARK  2 active torsions:
REMARK  status: ('A' for Active; 'I' for Inactive)
REMARK    1  A    between atoms: N_8  and  C_9
REMARK    2  A    between atoms: C_9  and  C_10
REMARK                            x       y       z     vdW  Elec       q    Type
REMARK                         _______ _______ _______ _____ _____    ______ ____
ROOT
ATOM      1  O   UNL     1       0.754   2.505  22.484  0.00  0.00    +0.000 OA
ATOM      2  C   UNL     1       1.456   2.671  21.487  0.00  0.00    +0.000 C 
ATOM      3  C   UNL     1       2.980   2.807  21.551  0.00  0.00    +0.000 C 
ATOM      4  O   UNL     1       3.697   2.607  20.342  0.00  0.00    +0.000 OA
ATOM      5  C   UNL     1       3.079   3.225  19.195  0.00  0.00    +0.000 C 
ATOM      6  C   UNL     1       3.073   4.765  19.308  0.00  0.00    +0.000 C 
ATOM      7  C   UNL     1       4.491   5.337  19.278  0.00  0.00    +0.000 C 
ATOM      8  N   UNL     1       5.248   4.931  18.082  0.00  0.00    +0.000 NA
ATOM      9  C   UNL     1       5.312   3.457  18.047  0.00  0.00    +0.000 C 
ATOM     10  C   UNL     1       3.930   2.792  17.989  0.00  0.00    +0.000 C 
ATOM     11  C   UNL     1       1.649   2.669  19.051  0.00  0.00    +0.000 C 
ATOM     12  N   UNL     1       0.874   2.834  20.259  0.00  0.00    +0.000 N 
ATOM     13  H   UNL     1      -0.128   2.675  20.249  0.00  0.00    +0.000 HD
ENDROOT
BRANCH   8  14
ATOM     14  C   UNL     1       4.707   5.502  16.833  0.00  0.00    +0.000 C 
BRANCH  14  15
ATOM     15  C   UNL     1       5.499   5.042  15.634  0.00  0.00    +0.000 A 
ATOM     16  C   UNL     1       6.876   5.358  15.368  0.00  0.00    +0.000 A 
ATOM     17  C   UNL     1       7.305   4.885  14.149  0.00  0.00    +0.000 A 
ATOM     18  S   UNL     1       6.096   3.983  13.349  0.00  0.00    +0.000 S 
ATOM     19  C   UNL     1       4.984   4.254  14.618  0.00  0.00    +0.000 A 
ENDBRANCH  14  15
ENDBRANCH   8  14
TORSDOF 2
ENDMDL
MODEL 8
REMARK VINA RESULT:      -5.8      2.075      3.491
REMARK  Name = 
REMARK  2 active torsions:
REMARK  status: ('A' for Active; 'I' for Inactive)
REMARK    1  A    between atoms: N_8  and  C_9
REMARK    2  A    between atoms: C_9  and  C_10
REMARK                            x       y       z     vdW  Elec       q    Type
REMARK                         _______ _______ _______ _____ _____    ______ ____
ROOT
ATOM      1  O   UNL     1       6.412   3.651  12.965  0.00  0.00    +0.000 OA
ATOM      2  C   UNL     1       6.208   4.182  14.056  0.00  0.00    +0.000 C 
ATOM      3  C   UNL     1       6.949   3.779  15.334  0.00  0.00    +0.000 C 
ATOM      4  O   UNL     1       6.914   4.697  16.416  0.00  0.00    +0.000 OA
ATOM      5  C   UNL     1       5.618   5.293  16.627  0.00  0.00    +0.000 C 
ATOM      6  C   UNL     1       4.572   4.245  17.067  0.00  0.00    +0.000 C 
ATOM      7  C   UNL     1       4.904   3.661  18.441  0.00  0.00    +0.000 C 
ATOM      8  N   UNL     1       5.043   4.691  19.484  0.00  0.00    +0.000 NA
ATOM      9  C   UNL     1       6.109   5.627  19.078  0.00  0.00    +0.000 C 
ATOM     10  C   UNL     1       5.821   6.330  17.744  0.00  0.00    +0.000 C 
ATOM     11  C   UNL     1       5.187   6.002  15.328  0.00  0.00    +0.000 C 
ATOM     12  N   UNL     1       5.216   5.116  14.187  0.00  0.00    +0.000 N 
ATOM     13  H   UNL     1       4.792   5.400  13.310  0.00  0.00    +0.000 HD
ENDROOT
BRANCH   8  14
ATOM     14  C   UNL     1       3.774   5.379  19.790  0.00  0.00    +0.000 C 
BRANCH  14  15
ATOM     15  C   UNL     1       2.696   4.394  20.169  0.00  0.00    +0.000 A 
ATOM     16  C   UNL     1       1.517   4.105  19.399  0.00  0.00    +0.000 A 
ATOM     17  C   UNL     1       0.661   3.238  20.040  0.00  0.00    +0.000 A 
ATOM     18  S   UNL     1       1.296   2.691  21.527  0.00  0.00    +0.000 S 
ATOM     19  C   UNL     1       2.703   3.642  21.332  0.00  0.00    +0.000 A 
ENDBRANCH  14  15
ENDBRANCH   8  14
TORSDOF 2
ENDMDL
MODEL 9
REMARK VINA RESULT:      -5.8      3.778      4.624
REMARK  Name = 
REMARK  2 active torsions:
REMARK  status: ('A' for Active; 'I' for Inactive)
REMARK    1  A    between atoms: N_8  and  C_9
REMARK    2  A    between atoms: C_9  and  C_10
REMARK                            x       y       z     vdW  Elec       q    Type
REMARK                         _______ _______ _______ _____ _____    ______ ____
ROOT
ATOM      1  O   UNL     1       7.880   4.389  16.258  0.00  0.00    +0.000 OA
ATOM      2  C   UNL     1       6.816   4.540  16.859  0.00  0.00    +0.000 C 
ATOM      3  C   UNL     1       5.509   4.922  16.159  0.00  0.00    +0.000 C 
ATOM      4  O   UNL     1       4.304   4.691  16.873  0.00  0.00    +0.000 OA
ATOM      5  C   UNL     1       4.378   5.058  18.266  0.00  0.00    +0.000 C 
ATOM      6  C   UNL     1       4.568   6.581  18.447  0.00  0.00    +0.000 C 
ATOM      7  C   UNL     1       3.347   7.361  17.956  0.00  0.00    +0.000 C 
ATOM      8  N   UNL     1       2.095   6.936  18.604  0.00  0.00    +0.000 NA
ATOM      9  C   UNL     1       1.897   5.498  18.341  0.00  0.00    +0.000 C 
ATOM     10  C   UNL     1       3.036   4.621  18.876  0.00  0.00    +0.000 C 
ATOM     11  C   UNL     1       5.531   4.270  18.919  0.00  0.00    +0.000 C 
ATOM     12  N   UNL     1       6.784   4.458  18.224  0.00  0.00    +0.000 N 
ATOM     13  H   UNL     1       7.652   4.143  18.644  0.00  0.00    +0.000 HD
ENDROOT
BRANCH   8  14
ATOM     14  C   UNL     1       2.051   7.257  20.044  0.00  0.00    +0.000 C 
BRANCH  14  15
ATOM     15  C   UNL     1       1.385   8.589  20.286  0.00  0.00    +0.000 A 
ATOM     16  C   UNL     1       1.012   9.118  21.569  0.00  0.00    +0.000 A 
ATOM     17  C   UNL     1       0.329  10.310  21.476  0.00  0.00    +0.000 A 
ATOM     18  S   UNL     1       0.204  10.854  19.862  0.00  0.00    +0.000 S 
ATOM     19  C   UNL     1       1.033   9.477  19.282  0.00  0.00    +0.000 A 
ENDBRANCH  14  15
ENDBRANCH   8  14
TORSDOF 2
ENDMDL
