MODEL 1
REMARK VINA RESULT:      -7.6      0.000      0.000
REMARK  Name = 
REMARK  10 active torsions:
REMARK  status: ('A' for Active; 'I' for Inactive)
REMARK    1  A    between atoms: C_7  and  O_8
REMARK    2  A    between atoms: O_8  and  C_9
REMARK    3  A    between atoms: C_9  and  C_10
REMARK    4  A    between atoms: C_10  and  C_11
REMARK    5  A    between atoms: C_17  and  C_19
REMARK    6  A    between atoms: C_19  and  C_20
REMARK    7  A    between atoms: C_19  and  N_24
REMARK    8  A    between atoms: C_20  and  C_21
REMARK    9  A    between atoms: C_21  and  O_23
REMARK   10  A    between atoms: N_24  and  C_25
REMARK                            x       y       z     vdW  Elec       q    Type
REMARK                         _______ _______ _______ _____ _____    ______ ____
ROOT
ATOM      1  C   UNL     1       1.174   9.646  19.829  0.00  0.00    +0.000 C 
ATOM      2  C   UNL     1       1.345   8.455  20.807  0.00  0.00    +0.000 C 
ATOM      3  C   UNL     1       1.103   8.837  22.262  0.00  0.00    +0.000 C 
ATOM      4  C   UNL     1      -0.218   9.572  22.413  0.00  0.00    +0.000 C 
ATOM      5  C   UNL     1      -0.295  10.766  21.466  0.00  0.00    +0.000 C 
ATOM      6  N   UNL     1      -0.113  10.349  20.075  0.00  0.00    +0.000 N 
ATOM      7  C   UNL     1      -1.042  10.688  19.094  0.00  0.00    +0.000 C 
ATOM      8  O   UNL     1      -1.207  10.000  18.078  0.00  0.00    +0.000 OA
ENDROOT
BRANCH   1   9
ATOM      9  C   UNL     1       1.511   9.125  18.424  0.00  0.00    +0.000 C 
BRANCH   9  10
ATOM     10  C   UNL     1       2.726   8.228  18.276  0.00  0.00    +0.000 C 
BRANCH  10  11
ATOM     11  O   UNL     1       2.405   6.941  17.758  0.00  0.00    +0.000 OA
BRANCH  11  18
ATOM     12  N   UNL     1       1.088   2.614  21.134  0.00  0.00    +0.000 NA
ATOM     13  C   UNL     1       1.482   2.684  19.912  0.00  0.00    +0.000 C 
ATOM     14  N   UNL     1       1.562   1.576  19.141  0.00  0.00    +0.000 N 
ATOM     15  N   UNL     1       1.902   3.829  19.307  0.00  0.00    +0.000 N 
ATOM     16  C   UNL     1       1.805   4.061  17.868  0.00  0.00    +0.000 C 
ATOM     17  C   UNL     1       3.151   4.606  17.409  0.00  0.00    +0.000 C 
ATOM     18  C   UNL     1       3.398   5.952  18.103  0.00  0.00    +0.000 C 
ATOM     19  C   UNL     1       3.381   5.756  19.621  0.00  0.00    +0.000 C 
ATOM     20  C   UNL     1       2.095   5.065  20.082  0.00  0.00    +0.000 C 
ATOM     21  H   UNL     1       0.821   1.655  21.348  0.00  0.00    +0.000 HD
ATOM     22  H   UNL     1       1.527   0.704  19.648  0.00  0.00    +0.000 HD
ATOM     23  H   UNL     1       2.367   1.601  18.527  0.00  0.00    +0.000 HD
ENDBRANCH  11  18
ENDBRANCH  10  11
ENDBRANCH   9  10
ENDBRANCH   1   9
BRANCH   7  24
ATOM     24  C   UNL     1      -1.962  11.955  19.295  0.00  0.00    +0.000 C 
BRANCH  24  25
ATOM     25  N   UNL     1      -1.253  13.197  18.903  0.00  0.00    +0.000 NA
ATOM     26  H   UNL     1      -1.913  13.826  18.436  0.00  0.00    +0.000 HD
BRANCH  25  27
ATOM     27  C   UNL     1      -0.597  13.949  19.993  0.00  0.00    +0.000 C 
ATOM     28  C   UNL     1       0.941  13.860  20.013  0.00  0.00    +0.000 C 
ATOM     29  C   UNL     1       1.611  14.516  18.806  0.00  0.00    +0.000 C 
ATOM     30  C   UNL     1       1.108  15.931  18.524  0.00  0.00    +0.000 C 
ATOM     31  C   UNL     1      -0.412  16.058  18.586  0.00  0.00    +0.000 C 
ATOM     32  C   UNL     1      -0.978  15.436  19.861  0.00  0.00    +0.000 C 
ENDBRANCH  25  27
ENDBRANCH  24  25
BRANCH  24  33
ATOM     33  C   UNL     1      -3.306  11.729  18.581  0.00  0.00    +0.000 C 
BRANCH  33  34
ATOM     34  C   UNL     1      -3.173  11.410  17.114  0.00  0.00    +0.000 C 
ATOM     35  O   UNL     1      -3.931  10.674  16.496  0.00  0.00    +0.000 OA
BRANCH  34  36
ATOM     36  O   UNL     1      -2.133  12.030  16.516  0.00  0.00    +0.000 OA
ATOM     37  H   UNL     1      -1.258  11.720  16.852  0.00  0.00    +0.000 HD
ENDBRANCH  34  36
ENDBRANCH  33  34
ENDBRANCH  24  33
ENDBRANCH   7  24
TORSDOF 10
ENDMDL
MODEL 2
REMARK VINA RESULT:      -7.6      3.034      9.121
REMARK  Name = 
REMARK  10 active torsions:
REMARK  status: ('A' for Active; 'I' for Inactive)
REMARK    1  A    between atoms: C_7  and  O_8
REMARK    2  A    between atoms: O_8  and  C_9
REMARK    3  A    between atoms: C_9  and  C_10
REMARK    4  A    between atoms: C_10  and  C_11
REMARK    5  A    between atoms: C_17  and  C_19
REMARK    6  A    between atoms: C_19  and  C_20
REMARK    7  A    between atoms: C_19  and  N_24
REMARK    8  A    between atoms: C_20  and  C_21
REMARK    9  A    between atoms: C_21  and  O_23
REMARK   10  A    between atoms: N_24  and  C_25
REMARK                            x       y       z     vdW  Elec       q    Type
REMARK                         _______ _______ _______ _____ _____    ______ ____
ROOT
ATOM      1  C   UNL     1       1.689   8.611  20.331  0.00  0.00    +0.000 C 
ATOM      2  C   UNL     1       0.890   9.545  19.385  0.00  0.00    +0.000 C 
ATOM      3  C   UNL     1       1.596   9.797  18.058  0.00  0.00    +0.000 C 
ATOM      4  C   UNL     1       2.019   8.487  17.416  0.00  0.00    +0.000 C 
ATOM      5  C   UNL     1       2.851   7.644  18.379  0.00  0.00    +0.000 C 
ATOM      6  N   UNL     1       2.117   7.379  19.617  0.00  0.00    +0.000 N 
ATOM      7  C   UNL     1       1.945   6.079  20.087  0.00  0.00    +0.000 C 
ATOM      8  O   UNL     1       0.983   5.757  20.796  0.00  0.00    +0.000 OA
ENDROOT
BRANCH   1   9
ATOM      9  C   UNL     1       0.889   8.506  21.638  0.00  0.00    +0.000 C 
BRANCH   9  10
ATOM     10  C   UNL     1       0.650   9.782  22.424  0.00  0.00    +0.000 C 
BRANCH  10  11
ATOM     11  O   UNL     1      -0.557  10.441  22.056  0.00  0.00    +0.000 OA
BRANCH  11  18
ATOM     12  N   UNL     1      -4.614  13.742  19.933  0.00  0.00    +0.000 NA
ATOM     13  C   UNL     1      -4.126  13.602  21.115  0.00  0.00    +0.000 C 
ATOM     14  N   UNL     1      -4.654  14.263  22.169  0.00  0.00    +0.000 N 
ATOM     15  N   UNL     1      -3.028  12.852  21.406  0.00  0.00    +0.000 N 
ATOM     16  C   UNL     1      -2.801  12.231  22.710  0.00  0.00    +0.000 C 
ATOM     17  C   UNL     1      -1.362  12.534  23.106  0.00  0.00    +0.000 C 
ATOM     18  C   UNL     1      -0.423  11.877  22.085  0.00  0.00    +0.000 C 
ATOM     19  C   UNL     1      -0.726  12.423  20.687  0.00  0.00    +0.000 C 
ATOM     20  C   UNL     1      -2.208  12.265  20.334  0.00  0.00    +0.000 C 
ATOM     21  H   UNL     1      -5.433  14.344  19.976  0.00  0.00    +0.000 HD
ATOM     22  H   UNL     1      -5.272  15.024  21.926  0.00  0.00    +0.000 HD
ATOM     23  H   UNL     1      -3.940  14.575  22.816  0.00  0.00    +0.000 HD
ENDBRANCH  11  18
ENDBRANCH  10  11
ENDBRANCH   9  10
ENDBRANCH   1   9
BRANCH   7  24
ATOM     24  C   UNL     1       2.971   4.955  19.667  0.00  0.00    +0.000 C 
BRANCH  24  25
ATOM     25  N   UNL     1       4.364   5.459  19.714  0.00  0.00    +0.000 NA
ATOM     26  H   UNL     1       4.637   5.600  20.692  0.00  0.00    +0.000 HD
BRANCH  25  27
ATOM     27  C   UNL     1       5.390   4.611  19.073  0.00  0.00    +0.000 C 
ATOM     28  C   UNL     1       4.981   4.008  17.715  0.00  0.00    +0.000 C 
ATOM     29  C   UNL     1       4.782   5.050  16.614  0.00  0.00    +0.000 C 
ATOM     30  C   UNL     1       5.941   6.038  16.494  0.00  0.00    +0.000 C 
ATOM     31  C   UNL     1       6.418   6.581  17.838  0.00  0.00    +0.000 C 
ATOM     32  C   UNL     1       6.657   5.458  18.847  0.00  0.00    +0.000 C 
ENDBRANCH  25  27
ENDBRANCH  24  25
BRANCH  24  33
ATOM     33  C   UNL     1       2.716   3.691  20.505  0.00  0.00    +0.000 C 
BRANCH  33  34
ATOM     34  C   UNL     1       1.798   2.693  19.844  0.00  0.00    +0.000 C 
ATOM     35  O   UNL     1       2.176   1.793  19.105  0.00  0.00    +0.000 OA
BRANCH  34  36
ATOM     36  O   UNL     1       0.496   2.867  20.152  0.00  0.00    +0.000 OA
ATOM     37  H   UNL     1       0.192   2.274  20.880  0.00  0.00    +0.000 HD
ENDBRANCH  34  36
ENDBRANCH  33  34
ENDBRANCH  24  33
ENDBRANCH   7  24
TORSDOF 10
ENDMDL
MODEL 3
REMARK VINA RESULT:      -7.5      2.457      3.277
REMARK  Name = 
REMARK  10 active torsions:
REMARK  status: ('A' for Active; 'I' for Inactive)
REMARK    1  A    between atoms: C_7  and  O_8
REMARK    2  A    between atoms: O_8  and  C_9
REMARK    3  A    between atoms: C_9  and  C_10
REMARK    4  A    between atoms: C_10  and  C_11
REMARK    5  A    between atoms: C_17  and  C_19
REMARK    6  A    between atoms: C_19  and  C_20
REMARK    7  A    between atoms: C_19  and  N_24
REMARK    8  A    between atoms: C_20  and  C_21
REMARK    9  A    between atoms: C_21  and  O_23
REMARK   10  A    between atoms: N_24  and  C_25
REMARK                            x       y       z     vdW  Elec       q    Type
REMARK                         _______ _______ _______ _____ _____    ______ ____
ROOT
ATOM      1  C   UNL     1       1.545   9.115  20.465  0.00  0.00    +0.000 C 
ATOM      2  C   UNL     1       0.716   8.197  21.401  0.00  0.00    +0.000 C 
ATOM      3  C   UNL     1       0.199   8.918  22.640  0.00  0.00    +0.000 C 
ATOM      4  C   UNL     1      -0.510  10.206  22.257  0.00  0.00    +0.000 C 
ATOM      5  C   UNL     1       0.382  11.088  21.386  0.00  0.00    +0.000 C 
ATOM      6  N   UNL     1       0.812  10.377  20.182  0.00  0.00    +0.000 N 
ATOM      7  C   UNL     1       0.613  10.923  18.915  0.00  0.00    +0.000 C 
ATOM      8  O   UNL     1       0.498  10.216  17.905  0.00  0.00    +0.000 OA
ENDROOT
BRANCH   1   9
ATOM      9  C   UNL     1       2.047   8.239  19.307  0.00  0.00    +0.000 C 
BRANCH   9  10
ATOM     10  C   UNL     1       2.379   6.790  19.611  0.00  0.00    +0.000 C 
BRANCH  10  11
ATOM     11  O   UNL     1       2.595   6.013  18.436  0.00  0.00    +0.000 OA
BRANCH  11  18
ATOM     12  N   UNL     1       7.225   4.260  15.725  0.00  0.00    +0.000 NA
ATOM     13  C   UNL     1       6.975   4.513  16.961  0.00  0.00    +0.000 C 
ATOM     14  N   UNL     1       7.953   4.465  17.893  0.00  0.00    +0.000 N 
ATOM     15  N   UNL     1       5.735   4.784  17.452  0.00  0.00    +0.000 N 
ATOM     16  C   UNL     1       5.502   5.595  18.645  0.00  0.00    +0.000 C 
ATOM     17  C   UNL     1       4.496   4.845  19.508  0.00  0.00    +0.000 C 
ATOM     18  C   UNL     1       3.176   4.727  18.735  0.00  0.00    +0.000 C 
ATOM     19  C   UNL     1       3.419   3.985  17.418  0.00  0.00    +0.000 C 
ATOM     20  C   UNL     1       4.540   4.641  16.606  0.00  0.00    +0.000 C 
ATOM     21  H   UNL     1       8.222   4.096  15.609  0.00  0.00    +0.000 HD
ATOM     22  H   UNL     1       8.798   3.998  17.597  0.00  0.00    +0.000 HD
ATOM     23  H   UNL     1       7.621   4.080  18.770  0.00  0.00    +0.000 HD
ENDBRANCH  11  18
ENDBRANCH  10  11
ENDBRANCH   9  10
ENDBRANCH   1   9
BRANCH   7  24
ATOM     24  C   UNL     1       0.472  12.487  18.753  0.00  0.00    +0.000 C 
BRANCH  24  25
ATOM     25  N   UNL     1       1.666  13.064  18.090  0.00  0.00    +0.000 NA
ATOM     26  H   UNL     1       1.362  13.743  17.385  0.00  0.00    +0.000 HD
BRANCH  25  27
ATOM     27  C   UNL     1       2.646  13.731  18.972  0.00  0.00    +0.000 C 
ATOM     28  C   UNL     1       3.857  14.351  18.249  0.00  0.00    +0.000 C 
ATOM     29  C   UNL     1       3.494  15.522  17.334  0.00  0.00    +0.000 C 
ATOM     30  C   UNL     1       2.611  16.570  18.008  0.00  0.00    +0.000 C 
ATOM     31  C   UNL     1       1.454  15.971  18.803  0.00  0.00    +0.000 C 
ATOM     32  C   UNL     1       1.930  14.860  19.738  0.00  0.00    +0.000 C 
ENDBRANCH  25  27
ENDBRANCH  24  25
BRANCH  24  33
ATOM     33  C   UNL     1      -0.865  12.810  18.064  0.00  0.00    +0.000 C 
BRANCH  33  34
ATOM     34  C   UNL     1      -2.079  12.425  18.872  0.00  0.00    +0.000 C 
ATOM     35  O   UNL     1      -2.756  11.426  18.667  0.00  0.00    +0.000 OA
BRANCH  34  36
ATOM     36  O   UNL     1      -2.356  13.284  19.877  0.00  0.00    +0.000 OA
ATOM     37  H   UNL     1      -1.639  13.324  20.555  0.00  0.00    +0.000 HD
ENDBRANCH  34  36
ENDBRANCH  33  34
ENDBRANCH  24  33
ENDBRANCH   7  24
TORSDOF 10
ENDMDL
MODEL 4
REMARK VINA RESULT:      -7.4      1.563      2.133
REMARK  Name = 
REMARK  10 active torsions:
REMARK  status: ('A' for Active; 'I' for Inactive)
REMARK    1  A    between atoms: C_7  and  O_8
REMARK    2  A    between atoms: O_8  and  C_9
REMARK    3  A    between atoms: C_9  and  C_10
REMARK    4  A    between atoms: C_10  and  C_11
REMARK    5  A    between atoms: C_17  and  C_19
REMARK    6  A    between atoms: C_19  and  C_20
REMARK    7  A    between atoms: C_19  and  N_24
REMARK    8  A    between atoms: C_20  and  C_21
REMARK    9  A    between atoms: C_21  and  O_23
REMARK   10  A    between atoms: N_24  and  C_25
REMARK                            x       y       z     vdW  Elec       q    Type
REMARK                         _______ _______ _______ _____ _____    ______ ____
ROOT
ATOM      1  C   UNL     1       1.465   9.149  19.648  0.00  0.00    +0.000 C 
ATOM      2  C   UNL     1       1.305   8.005  20.684  0.00  0.00    +0.000 C 
ATOM      3  C   UNL     1       0.964   8.508  22.081  0.00  0.00    +0.000 C 
ATOM      4  C   UNL     1      -0.214   9.466  22.036  0.00  0.00    +0.000 C 
ATOM      5  C   UNL     1       0.033  10.598  21.042  0.00  0.00    +0.000 C 
ATOM      6  N   UNL     1       0.303  10.075  19.703  0.00  0.00    +0.000 N 
ATOM      7  C   UNL     1      -0.430  10.509  18.600  0.00  0.00    +0.000 C 
ATOM      8  O   UNL     1      -0.593   9.801  17.598  0.00  0.00    +0.000 OA
ENDROOT
BRANCH   1   9
ATOM      9  C   UNL     1       1.867   8.496  18.317  0.00  0.00    +0.000 C 
BRANCH   9  10
ATOM     10  C   UNL     1       3.037   7.529  18.331  0.00  0.00    +0.000 C 
BRANCH  10  11
ATOM     11  O   UNL     1       2.691   6.233  17.850  0.00  0.00    +0.000 OA
BRANCH  11  18
ATOM     12  N   UNL     1       4.092   0.776  18.175  0.00  0.00    +0.000 NA
ATOM     13  C   UNL     1       4.260   1.773  18.970  0.00  0.00    +0.000 C 
ATOM     14  N   UNL     1       4.970   1.641  20.113  0.00  0.00    +0.000 N 
ATOM     15  N   UNL     1       3.709   3.003  18.782  0.00  0.00    +0.000 N 
ATOM     16  C   UNL     1       4.300   4.237  19.296  0.00  0.00    +0.000 C 
ATOM     17  C   UNL     1       3.181   5.029  19.957  0.00  0.00    +0.000 C 
ATOM     18  C   UNL     1       2.142   5.397  18.889  0.00  0.00    +0.000 C 
ATOM     19  C   UNL     1       1.595   4.119  18.247  0.00  0.00    +0.000 C 
ATOM     20  C   UNL     1       2.725   3.234  17.713  0.00  0.00    +0.000 C 
ATOM     21  H   UNL     1       4.608  -0.028  18.529  0.00  0.00    +0.000 HD
ATOM     22  H   UNL     1       5.138   0.688  20.399  0.00  0.00    +0.000 HD
ATOM     23  H   UNL     1       4.566   2.176  20.872  0.00  0.00    +0.000 HD
ENDBRANCH  11  18
ENDBRANCH  10  11
ENDBRANCH   9  10
ENDBRANCH   1   9
BRANCH   7  24
ATOM     24  C   UNL     1      -1.127  11.925  18.635  0.00  0.00    +0.000 C 
BRANCH  24  25
ATOM     25  N   UNL     1      -0.235  12.974  18.087  0.00  0.00    +0.000 NA
ATOM     26  H   UNL     1      -0.538  13.209  17.137  0.00  0.00    +0.000 HD
BRANCH  25  27
ATOM     27  C   UNL     1      -0.146  14.229  18.862  0.00  0.00    +0.000 C 
ATOM     28  C   UNL     1       0.179  14.050  20.357  0.00  0.00    +0.000 C 
ATOM     29  C   UNL     1       1.575  13.485  20.621  0.00  0.00    +0.000 C 
ATOM     30  C   UNL     1       2.681  14.215  19.862  0.00  0.00    +0.000 C 
ATOM     31  C   UNL     1       2.341  14.479  18.397  0.00  0.00    +0.000 C 
ATOM     32  C   UNL     1       0.957  15.110  18.245  0.00  0.00    +0.000 C 
ENDBRANCH  25  27
ENDBRANCH  24  25
BRANCH  24  33
ATOM     33  C   UNL     1      -2.504  11.833  17.955  0.00  0.00    +0.000 C 
BRANCH  33  34
ATOM     34  C   UNL     1      -3.667  11.969  18.907  0.00  0.00    +0.000 C 
ATOM     35  O   UNL     1      -4.817  11.644  18.642  0.00  0.00    +0.000 OA
BRANCH  34  36
ATOM     36  O   UNL     1      -3.326  12.477  20.110  0.00  0.00    +0.000 OA
ATOM     37  H   UNL     1      -3.393  11.814  20.839  0.00  0.00    +0.000 HD
ENDBRANCH  34  36
ENDBRANCH  33  34
ENDBRANCH  24  33
ENDBRANCH   7  24
TORSDOF 10
ENDMDL
MODEL 5
REMARK VINA RESULT:      -7.4      2.827      8.950
REMARK  Name = 
REMARK  10 active torsions:
REMARK  status: ('A' for Active; 'I' for Inactive)
REMARK    1  A    between atoms: C_7  and  O_8
REMARK    2  A    between atoms: O_8  and  C_9
REMARK    3  A    between atoms: C_9  and  C_10
REMARK    4  A    between atoms: C_10  and  C_11
REMARK    5  A    between atoms: C_17  and  C_19
REMARK    6  A    between atoms: C_19  and  C_20
REMARK    7  A    between atoms: C_19  and  N_24
REMARK    8  A    between atoms: C_20  and  C_21
REMARK    9  A    between atoms: C_21  and  O_23
REMARK   10  A    between atoms: N_24  and  C_25
REMARK                            x       y       z     vdW  Elec       q    Type
REMARK                         _______ _______ _______ _____ _____    ______ ____
ROOT
ATOM      1  C   UNL     1      -0.186   9.560  20.174  0.00  0.00    +0.000 C 
ATOM      2  C   UNL     1      -0.152  10.460  21.436  0.00  0.00    +0.000 C 
ATOM      3  C   UNL     1       0.318   9.722  22.684  0.00  0.00    +0.000 C 
ATOM      4  C   UNL     1       1.621   8.989  22.417  0.00  0.00    +0.000 C 
ATOM      5  C   UNL     1       1.500   8.077  21.199  0.00  0.00    +0.000 C 
ATOM      6  N   UNL     1       1.101   8.833  20.012  0.00  0.00    +0.000 N 
ATOM      7  C   UNL     1       1.842   8.766  18.834  0.00  0.00    +0.000 C 
ATOM      8  O   UNL     1       1.857   9.693  18.012  0.00  0.00    +0.000 OA
ENDROOT
BRANCH   1   9
ATOM      9  C   UNL     1      -0.736  10.419  19.025  0.00  0.00    +0.000 C 
BRANCH   9  10
ATOM     10  C   UNL     1      -1.137  11.848  19.341  0.00  0.00    +0.000 C 
BRANCH  10  11
ATOM     11  O   UNL     1      -2.468  11.953  19.836  0.00  0.00    +0.000 OA
BRANCH  11  18
ATOM     12  N   UNL     1      -6.218  12.533  24.014  0.00  0.00    +0.000 NA
ATOM     13  C   UNL     1      -4.953  12.751  23.935  0.00  0.00    +0.000 C 
ATOM     14  N   UNL     1      -4.240  13.120  25.022  0.00  0.00    +0.000 N 
ATOM     15  N   UNL     1      -4.238  12.695  22.778  0.00  0.00    +0.000 N 
ATOM     16  C   UNL     1      -2.812  12.377  22.728  0.00  0.00    +0.000 C 
ATOM     17  C   UNL     1      -2.155  13.404  21.817  0.00  0.00    +0.000 C 
ATOM     18  C   UNL     1      -2.736  13.251  20.405  0.00  0.00    +0.000 C 
ATOM     19  C   UNL     1      -4.252  13.460  20.450  0.00  0.00    +0.000 C 
ATOM     20  C   UNL     1      -4.912  12.537  21.480  0.00  0.00    +0.000 C 
ATOM     21  H   UNL     1      -6.517  12.629  24.982  0.00  0.00    +0.000 HD
ATOM     22  H   UNL     1      -4.794  13.436  25.805  0.00  0.00    +0.000 HD
ATOM     23  H   UNL     1      -3.527  13.802  24.793  0.00  0.00    +0.000 HD
ENDBRANCH  11  18
ENDBRANCH  10  11
ENDBRANCH   9  10
ENDBRANCH   1   9
BRANCH   7  24
ATOM     24  C   UNL     1       2.741   7.501  18.548  0.00  0.00    +0.000 C 
BRANCH  24  25
ATOM     25  N   UNL     1       1.995   6.247  18.807  0.00  0.00    +0.000 NA
ATOM     26  H   UNL     1       1.610   5.897  17.924  0.00  0.00    +0.000 HD
BRANCH  25  27
ATOM     27  C   UNL     1       2.757   5.149  19.438  0.00  0.00    +0.000 C 
ATOM     28  C   UNL     1       2.084   4.513  20.669  0.00  0.00    +0.000 C 
ATOM     29  C   UNL     1       0.785   3.773  20.347  0.00  0.00    +0.000 C 
ATOM     30  C   UNL     1       0.913   2.799  19.177  0.00  0.00    +0.000 C 
ATOM     31  C   UNL     1       1.655   3.384  17.978  0.00  0.00    +0.000 C 
ATOM     32  C   UNL     1       2.973   4.037  18.394  0.00  0.00    +0.000 C 
ENDBRANCH  25  27
ENDBRANCH  24  25
BRANCH  24  33
ATOM     33  C   UNL     1       3.343   7.611  17.136  0.00  0.00    +0.000 C 
BRANCH  33  34
ATOM     34  C   UNL     1       4.702   6.971  16.999  0.00  0.00    +0.000 C 
ATOM     35  O   UNL     1       5.386   6.596  17.942  0.00  0.00    +0.000 OA
BRANCH  34  36
ATOM     36  O   UNL     1       5.107   6.828  15.719  0.00  0.00    +0.000 OA
ATOM     37  H   UNL     1       6.057   7.065  15.590  0.00  0.00    +0.000 HD
ENDBRANCH  34  36
ENDBRANCH  33  34
ENDBRANCH  24  33
ENDBRANCH   7  24
TORSDOF 10
ENDMDL
MODEL 6
REMARK VINA RESULT:      -7.4      1.424      1.563
REMARK  Name = 
REMARK  10 active torsions:
REMARK  status: ('A' for Active; 'I' for Inactive)
REMARK    1  A    between atoms: C_7  and  O_8
REMARK    2  A    between atoms: O_8  and  C_9
REMARK    3  A    between atoms: C_9  and  C_10
REMARK    4  A    between atoms: C_10  and  C_11
REMARK    5  A    between atoms: C_17  and  C_19
REMARK    6  A    between atoms: C_19  and  C_20
REMARK    7  A    between atoms: C_19  and  N_24
REMARK    8  A    between atoms: C_20  and  C_21
REMARK    9  A    between atoms: C_21  and  O_23
REMARK   10  A    between atoms: N_24  and  C_25
REMARK                            x       y       z     vdW  Elec       q    Type
REMARK                         _______ _______ _______ _____ _____    ______ ____
ROOT
ATOM      1  C   UNL     1       1.411   9.383  19.631  0.00  0.00    +0.000 C 
ATOM      2  C   UNL     1       1.476   8.126  20.537  0.00  0.00    +0.000 C 
ATOM      3  C   UNL     1       0.972   8.383  21.952  0.00  0.00    +0.000 C 
ATOM      4  C   UNL     1      -0.393   9.050  21.924  0.00  0.00    +0.000 C 
ATOM      5  C   UNL     1      -0.372  10.310  21.064  0.00  0.00    +0.000 C 
ATOM      6  N   UNL     1       0.065  10.011  19.700  0.00  0.00    +0.000 N 
ATOM      7  C   UNL     1      -0.702  10.388  18.600  0.00  0.00    +0.000 C 
ATOM      8  O   UNL     1      -0.656   9.776  17.524  0.00  0.00    +0.000 OA
ENDROOT
BRANCH   1   9
ATOM      9  C   UNL     1       2.007   8.987  18.272  0.00  0.00    +0.000 C 
BRANCH   9  10
ATOM     10  C   UNL     1       2.143   7.507  17.964  0.00  0.00    +0.000 C 
BRANCH  10  11
ATOM     11  O   UNL     1       3.368   6.953  18.437  0.00  0.00    +0.000 OA
BRANCH  11  18
ATOM     12  N   UNL     1       5.070   1.866  20.192  0.00  0.00    +0.000 NA
ATOM     13  C   UNL     1       4.165   2.250  19.362  0.00  0.00    +0.000 C 
ATOM     14  N   UNL     1       3.328   1.360  18.783  0.00  0.00    +0.000 N 
ATOM     15  N   UNL     1       4.002   3.536  18.949  0.00  0.00    +0.000 N 
ATOM     16  C   UNL     1       2.722   4.082  18.502  0.00  0.00    +0.000 C 
ATOM     17  C   UNL     1       2.984   4.839  17.207  0.00  0.00    +0.000 C 
ATOM     18  C   UNL     1       3.933   6.008  17.505  0.00  0.00    +0.000 C 
ATOM     19  C   UNL     1       5.240   5.469  18.091  0.00  0.00    +0.000 C 
ATOM     20  C   UNL     1       4.981   4.575  19.308  0.00  0.00    +0.000 C 
ATOM     21  H   UNL     1       4.983   0.864  20.345  0.00  0.00    +0.000 HD
ATOM     22  H   UNL     1       3.616   0.396  18.860  0.00  0.00    +0.000 HD
ATOM     23  H   UNL     1       3.133   1.599  17.818  0.00  0.00    +0.000 HD
ENDBRANCH  11  18
ENDBRANCH  10  11
ENDBRANCH   9  10
ENDBRANCH   1   9
BRANCH   7  24
ATOM     24  C   UNL     1      -1.708  11.598  18.727  0.00  0.00    +0.000 C 
BRANCH  24  25
ATOM     25  N   UNL     1      -1.014  12.893  18.531  0.00  0.00    +0.000 NA
ATOM     26  H   UNL     1      -1.667  13.562  18.111  0.00  0.00    +0.000 HD
BRANCH  25  27
ATOM     27  C   UNL     1      -0.436  13.516  19.740  0.00  0.00    +0.000 C 
ATOM     28  C   UNL     1       1.104  13.513  19.801  0.00  0.00    +0.000 C 
ATOM     29  C   UNL     1       1.764  14.376  18.724  0.00  0.00    +0.000 C 
ATOM     30  C   UNL     1       1.181  15.784  18.630  0.00  0.00    +0.000 C 
ATOM     31  C   UNL     1      -0.345  15.814  18.656  0.00  0.00    +0.000 C 
ATOM     32  C   UNL     1      -0.905  14.982  19.809  0.00  0.00    +0.000 C 
ENDBRANCH  25  27
ENDBRANCH  24  25
BRANCH  24  33
ATOM     33  C   UNL     1      -2.909  11.364  17.794  0.00  0.00    +0.000 C 
BRANCH  33  34
ATOM     34  C   UNL     1      -4.182  12.026  18.258  0.00  0.00    +0.000 C 
ATOM     35  O   UNL     1      -5.253  11.951  17.670  0.00  0.00    +0.000 OA
BRANCH  34  36
ATOM     36  O   UNL     1      -4.047  12.713  19.412  0.00  0.00    +0.000 OA
ATOM     37  H   UNL     1      -3.639  12.175  20.133  0.00  0.00    +0.000 HD
ENDBRANCH  34  36
ENDBRANCH  33  34
ENDBRANCH  24  33
ENDBRANCH   7  24
TORSDOF 10
ENDMDL
MODEL 7
REMARK VINA RESULT:      -7.4      0.934      1.182
REMARK  Name = 
REMARK  10 active torsions:
REMARK  status: ('A' for Active; 'I' for Inactive)
REMARK    1  A    between atoms: C_7  and  O_8
REMARK    2  A    between atoms: O_8  and  C_9
REMARK    3  A    between atoms: C_9  and  C_10
REMARK    4  A    between atoms: C_10  and  C_11
REMARK    5  A    between atoms: C_17  and  C_19
REMARK    6  A    between atoms: C_19  and  C_20
REMARK    7  A    between atoms: C_19  and  N_24
REMARK    8  A    between atoms: C_20  and  C_21
REMARK    9  A    between atoms: C_21  and  O_23
REMARK   10  A    between atoms: N_24  and  C_25
REMARK                            x       y       z     vdW  Elec       q    Type
REMARK                         _______ _______ _______ _____ _____    ______ ____
ROOT
ATOM      1  C   UNL     1       1.492   9.225  19.459  0.00  0.00    +0.000 C 
ATOM      2  C   UNL     1       1.457   8.090  20.516  0.00  0.00    +0.000 C 
ATOM      3  C   UNL     1       1.124   8.589  21.918  0.00  0.00    +0.000 C 
ATOM      4  C   UNL     1      -0.127   9.451  21.899  0.00  0.00    +0.000 C 
ATOM      5  C   UNL     1      -0.002  10.581  20.881  0.00  0.00    +0.000 C 
ATOM      6  N   UNL     1       0.263  10.058  19.541  0.00  0.00    +0.000 N 
ATOM      7  C   UNL     1      -0.538  10.414  18.458  0.00  0.00    +0.000 C 
ATOM      8  O   UNL     1      -0.678   9.678  17.472  0.00  0.00    +0.000 OA
ENDROOT
BRANCH   1   9
ATOM      9  C   UNL     1       1.900   8.582  18.125  0.00  0.00    +0.000 C 
BRANCH   9  10
ATOM     10  C   UNL     1       3.219   7.833  18.077  0.00  0.00    +0.000 C 
BRANCH  10  11
ATOM     11  O   UNL     1       3.137   6.612  17.348  0.00  0.00    +0.000 OA
BRANCH  11  18
ATOM     12  N   UNL     1       0.945   2.652  20.720  0.00  0.00    +0.000 NA
ATOM     13  C   UNL     1       1.534   2.603  19.578  0.00  0.00    +0.000 C 
ATOM     14  N   UNL     1       1.645   1.438  18.901  0.00  0.00    +0.000 N 
ATOM     15  N   UNL     1       2.138   3.667  18.982  0.00  0.00    +0.000 N 
ATOM     16  C   UNL     1       2.293   3.798  17.535  0.00  0.00    +0.000 C 
ATOM     17  C   UNL     1       3.734   4.211  17.272  0.00  0.00    +0.000 C 
ATOM     18  C   UNL     1       3.977   5.584  17.913  0.00  0.00    +0.000 C 
ATOM     19  C   UNL     1       3.702   5.503  19.417  0.00  0.00    +0.000 C 
ATOM     20  C   UNL     1       2.305   4.940  19.700  0.00  0.00    +0.000 C 
ATOM     21  H   UNL     1       0.570   1.733  20.946  0.00  0.00    +0.000 HD
ATOM     22  H   UNL     1       1.458   0.610  19.448  0.00  0.00    +0.000 HD
ATOM     23  H   UNL     1       2.538   1.360  18.428  0.00  0.00    +0.000 HD
ENDBRANCH  11  18
ENDBRANCH  10  11
ENDBRANCH   9  10
ENDBRANCH   1   9
BRANCH   7  24
ATOM     24  C   UNL     1      -1.343  11.771  18.496  0.00  0.00    +0.000 C 
BRANCH  24  25
ATOM     25  N   UNL     1      -0.436  12.935  18.356  0.00  0.00    +0.000 NA
ATOM     26  H   UNL     1      -0.408  13.221  17.372  0.00  0.00    +0.000 HD
BRANCH  25  27
ATOM     27  C   UNL     1      -0.765  14.125  19.168  0.00  0.00    +0.000 C 
ATOM     28  C   UNL     1      -0.381  14.024  20.656  0.00  0.00    +0.000 C 
ATOM     29  C   UNL     1       1.127  13.956  20.899  0.00  0.00    +0.000 C 
ATOM     30  C   UNL     1       1.913  15.037  20.160  0.00  0.00    +0.000 C 
ATOM     31  C   UNL     1       1.486  15.211  18.705  0.00  0.00    +0.000 C 
ATOM     32  C   UNL     1      -0.031  15.343  18.575  0.00  0.00    +0.000 C 
ENDBRANCH  25  27
ENDBRANCH  24  25
BRANCH  24  33
ATOM     33  C   UNL     1      -2.484  11.717  17.466  0.00  0.00    +0.000 C 
BRANCH  33  34
ATOM     34  C   UNL     1      -3.845  11.478  18.071  0.00  0.00    +0.000 C 
ATOM     35  O   UNL     1      -4.469  10.430  17.975  0.00  0.00    +0.000 OA
BRANCH  34  36
ATOM     36  O   UNL     1      -4.325  12.536  18.759  0.00  0.00    +0.000 OA
ATOM     37  H   UNL     1      -5.131  12.928  18.345  0.00  0.00    +0.000 HD
ENDBRANCH  34  36
ENDBRANCH  33  34
ENDBRANCH  24  33
ENDBRANCH   7  24
TORSDOF 10
ENDMDL
MODEL 8
REMARK VINA RESULT:      -7.3      2.712      3.686
REMARK  Name = 
REMARK  10 active torsions:
REMARK  status: ('A' for Active; 'I' for Inactive)
REMARK    1  A    between atoms: C_7  and  O_8
REMARK    2  A    between atoms: O_8  and  C_9
REMARK    3  A    between atoms: C_9  and  C_10
REMARK    4  A    between atoms: C_10  and  C_11
REMARK    5  A    between atoms: C_17  and  C_19
REMARK    6  A    between atoms: C_19  and  C_20
REMARK    7  A    between atoms: C_19  and  N_24
REMARK    8  A    between atoms: C_20  and  C_21
REMARK    9  A    between atoms: C_21  and  O_23
REMARK   10  A    between atoms: N_24  and  C_25
REMARK                            x       y       z     vdW  Elec       q    Type
REMARK                         _______ _______ _______ _____ _____    ______ ____
ROOT
ATOM      1  C   UNL     1       1.281   9.246  20.840  0.00  0.00    +0.000 C 
ATOM      2  C   UNL     1       0.269   8.384  21.638  0.00  0.00    +0.000 C 
ATOM      3  C   UNL     1      -0.293   9.100  22.860  0.00  0.00    +0.000 C 
ATOM      4  C   UNL     1      -0.820  10.474  22.483  0.00  0.00    +0.000 C 
ATOM      5  C   UNL     1       0.244  11.291  21.754  0.00  0.00    +0.000 C 
ATOM      6  N   UNL     1       0.718  10.593  20.559  0.00  0.00    +0.000 N 
ATOM      7  C   UNL     1       0.708  11.215  19.312  0.00  0.00    +0.000 C 
ATOM      8  O   UNL     1       0.623  10.572  18.257  0.00  0.00    +0.000 OA
ENDROOT
BRANCH   1   9
ATOM      9  C   UNL     1       1.804   8.374  19.689  0.00  0.00    +0.000 C 
BRANCH   9  10
ATOM     10  C   UNL     1       1.980   6.890  19.951  0.00  0.00    +0.000 C 
BRANCH  10  11
ATOM     11  O   UNL     1       3.326   6.454  19.789  0.00  0.00    +0.000 OA
BRANCH  11  18
ATOM     12  N   UNL     1       7.394   5.993  15.903  0.00  0.00    +0.000 NA
ATOM     13  C   UNL     1       7.110   5.317  16.959  0.00  0.00    +0.000 C 
ATOM     14  N   UNL     1       7.912   4.315  17.382  0.00  0.00    +0.000 N 
ATOM     15  N   UNL     1       5.980   5.491  17.699  0.00  0.00    +0.000 N 
ATOM     16  C   UNL     1       5.897   5.184  19.125  0.00  0.00    +0.000 C 
ATOM     17  C   UNL     1       4.616   4.390  19.340  0.00  0.00    +0.000 C 
ATOM     18  C   UNL     1       3.421   5.275  18.963  0.00  0.00    +0.000 C 
ATOM     19  C   UNL     1       3.548   5.713  17.502  0.00  0.00    +0.000 C 
ATOM     20  C   UNL     1       4.902   6.377  17.233  0.00  0.00    +0.000 C 
ATOM     21  H   UNL     1       8.290   5.682  15.534  0.00  0.00    +0.000 HD
ATOM     22  H   UNL     1       8.585   3.995  16.701  0.00  0.00    +0.000 HD
ATOM     23  H   UNL     1       7.381   3.536  17.752  0.00  0.00    +0.000 HD
ENDBRANCH  11  18
ENDBRANCH  10  11
ENDBRANCH   9  10
ENDBRANCH   1   9
BRANCH   7  24
ATOM     24  C   UNL     1       0.749  12.790  19.225  0.00  0.00    +0.000 C 
BRANCH  24  25
ATOM     25  N   UNL     1       2.046  13.261  18.684  0.00  0.00    +0.000 NA
ATOM     26  H   UNL     1       2.179  12.873  17.745  0.00  0.00    +0.000 HD
BRANCH  25  27
ATOM     27  C   UNL     1       2.229  14.725  18.602  0.00  0.00    +0.000 C 
ATOM     28  C   UNL     1       2.566  15.416  19.938  0.00  0.00    +0.000 C 
ATOM     29  C   UNL     1       3.927  15.017  20.510  0.00  0.00    +0.000 C 
ATOM     30  C   UNL     1       5.065  15.110  19.496  0.00  0.00    +0.000 C 
ATOM     31  C   UNL     1       4.719  14.508  18.137  0.00  0.00    +0.000 C 
ATOM     32  C   UNL     1       3.377  15.023  17.618  0.00  0.00    +0.000 C 
ENDBRANCH  25  27
ENDBRANCH  24  25
BRANCH  24  33
ATOM     33  C   UNL     1      -0.487  13.292  18.459  0.00  0.00    +0.000 C 
BRANCH  33  34
ATOM     34  C   UNL     1      -1.799  12.913  19.099  0.00  0.00    +0.000 C 
ATOM     35  O   UNL     1      -2.137  13.244  20.228  0.00  0.00    +0.000 OA
BRANCH  34  36
ATOM     36  O   UNL     1      -2.598  12.173  18.301  0.00  0.00    +0.000 OA
ATOM     37  H   UNL     1      -2.523  12.422  17.348  0.00  0.00    +0.000 HD
ENDBRANCH  34  36
ENDBRANCH  33  34
ENDBRANCH  24  33
ENDBRANCH   7  24
TORSDOF 10
ENDMDL
MODEL 9
REMARK VINA RESULT:      -7.3      1.409      1.898
REMARK  Name = 
REMARK  10 active torsions:
REMARK  status: ('A' for Active; 'I' for Inactive)
REMARK    1  A    between atoms: C_7  and  O_8
REMARK    2  A    between atoms: O_8  and  C_9
REMARK    3  A    between atoms: C_9  and  C_10
REMARK    4  A    between atoms: C_10  and  C_11
REMARK    5  A    between atoms: C_17  and  C_19
REMARK    6  A    between atoms: C_19  and  C_20
REMARK    7  A    between atoms: C_19  and  N_24
REMARK    8  A    between atoms: C_20  and  C_21
REMARK    9  A    between atoms: C_21  and  O_23
REMARK   10  A    between atoms: N_24  and  C_25
REMARK                            x       y       z     vdW  Elec       q    Type
REMARK                         _______ _______ _______ _____ _____    ______ ____
ROOT
ATOM      1  C   UNL     1       0.935   9.550  21.072  0.00  0.00    +0.000 C 
ATOM      2  C   UNL     1       0.466   8.621  22.222  0.00  0.00    +0.000 C 
ATOM      3  C   UNL     1      -0.008   9.386  23.453  0.00  0.00    +0.000 C 
ATOM      4  C   UNL     1      -1.023  10.449  23.067  0.00  0.00    +0.000 C 
ATOM      5  C   UNL     1      -0.475  11.363  21.975  0.00  0.00    +0.000 C 
ATOM      6  N   UNL     1      -0.083  10.597  20.793  0.00  0.00    +0.000 N 
ATOM      7  C   UNL     1      -0.575  10.920  19.530  0.00  0.00    +0.000 C 
ATOM      8  O   UNL     1      -0.682  10.077  18.629  0.00  0.00    +0.000 OA
ENDROOT
BRANCH   1   9
ATOM      9  C   UNL     1       1.439   8.643  19.940  0.00  0.00    +0.000 C 
BRANCH   9  10
ATOM     10  C   UNL     1       2.138   7.352  20.327  0.00  0.00    +0.000 C 
BRANCH  10  11
ATOM     11  O   UNL     1       1.653   6.222  19.609  0.00  0.00    +0.000 OA
BRANCH  11  18
ATOM     12  N   UNL     1       5.067   1.743  19.991  0.00  0.00    +0.000 NA
ATOM     13  C   UNL     1       4.083   2.032  19.214  0.00  0.00    +0.000 C 
ATOM     14  N   UNL     1       3.619   1.137  18.315  0.00  0.00    +0.000 N 
ATOM     15  N   UNL     1       3.470   3.247  19.175  0.00  0.00    +0.000 N 
ATOM     16  C   UNL     1       2.078   3.433  18.769  0.00  0.00    +0.000 C 
ATOM     17  C   UNL     1       2.049   4.595  17.786  0.00  0.00    +0.000 C 
ATOM     18  C   UNL     1       2.517   5.864  18.511  0.00  0.00    +0.000 C 
ATOM     19  C   UNL     1       3.932   5.650  19.055  0.00  0.00    +0.000 C 
ATOM     20  C   UNL     1       4.013   4.391  19.924  0.00  0.00    +0.000 C 
ATOM     21  H   UNL     1       5.345   0.777  19.837  0.00  0.00    +0.000 HD
ATOM     22  H   UNL     1       4.234   0.355  18.140  0.00  0.00    +0.000 HD
ATOM     23  H   UNL     1       3.349   1.580  17.445  0.00  0.00    +0.000 HD
ENDBRANCH  11  18
ENDBRANCH  10  11
ENDBRANCH   9  10
ENDBRANCH   1   9
BRANCH   7  24
ATOM     24  C   UNL     1      -1.068  12.391  19.238  0.00  0.00    +0.000 C 
BRANCH  24  25
ATOM     25  N   UNL     1      -0.161  13.080  18.289  0.00  0.00    +0.000 NA
ATOM     26  H   UNL     1      -0.627  13.164  17.380  0.00  0.00    +0.000 HD
BRANCH  25  27
ATOM     27  C   UNL     1       0.307  14.424  18.688  0.00  0.00    +0.000 C 
ATOM     28  C   UNL     1       0.477  14.631  20.205  0.00  0.00    +0.000 C 
ATOM     29  C   UNL     1       1.587  13.778  20.821  0.00  0.00    +0.000 C 
ATOM     30  C   UNL     1       2.910  13.860  20.064  0.00  0.00    +0.000 C 
ATOM     31  C   UNL     1       2.752  13.745  18.550  0.00  0.00    +0.000 C 
ATOM     32  C   UNL     1       1.671  14.687  18.023  0.00  0.00    +0.000 C 
ENDBRANCH  25  27
ENDBRANCH  24  25
BRANCH  24  33
ATOM     33  C   UNL     1      -2.544  12.359  18.807  0.00  0.00    +0.000 C 
BRANCH  33  34
ATOM     34  C   UNL     1      -2.805  11.526  17.577  0.00  0.00    +0.000 C 
ATOM     35  O   UNL     1      -3.664  10.658  17.501  0.00  0.00    +0.000 OA
BRANCH  34  36
ATOM     36  O   UNL     1      -2.004  11.834  16.535  0.00  0.00    +0.000 OA
ATOM     37  H   UNL     1      -1.047  11.843  16.777  0.00  0.00    +0.000 HD
ENDBRANCH  34  36
ENDBRANCH  33  34
ENDBRANCH  24  33
ENDBRANCH   7  24
TORSDOF 10
ENDMDL
