MODEL 1
REMARK VINA RESULT:      -7.4      0.000      0.000
REMARK  Name = 
REMARK  4 active torsions:
REMARK  status: ('A' for Active; 'I' for Inactive)
REMARK    1  A    between atoms: C_2  and  C_3
REMARK    2  A    between atoms: C_3  and  C_4
REMARK    3  A    between atoms: N_17  and  C_18
REMARK    4  A    between atoms: C_18  and  C_19
REMARK                            x       y       z     vdW  Elec       q    Type
REMARK                         _______ _______ _______ _____ _____    ______ ____
ROOT
ATOM      1  O   UNL     1       0.208   9.767  20.998  0.00  0.00    +0.000 OA
ATOM      2  C   UNL     1       0.518  10.101  19.859  0.00  0.00    +0.000 C 
ATOM      3  N   UNL     1       1.483   9.371  19.188  0.00  0.00    +0.000 N 
ATOM      4  C   UNL     1       2.226   9.553  17.918  0.00  0.00    +0.000 C 
ATOM      5  C   UNL     1       2.866   8.158  17.602  0.00  0.00    +0.000 C 
ATOM      6  C   UNL     1       2.043   7.278  18.515  0.00  0.00    +0.000 C 
ATOM      7  C   UNL     1       1.986   8.154  19.756  0.00  0.00    +0.000 C 
ATOM      8  C   UNL     1       1.269   7.244  20.727  0.00  0.00    +0.000 C 
ATOM      9  C   UNL     1       1.873   5.900  20.336  0.00  0.00    +0.000 C 
ATOM     10  O   UNL     1       1.821   4.880  21.003  0.00  0.00    +0.000 OA
ATOM     11  N   UNL     1       2.434   6.025  19.051  0.00  0.00    +0.000 N 
ENDROOT
BRANCH   2  12
ATOM     12  C   UNL     1      -0.195  11.265  19.174  0.00  0.00    +0.000 C 
BRANCH  12  13
ATOM     13  C   UNL     1      -1.420  10.882  18.365  0.00  0.00    +0.000 A 
ATOM     14  C   UNL     1      -1.557   9.856  17.444  0.00  0.00    +0.000 A 
ATOM     15  C   UNL     1      -2.902   9.669  17.016  0.00  0.00    +0.000 A 
ATOM     16  C   UNL     1      -3.760  10.553  17.628  0.00  0.00    +0.000 A 
ATOM     17  S   UNL     1      -2.937  11.622  18.681  0.00  0.00    +0.000 S 
ENDBRANCH  12  13
ENDBRANCH   2  12
BRANCH  11  18
ATOM     18  C   UNL     1       2.784   4.878  18.238  0.00  0.00    +0.000 C 
BRANCH  18  19
ATOM     19  C   UNL     1       4.262   4.848  18.001  0.00  0.00    +0.000 A 
ATOM     20  C   UNL     1       4.784   4.768  16.706  0.00  0.00    +0.000 A 
ATOM     21  C   UNL     1       6.152   4.636  16.520  0.00  0.00    +0.000 A 
ATOM     22  C   UNL     1       6.962   4.603  17.643  0.00  0.00    +0.000 A 
ATOM     23  N   UNL     1       6.501   4.713  18.909  0.00  0.00    +0.000 NA
ATOM     24  C   UNL     1       5.164   4.836  19.059  0.00  0.00    +0.000 A 
ENDBRANCH  18  19
ENDBRANCH  11  18
TORSDOF 4
ENDMDL
MODEL 2
REMARK VINA RESULT:      -7.2      2.944      4.194
REMARK  Name = 
REMARK  4 active torsions:
REMARK  status: ('A' for Active; 'I' for Inactive)
REMARK    1  A    between atoms: C_2  and  C_3
REMARK    2  A    between atoms: C_3  and  C_4
REMARK    3  A    between atoms: N_17  and  C_18
REMARK    4  A    between atoms: C_18  and  C_19
REMARK                            x       y       z     vdW  Elec       q    Type
REMARK                         _______ _______ _______ _____ _____    ______ ____
ROOT
ATOM      1  O   UNL     1       0.213  12.013  19.258  0.00  0.00    +0.000 OA
ATOM      2  C   UNL     1       0.043  11.550  20.382  0.00  0.00    +0.000 C 
ATOM      3  N   UNL     1       0.156  10.183  20.566  0.00  0.00    +0.000 N 
ATOM      4  C   UNL     1      -0.135   9.259  21.688  0.00  0.00    +0.000 C 
ATOM      5  C   UNL     1       0.594   7.919  21.329  0.00  0.00    +0.000 C 
ATOM      6  C   UNL     1       1.544   8.414  20.263  0.00  0.00    +0.000 C 
ATOM      7  C   UNL     1       0.626   9.351  19.496  0.00  0.00    +0.000 C 
ATOM      8  C   UNL     1       1.520   9.768  18.350  0.00  0.00    +0.000 C 
ATOM      9  C   UNL     1       2.251   8.457  18.085  0.00  0.00    +0.000 C 
ATOM     10  O   UNL     1       2.890   8.194  17.080  0.00  0.00    +0.000 OA
ATOM     11  N   UNL     1       2.117   7.639  19.223  0.00  0.00    +0.000 N 
ENDROOT
BRANCH   2  12
ATOM     12  C   UNL     1      -0.229  12.476  21.565  0.00  0.00    +0.000 C 
BRANCH  12  13
ATOM     13  C   UNL     1      -1.659  12.469  22.071  0.00  0.00    +0.000 A 
ATOM     14  C   UNL     1      -2.115  12.240  23.359  0.00  0.00    +0.000 A 
ATOM     15  C   UNL     1      -3.507  12.499  23.510  0.00  0.00    +0.000 A 
ATOM     16  C   UNL     1      -4.077  12.927  22.333  0.00  0.00    +0.000 A 
ATOM     17  S   UNL     1      -2.944  12.978  21.052  0.00  0.00    +0.000 S 
ENDBRANCH  12  13
ENDBRANCH   2  12
BRANCH  11  18
ATOM     18  C   UNL     1       2.957   6.481  19.453  0.00  0.00    +0.000 C 
BRANCH  18  19
ATOM     19  C   UNL     1       2.169   5.225  19.241  0.00  0.00    +0.000 A 
ATOM     20  C   UNL     1       1.591   4.544  20.318  0.00  0.00    +0.000 A 
ATOM     21  C   UNL     1       0.958   3.329  20.106  0.00  0.00    +0.000 A 
ATOM     22  C   UNL     1       0.908   2.837  18.813  0.00  0.00    +0.000 A 
ATOM     23  N   UNL     1       1.422   3.480  17.741  0.00  0.00    +0.000 NA
ATOM     24  C   UNL     1       2.037   4.659  17.978  0.00  0.00    +0.000 A 
ENDBRANCH  18  19
ENDBRANCH  11  18
TORSDOF 4
ENDMDL
MODEL 3
REMARK VINA RESULT:      -7.2      1.750      2.546
REMARK  Name = 
REMARK  4 active torsions:
REMARK  status: ('A' for Active; 'I' for Inactive)
REMARK    1  A    between atoms: C_2  and  C_3
REMARK    2  A    between atoms: C_3  and  C_4
REMARK    3  A    between atoms: N_17  and  C_18
REMARK    4  A    between atoms: C_18  and  C_19
REMARK                            x       y       z     vdW  Elec       q    Type
REMARK                         _______ _______ _______ _____ _____    ______ ____
ROOT
ATOM      1  O   UNL     1       0.438   8.692  21.233  0.00  0.00    +0.000 OA
ATOM      2  C   UNL     1       0.652   9.169  20.123  0.00  0.00    +0.000 C 
ATOM      3  N   UNL     1       1.642   8.610  19.334  0.00  0.00    +0.000 N 
ATOM      4  C   UNL     1       2.293   8.993  18.058  0.00  0.00    +0.000 C 
ATOM      5  C   UNL     1       3.041   7.707  17.565  0.00  0.00    +0.000 C 
ATOM      6  C   UNL     1       2.355   6.661  18.416  0.00  0.00    +0.000 C 
ATOM      7  C   UNL     1       2.287   7.396  19.744  0.00  0.00    +0.000 C 
ATOM      8  C   UNL     1       1.711   6.325  20.644  0.00  0.00    +0.000 C 
ATOM      9  C   UNL     1       2.415   5.094  20.084  0.00  0.00    +0.000 C 
ATOM     10  O   UNL     1       2.495   4.012  20.639  0.00  0.00    +0.000 OA
ATOM     11  N   UNL     1       2.889   5.405  18.796  0.00  0.00    +0.000 N 
ENDROOT
BRANCH   2  12
ATOM     12  C   UNL     1      -0.203  10.322  19.600  0.00  0.00    +0.000 C 
BRANCH  12  13
ATOM     13  C   UNL     1       0.220  11.700  20.072  0.00  0.00    +0.000 A 
ATOM     14  C   UNL     1      -0.108  12.344  21.254  0.00  0.00    +0.000 A 
ATOM     15  C   UNL     1       0.620  13.552  21.450  0.00  0.00    +0.000 A 
ATOM     16  C   UNL     1       1.492  13.796  20.415  0.00  0.00    +0.000 A 
ATOM     17  S   UNL     1       1.401  12.592  19.201  0.00  0.00    +0.000 S 
ENDBRANCH  12  13
ENDBRANCH   2  12
BRANCH  11  18
ATOM     18  C   UNL     1       3.298   4.386  17.849  0.00  0.00    +0.000 C 
BRANCH  18  19
ATOM     19  C   UNL     1       4.765   4.503  17.571  0.00  0.00    +0.000 A 
ATOM     20  C   UNL     1       5.257   4.467  16.262  0.00  0.00    +0.000 A 
ATOM     21  C   UNL     1       6.625   4.471  16.039  0.00  0.00    +0.000 A 
ATOM     22  C   UNL     1       7.464   4.527  17.138  0.00  0.00    +0.000 A 
ATOM     23  N   UNL     1       7.030   4.599  18.416  0.00  0.00    +0.000 NA
ATOM     24  C   UNL     1       5.692   4.589  18.603  0.00  0.00    +0.000 A 
ENDBRANCH  18  19
ENDBRANCH  11  18
TORSDOF 4
ENDMDL
MODEL 4
REMARK VINA RESULT:      -7.2      1.536      2.261
REMARK  Name = 
REMARK  4 active torsions:
REMARK  status: ('A' for Active; 'I' for Inactive)
REMARK    1  A    between atoms: C_2  and  C_3
REMARK    2  A    between atoms: C_3  and  C_4
REMARK    3  A    between atoms: N_17  and  C_18
REMARK    4  A    between atoms: C_18  and  C_19
REMARK                            x       y       z     vdW  Elec       q    Type
REMARK                         _______ _______ _______ _____ _____    ______ ____
ROOT
ATOM      1  O   UNL     1       0.145   9.281  20.837  0.00  0.00    +0.000 OA
ATOM      2  C   UNL     1       0.448   9.582  19.686  0.00  0.00    +0.000 C 
ATOM      3  N   UNL     1       1.502   8.923  19.079  0.00  0.00    +0.000 N 
ATOM      4  C   UNL     1       2.255   9.111  17.815  0.00  0.00    +0.000 C 
ATOM      5  C   UNL     1       3.046   7.777  17.595  0.00  0.00    +0.000 C 
ATOM      6  C   UNL     1       2.296   6.866  18.541  0.00  0.00    +0.000 C 
ATOM      7  C   UNL     1       2.115   7.799  19.727  0.00  0.00    +0.000 C 
ATOM      8  C   UNL     1       1.472   6.874  20.734  0.00  0.00    +0.000 C 
ATOM      9  C   UNL     1       2.224   5.582  20.435  0.00  0.00    +0.000 C 
ATOM     10  O   UNL     1       2.262   4.601  21.158  0.00  0.00    +0.000 OA
ATOM     11  N   UNL     1       2.803   5.694  19.156  0.00  0.00    +0.000 N 
ENDROOT
BRANCH   2  12
ATOM     12  C   UNL     1      -0.365  10.623  18.921  0.00  0.00    +0.000 C 
BRANCH  12  13
ATOM     13  C   UNL     1       0.168  12.041  19.001  0.00  0.00    +0.000 A 
ATOM     14  C   UNL     1      -0.293  13.172  18.347  0.00  0.00    +0.000 A 
ATOM     15  C   UNL     1       0.327  14.370  18.805  0.00  0.00    +0.000 A 
ATOM     16  C   UNL     1       1.240  14.123  19.804  0.00  0.00    +0.000 A 
ATOM     17  S   UNL     1       1.371  12.453  20.156  0.00  0.00    +0.000 S 
ENDBRANCH  12  13
ENDBRANCH   2  12
BRANCH  11  18
ATOM     18  C   UNL     1       3.293   4.547  18.419  0.00  0.00    +0.000 C 
BRANCH  18  19
ATOM     19  C   UNL     1       4.762   4.688  18.168  0.00  0.00    +0.000 A 
ATOM     20  C   UNL     1       5.301   4.469  16.895  0.00  0.00    +0.000 A 
ATOM     21  C   UNL     1       6.675   4.502  16.713  0.00  0.00    +0.000 A 
ATOM     22  C   UNL     1       7.472   4.771  17.813  0.00  0.00    +0.000 A 
ATOM     23  N   UNL     1       6.990   5.023  19.051  0.00  0.00    +0.000 NA
ATOM     24  C   UNL     1       5.647   4.978  19.199  0.00  0.00    +0.000 A 
ENDBRANCH  18  19
ENDBRANCH  11  18
TORSDOF 4
ENDMDL
MODEL 5
REMARK VINA RESULT:      -7.0      3.534      8.239
REMARK  Name = 
REMARK  4 active torsions:
REMARK  status: ('A' for Active; 'I' for Inactive)
REMARK    1  A    between atoms: C_2  and  C_3
REMARK    2  A    between atoms: C_3  and  C_4
REMARK    3  A    between atoms: N_17  and  C_18
REMARK    4  A    between atoms: C_18  and  C_19
REMARK                            x       y       z     vdW  Elec       q    Type
REMARK                         _______ _______ _______ _____ _____    ______ ____
ROOT
ATOM      1  O   UNL     1       2.329   7.004  20.041  0.00  0.00    +0.000 OA
ATOM      2  C   UNL     1       2.242   7.774  19.090  0.00  0.00    +0.000 C 
ATOM      3  N   UNL     1       1.306   8.792  19.137  0.00  0.00    +0.000 N 
ATOM      4  C   UNL     1       0.796   9.780  18.156  0.00  0.00    +0.000 C 
ATOM      5  C   UNL     1       0.042  10.862  19.003  0.00  0.00    +0.000 C 
ATOM      6  C   UNL     1       0.598  10.557  20.375  0.00  0.00    +0.000 C 
ATOM      7  C   UNL     1       0.573   9.038  20.346  0.00  0.00    +0.000 C 
ATOM      8  C   UNL     1       1.013   8.708  21.754  0.00  0.00    +0.000 C 
ATOM      9  C   UNL     1       0.311   9.821  22.524  0.00  0.00    +0.000 C 
ATOM     10  O   UNL     1       0.132   9.842  23.730  0.00  0.00    +0.000 OA
ATOM     11  N   UNL     1      -0.026  10.842  21.616  0.00  0.00    +0.000 N 
ENDROOT
BRANCH   2  12
ATOM     12  C   UNL     1       3.192   7.643  17.901  0.00  0.00    +0.000 C 
BRANCH  12  13
ATOM     13  C   UNL     1       3.754   6.252  17.678  0.00  0.00    +0.000 A 
ATOM     14  C   UNL     1       3.077   5.043  17.656  0.00  0.00    +0.000 A 
ATOM     15  C   UNL     1       3.894   3.957  17.230  0.00  0.00    +0.000 A 
ATOM     16  C   UNL     1       5.172   4.366  16.930  0.00  0.00    +0.000 A 
ATOM     17  S   UNL     1       5.389   6.043  17.197  0.00  0.00    +0.000 S 
ENDBRANCH  12  13
ENDBRANCH   2  12
BRANCH  11  18
ATOM     18  C   UNL     1      -0.389  12.178  22.045  0.00  0.00    +0.000 C 
BRANCH  18  19
ATOM     19  C   UNL     1      -1.878  12.333  22.035  0.00  0.00    +0.000 A 
ATOM     20  C   UNL     1      -2.550  12.779  20.891  0.00  0.00    +0.000 A 
ATOM     21  C   UNL     1      -3.915  13.014  20.942  0.00  0.00    +0.000 A 
ATOM     22  C   UNL     1      -4.573  12.782  22.138  0.00  0.00    +0.000 A 
ATOM     23  N   UNL     1      -3.968  12.319  23.254  0.00  0.00    +0.000 NA
ATOM     24  C   UNL     1      -2.636  12.103  23.177  0.00  0.00    +0.000 A 
ENDBRANCH  18  19
ENDBRANCH  11  18
TORSDOF 4
ENDMDL
MODEL 6
REMARK VINA RESULT:      -6.9      0.664      1.006
REMARK  Name = 
REMARK  4 active torsions:
REMARK  status: ('A' for Active; 'I' for Inactive)
REMARK    1  A    between atoms: C_2  and  C_3
REMARK    2  A    between atoms: C_3  and  C_4
REMARK    3  A    between atoms: N_17  and  C_18
REMARK    4  A    between atoms: C_18  and  C_19
REMARK                            x       y       z     vdW  Elec       q    Type
REMARK                         _______ _______ _______ _____ _____    ______ ____
ROOT
ATOM      1  O   UNL     1       0.328   9.577  21.209  0.00  0.00    +0.000 OA
ATOM      2  C   UNL     1       0.620   9.981  20.088  0.00  0.00    +0.000 C 
ATOM      3  N   UNL     1       1.557   9.281  19.348  0.00  0.00    +0.000 N 
ATOM      4  C   UNL     1       2.277   9.536  18.077  0.00  0.00    +0.000 C 
ATOM      5  C   UNL     1       2.882   8.154  17.653  0.00  0.00    +0.000 C 
ATOM      6  C   UNL     1       2.062   7.229  18.523  0.00  0.00    +0.000 C 
ATOM      7  C   UNL     1       2.048   8.019  19.821  0.00  0.00    +0.000 C 
ATOM      8  C   UNL     1       1.333   7.059  20.744  0.00  0.00    +0.000 C 
ATOM      9  C   UNL     1       1.903   5.733  20.250  0.00  0.00    +0.000 C 
ATOM     10  O   UNL     1       1.845   4.672  20.847  0.00  0.00    +0.000 OA
ATOM     11  N   UNL     1       2.439   5.936  18.964  0.00  0.00    +0.000 N 
ENDROOT
BRANCH   2  12
ATOM     12  C   UNL     1      -0.084  11.202  19.500  0.00  0.00    +0.000 C 
BRANCH  12  13
ATOM     13  C   UNL     1      -1.339  10.899  18.703  0.00  0.00    +0.000 A 
ATOM     14  C   UNL     1      -1.574   9.843  17.838  0.00  0.00    +0.000 A 
ATOM     15  C   UNL     1      -2.930   9.766  17.411  0.00  0.00    +0.000 A 
ATOM     16  C   UNL     1      -3.698  10.762  17.969  0.00  0.00    +0.000 A 
ATOM     17  S   UNL     1      -2.776  11.800  18.969  0.00  0.00    +0.000 S 
ENDBRANCH  12  13
ENDBRANCH   2  12
BRANCH  11  18
ATOM     18  C   UNL     1       2.750   4.840  18.068  0.00  0.00    +0.000 C 
BRANCH  18  19
ATOM     19  C   UNL     1       4.225   4.784  17.818  0.00  0.00    +0.000 A 
ATOM     20  C   UNL     1       5.138   5.228  18.781  0.00  0.00    +0.000 A 
ATOM     21  C   UNL     1       6.492   5.263  18.483  0.00  0.00    +0.000 A 
ATOM     22  C   UNL     1       6.894   4.836  17.229  0.00  0.00    +0.000 A 
ATOM     23  N   UNL     1       6.049   4.367  16.284  0.00  0.00    +0.000 NA
ATOM     24  C   UNL     1       4.736   4.349  16.601  0.00  0.00    +0.000 A 
ENDBRANCH  18  19
ENDBRANCH  11  18
TORSDOF 4
ENDMDL
MODEL 7
REMARK VINA RESULT:      -6.9      1.580      2.500
REMARK  Name = 
REMARK  4 active torsions:
REMARK  status: ('A' for Active; 'I' for Inactive)
REMARK    1  A    between atoms: C_2  and  C_3
REMARK    2  A    between atoms: C_3  and  C_4
REMARK    3  A    between atoms: N_17  and  C_18
REMARK    4  A    between atoms: C_18  and  C_19
REMARK                            x       y       z     vdW  Elec       q    Type
REMARK                         _______ _______ _______ _____ _____    ______ ____
ROOT
ATOM      1  O   UNL     1       0.223   8.851  21.210  0.00  0.00    +0.000 OA
ATOM      2  C   UNL     1       0.458   9.312  20.097  0.00  0.00    +0.000 C 
ATOM      3  N   UNL     1       1.495   8.773  19.356  0.00  0.00    +0.000 N 
ATOM      4  C   UNL     1       2.176   9.151  18.094  0.00  0.00    +0.000 C 
ATOM      5  C   UNL     1       2.986   7.883  17.657  0.00  0.00    +0.000 C 
ATOM      6  C   UNL     1       2.309   6.832  18.508  0.00  0.00    +0.000 C 
ATOM      7  C   UNL     1       2.168   7.592  19.816  0.00  0.00    +0.000 C 
ATOM      8  C   UNL     1       1.601   6.521  20.720  0.00  0.00    +0.000 C 
ATOM      9  C   UNL     1       2.367   5.305  20.212  0.00  0.00    +0.000 C 
ATOM     10  O   UNL     1       2.467   4.238  20.795  0.00  0.00    +0.000 OA
ATOM     11  N   UNL     1       2.875   5.605  18.935  0.00  0.00    +0.000 N 
ENDROOT
BRANCH   2  12
ATOM     12  C   UNL     1      -0.419  10.421  19.519  0.00  0.00    +0.000 C 
BRANCH  12  13
ATOM     13  C   UNL     1       0.136  11.824  19.671  0.00  0.00    +0.000 A 
ATOM     14  C   UNL     1       1.133  12.268  20.524  0.00  0.00    +0.000 A 
ATOM     15  C   UNL     1       1.532  13.610  20.264  0.00  0.00    +0.000 A 
ATOM     16  C   UNL     1       0.834  14.154  19.210  0.00  0.00    +0.000 A 
ATOM     17  S   UNL     1      -0.317  13.061  18.570  0.00  0.00    +0.000 S 
ENDBRANCH  12  13
ENDBRANCH   2  12
BRANCH  11  18
ATOM     18  C   UNL     1       3.353   4.581  18.026  0.00  0.00    +0.000 C 
BRANCH  18  19
ATOM     19  C   UNL     1       4.846   4.643  17.925  0.00  0.00    +0.000 A 
ATOM     20  C   UNL     1       5.619   5.173  18.963  0.00  0.00    +0.000 A 
ATOM     21  C   UNL     1       6.989   5.315  18.800  0.00  0.00    +0.000 A 
ATOM     22  C   UNL     1       7.548   4.905  17.602  0.00  0.00    +0.000 A 
ATOM     23  N   UNL     1       6.842   4.356  16.588  0.00  0.00    +0.000 NA
ATOM     24  C   UNL     1       5.510   4.235  16.774  0.00  0.00    +0.000 A 
ENDBRANCH  18  19
ENDBRANCH  11  18
TORSDOF 4
ENDMDL
MODEL 8
REMARK VINA RESULT:      -6.9      1.074      1.331
REMARK  Name = 
REMARK  4 active torsions:
REMARK  status: ('A' for Active; 'I' for Inactive)
REMARK    1  A    between atoms: C_2  and  C_3
REMARK    2  A    between atoms: C_3  and  C_4
REMARK    3  A    between atoms: N_17  and  C_18
REMARK    4  A    between atoms: C_18  and  C_19
REMARK                            x       y       z     vdW  Elec       q    Type
REMARK                         _______ _______ _______ _____ _____    ______ ____
ROOT
ATOM      1  O   UNL     1       0.365   9.196  20.383  0.00  0.00    +0.000 OA
ATOM      2  C   UNL     1       0.843   9.398  19.272  0.00  0.00    +0.000 C 
ATOM      3  N   UNL     1       1.899   8.612  18.845  0.00  0.00    +0.000 N 
ATOM      4  C   UNL     1       2.826   8.656  17.688  0.00  0.00    +0.000 C 
ATOM      5  C   UNL     1       3.506   7.245  17.640  0.00  0.00    +0.000 C 
ATOM      6  C   UNL     1       2.554   6.464  18.518  0.00  0.00    +0.000 C 
ATOM      7  C   UNL     1       2.311   7.479  19.623  0.00  0.00    +0.000 C 
ATOM      8  C   UNL     1       1.454   6.677  20.577  0.00  0.00    +0.000 C 
ATOM      9  C   UNL     1       2.111   5.307  20.444  0.00  0.00    +0.000 C 
ATOM     10  O   UNL     1       1.959   4.372  21.212  0.00  0.00    +0.000 OA
ATOM     11  N   UNL     1       2.859   5.290  19.252  0.00  0.00    +0.000 N 
ENDROOT
BRANCH   2  12
ATOM     12  C   UNL     1       0.242  10.460  18.354  0.00  0.00    +0.000 C 
BRANCH  12  13
ATOM     13  C   UNL     1      -1.120  10.978  18.776  0.00  0.00    +0.000 A 
ATOM     14  C   UNL     1      -1.417  11.966  19.701  0.00  0.00    +0.000 A 
ATOM     15  C   UNL     1      -2.794  12.327  19.706  0.00  0.00    +0.000 A 
ATOM     16  C   UNL     1      -3.513  11.610  18.778  0.00  0.00    +0.000 A 
ATOM     17  S   UNL     1      -2.535  10.486  17.937  0.00  0.00    +0.000 S 
ENDBRANCH  12  13
ENDBRANCH   2  12
BRANCH  11  18
ATOM     18  C   UNL     1       3.328   4.062  18.644  0.00  0.00    +0.000 C 
BRANCH  18  19
ATOM     19  C   UNL     1       4.687   4.268  18.050  0.00  0.00    +0.000 A 
ATOM     20  C   UNL     1       4.914   4.084  16.682  0.00  0.00    +0.000 A 
ATOM     21  C   UNL     1       6.202   4.179  16.177  0.00  0.00    +0.000 A 
ATOM     22  C   UNL     1       7.227   4.472  17.059  0.00  0.00    +0.000 A 
ATOM     23  N   UNL     1       7.047   4.691  18.381  0.00  0.00    +0.000 NA
ATOM     24  C   UNL     1       5.782   4.588  18.845  0.00  0.00    +0.000 A 
ENDBRANCH  18  19
ENDBRANCH  11  18
TORSDOF 4
ENDMDL
MODEL 9
REMARK VINA RESULT:      -6.9      3.514      8.232
REMARK  Name = 
REMARK  4 active torsions:
REMARK  status: ('A' for Active; 'I' for Inactive)
REMARK    1  A    between atoms: C_2  and  C_3
REMARK    2  A    between atoms: C_3  and  C_4
REMARK    3  A    between atoms: N_17  and  C_18
REMARK    4  A    between atoms: C_18  and  C_19
REMARK                            x       y       z     vdW  Elec       q    Type
REMARK                         _______ _______ _______ _____ _____    ______ ____
ROOT
ATOM      1  O   UNL     1       2.210   6.840  20.225  0.00  0.00    +0.000 OA
ATOM      2  C   UNL     1       2.236   7.567  19.238  0.00  0.00    +0.000 C 
ATOM      3  N   UNL     1       1.385   8.658  19.188  0.00  0.00    +0.000 N 
ATOM      4  C   UNL     1       1.009   9.634  18.137  0.00  0.00    +0.000 C 
ATOM      5  C   UNL     1       0.302  10.811  18.892  0.00  0.00    +0.000 C 
ATOM      6  C   UNL     1       0.758  10.530  20.306  0.00  0.00    +0.000 C 
ATOM      7  C   UNL     1       0.612   9.018  20.341  0.00  0.00    +0.000 C 
ATOM      8  C   UNL     1       0.949   8.722  21.785  0.00  0.00    +0.000 C 
ATOM      9  C   UNL     1       0.301   9.923  22.466  0.00  0.00    +0.000 C 
ATOM     10  O   UNL     1       0.060  10.015  23.658  0.00  0.00    +0.000 OA
ATOM     11  N   UNL     1       0.096  10.922  21.496  0.00  0.00    +0.000 N 
ENDROOT
BRANCH   2  12
ATOM     12  C   UNL     1       3.234   7.305  18.111  0.00  0.00    +0.000 C 
BRANCH  12  13
ATOM     13  C   UNL     1       3.494   5.841  17.811  0.00  0.00    +0.000 A 
ATOM     14  C   UNL     1       2.580   4.804  17.731  0.00  0.00    +0.000 A 
ATOM     15  C   UNL     1       3.152   3.595  17.242  0.00  0.00    +0.000 A 
ATOM     16  C   UNL     1       4.489   3.744  16.952  0.00  0.00    +0.000 A 
ATOM     17  S   UNL     1       5.051   5.322  17.306  0.00  0.00    +0.000 S 
ENDBRANCH  12  13
ENDBRANCH   2  12
BRANCH  11  18
ATOM     18  C   UNL     1      -0.180  12.302  21.845  0.00  0.00    +0.000 C 
BRANCH  18  19
ATOM     19  C   UNL     1      -1.658  12.526  21.921  0.00  0.00    +0.000 A 
ATOM     20  C   UNL     1      -2.326  12.524  23.151  0.00  0.00    +0.000 A 
ATOM     21  C   UNL     1      -3.708  12.629  23.184  0.00  0.00    +0.000 A 
ATOM     22  C   UNL     1      -4.382  12.750  21.981  0.00  0.00    +0.000 A 
ATOM     23  N   UNL     1      -3.772  12.792  20.775  0.00  0.00    +0.000 NA
ATOM     24  C   UNL     1      -2.425  12.682  20.773  0.00  0.00    +0.000 A 
ENDBRANCH  18  19
ENDBRANCH  11  18
TORSDOF 4
ENDMDL
