MODEL 1
REMARK VINA RESULT:      -7.3      0.000      0.000
REMARK  Name = 
REMARK  6 active torsions:
REMARK  status: ('A' for Active; 'I' for Inactive)
REMARK    1  A    between atoms: C_2  and  C_3
REMARK    2  A    between atoms: C_3  and  C_14
REMARK    3  A    between atoms: C_4  and  C_5
REMARK    4  A    between atoms: C_8  and  N_9
REMARK    5  A    between atoms: N_16  and  C_17
REMARK    6  A    between atoms: C_17  and  C_18
REMARK                            x       y       z     vdW  Elec       q    Type
REMARK                         _______ _______ _______ _____ _____    ______ ____
ROOT
ATOM      1  C   UNL     1       2.630   5.598  19.041  0.00  0.00    +0.000 C 
ATOM      2  C   UNL     1       3.890   6.008  18.784  0.00  0.00    +0.000 C 
ENDROOT
BRANCH   2   3
ATOM      3  C   UNL     1       4.651   5.652  17.568  0.00  0.00    +0.000 A 
ATOM      4  C   UNL     1       4.666   6.528  16.472  0.00  0.00    +0.000 A 
ATOM      5  C   UNL     1       5.382   6.211  15.310  0.00  0.00    +0.000 A 
ATOM      6  C   UNL     1       6.095   5.008  15.240  0.00  0.00    +0.000 A 
ATOM      7  C   UNL     1       6.076   4.116  16.321  0.00  0.00    +0.000 A 
ATOM      8  C   UNL     1       5.349   4.438  17.477  0.00  0.00    +0.000 A 
BRANCH   6   9
ATOM      9  N   UNL     1       6.873   4.683  14.030  0.00  0.00    +0.000 N 
ATOM     10  O   UNL     1       7.882   5.363  13.797  0.00  0.00    +0.000 OA
ATOM     11  O   UNL     1       6.474   3.745  13.326  0.00  0.00    +0.000 OA
ENDBRANCH   6   9
ENDBRANCH   2   3
BRANCH   1  12
ATOM     12  C   UNL     1       1.902   6.027  20.272  0.00  0.00    +0.000 C 
ATOM     13  O   UNL     1       1.400   5.194  21.021  0.00  0.00    +0.000 OA
ATOM     14  N   UNL     1       1.832   7.381  20.500  0.00  0.00    +0.000 N 
ATOM     15  H   UNL     1       2.264   8.053  19.878  0.00  0.00    +0.000 HD
BRANCH  14  16
ATOM     16  C   UNL     1       1.162   7.943  21.658  0.00  0.00    +0.000 C 
BRANCH  16  17
ATOM     17  C   UNL     1       0.482   9.244  21.310  0.00  0.00    +0.000 A 
ATOM     18  C   UNL     1      -0.109  10.043  22.300  0.00  0.00    +0.000 A 
ATOM     19  C   UNL     1      -0.753  11.235  21.959  0.00  0.00    +0.000 A 
ATOM     20  C   UNL     1      -0.816  11.640  20.626  0.00  0.00    +0.000 A 
ATOM     21  C   UNL     1      -0.232  10.855  19.634  0.00  0.00    +0.000 A 
ATOM     22  C   UNL     1       0.410   9.662  19.974  0.00  0.00    +0.000 A 
ENDBRANCH  16  17
ENDBRANCH  14  16
ENDBRANCH   1  12
BRANCH   1  24
ATOM     23  N   UNL     1       1.380   3.893  17.233  0.00  0.00    +0.000 NA
ATOM     24  C   UNL     1       1.947   4.666  18.053  0.00  0.00    +0.000 C 
ENDBRANCH   1  24
TORSDOF 6
ENDMDL
MODEL 2
REMARK VINA RESULT:      -7.3      0.164      1.206
REMARK  Name = 
REMARK  6 active torsions:
REMARK  status: ('A' for Active; 'I' for Inactive)
REMARK    1  A    between atoms: C_2  and  C_3
REMARK    2  A    between atoms: C_3  and  C_14
REMARK    3  A    between atoms: C_4  and  C_5
REMARK    4  A    between atoms: C_8  and  N_9
REMARK    5  A    between atoms: N_16  and  C_17
REMARK    6  A    between atoms: C_17  and  C_18
REMARK                            x       y       z     vdW  Elec       q    Type
REMARK                         _______ _______ _______ _____ _____    ______ ____
ROOT
ATOM      1  C   UNL     1       2.743   5.528  19.079  0.00  0.00    +0.000 C 
ATOM      2  C   UNL     1       3.993   5.963  18.816  0.00  0.00    +0.000 C 
ENDROOT
BRANCH   2   3
ATOM      3  C   UNL     1       4.747   5.640  17.587  0.00  0.00    +0.000 A 
ATOM      4  C   UNL     1       4.688   6.504  16.483  0.00  0.00    +0.000 A 
ATOM      5  C   UNL     1       5.396   6.218  15.308  0.00  0.00    +0.000 A 
ATOM      6  C   UNL     1       6.176   5.057  15.234  0.00  0.00    +0.000 A 
ATOM      7  C   UNL     1       6.232   4.176  16.322  0.00  0.00    +0.000 A 
ATOM      8  C   UNL     1       5.512   4.467  17.491  0.00  0.00    +0.000 A 
BRANCH   6   9
ATOM      9  N   UNL     1       6.945   4.765  14.009  0.00  0.00    +0.000 N 
ATOM     10  O   UNL     1       6.514   3.880  13.258  0.00  0.00    +0.000 OA
ATOM     11  O   UNL     1       7.972   5.429  13.806  0.00  0.00    +0.000 OA
ENDBRANCH   6   9
ENDBRANCH   2   3
BRANCH   1  12
ATOM     12  C   UNL     1       2.021   5.926  20.324  0.00  0.00    +0.000 C 
ATOM     13  O   UNL     1       1.648   5.075  21.127  0.00  0.00    +0.000 OA
ATOM     14  N   UNL     1       1.806   7.272  20.503  0.00  0.00    +0.000 N 
ATOM     15  H   UNL     1       2.132   7.960  19.837  0.00  0.00    +0.000 HD
BRANCH  14  16
ATOM     16  C   UNL     1       1.123   7.805  21.667  0.00  0.00    +0.000 C 
BRANCH  16  17
ATOM     17  C   UNL     1       0.496   9.143  21.362  0.00  0.00    +0.000 A 
ATOM     18  C   UNL     1       0.543   9.689  20.070  0.00  0.00    +0.000 A 
ATOM     19  C   UNL     1      -0.023  10.939  19.808  0.00  0.00    +0.000 A 
ATOM     20  C   UNL     1      -0.639  11.657  20.833  0.00  0.00    +0.000 A 
ATOM     21  C   UNL     1      -0.692  11.125  22.119  0.00  0.00    +0.000 A 
ATOM     22  C   UNL     1      -0.124   9.876  22.383  0.00  0.00    +0.000 A 
ENDBRANCH  16  17
ENDBRANCH  14  16
ENDBRANCH   1  12
BRANCH   1  24
ATOM     23  N   UNL     1       1.502   3.833  17.257  0.00  0.00    +0.000 NA
ATOM     24  C   UNL     1       2.065   4.602  18.083  0.00  0.00    +0.000 C 
ENDBRANCH   1  24
TORSDOF 6
ENDMDL
MODEL 3
REMARK VINA RESULT:      -7.3      0.219      1.440
REMARK  Name = 
REMARK  6 active torsions:
REMARK  status: ('A' for Active; 'I' for Inactive)
REMARK    1  A    between atoms: C_2  and  C_3
REMARK    2  A    between atoms: C_3  and  C_14
REMARK    3  A    between atoms: C_4  and  C_5
REMARK    4  A    between atoms: C_8  and  N_9
REMARK    5  A    between atoms: N_16  and  C_17
REMARK    6  A    between atoms: C_17  and  C_18
REMARK                            x       y       z     vdW  Elec       q    Type
REMARK                         _______ _______ _______ _____ _____    ______ ____
ROOT
ATOM      1  C   UNL     1       2.750   5.509  19.083  0.00  0.00    +0.000 C 
ATOM      2  C   UNL     1       3.981   5.996  18.820  0.00  0.00    +0.000 C 
ENDROOT
BRANCH   2   3
ATOM      3  C   UNL     1       4.746   5.709  17.588  0.00  0.00    +0.000 A 
ATOM      4  C   UNL     1       5.572   4.576  17.526  0.00  0.00    +0.000 A 
ATOM      5  C   UNL     1       6.304   4.284  16.368  0.00  0.00    +0.000 A 
ATOM      6  C   UNL     1       6.210   5.129  15.256  0.00  0.00    +0.000 A 
ATOM      7  C   UNL     1       5.402   6.273  15.308  0.00  0.00    +0.000 A 
ATOM      8  C   UNL     1       4.679   6.562  16.475  0.00  0.00    +0.000 A 
BRANCH   6   9
ATOM      9  N   UNL     1       6.957   4.811  14.024  0.00  0.00    +0.000 N 
ATOM     10  O   UNL     1       7.997   5.445  13.804  0.00  0.00    +0.000 OA
ATOM     11  O   UNL     1       6.501   3.922  13.291  0.00  0.00    +0.000 OA
ENDBRANCH   6   9
ENDBRANCH   2   3
BRANCH   1  12
ATOM     12  C   UNL     1       2.015   5.871  20.331  0.00  0.00    +0.000 C 
ATOM     13  O   UNL     1       1.694   5.005  21.139  0.00  0.00    +0.000 OA
ATOM     14  N   UNL     1       1.727   7.205  20.505  0.00  0.00    +0.000 N 
ATOM     15  H   UNL     1       2.011   7.907  19.834  0.00  0.00    +0.000 HD
BRANCH  14  16
ATOM     16  C   UNL     1       1.022   7.704  21.671  0.00  0.00    +0.000 C 
BRANCH  16  17
ATOM     17  C   UNL     1       0.393   9.046  21.389  0.00  0.00    +0.000 A 
ATOM     18  C   UNL     1       0.400   9.595  20.098  0.00  0.00    +0.000 A 
ATOM     19  C   UNL     1      -0.168  10.849  19.858  0.00  0.00    +0.000 A 
ATOM     20  C   UNL     1      -0.746  11.567  20.904  0.00  0.00    +0.000 A 
ATOM     21  C   UNL     1      -0.760  11.032  22.190  0.00  0.00    +0.000 A 
ATOM     22  C   UNL     1      -0.191   9.779  22.432  0.00  0.00    +0.000 A 
ENDBRANCH  16  17
ENDBRANCH  14  16
ENDBRANCH   1  12
BRANCH   1  24
ATOM     23  N   UNL     1       1.577   3.771  17.256  0.00  0.00    +0.000 NA
ATOM     24  C   UNL     1       2.109   4.559  18.084  0.00  0.00    +0.000 C 
ENDBRANCH   1  24
TORSDOF 6
ENDMDL
MODEL 4
REMARK VINA RESULT:      -7.2      0.299      1.050
REMARK  Name = 
REMARK  6 active torsions:
REMARK  status: ('A' for Active; 'I' for Inactive)
REMARK    1  A    between atoms: C_2  and  C_3
REMARK    2  A    between atoms: C_3  and  C_14
REMARK    3  A    between atoms: C_4  and  C_5
REMARK    4  A    between atoms: C_8  and  N_9
REMARK    5  A    between atoms: N_16  and  C_17
REMARK    6  A    between atoms: C_17  and  C_18
REMARK                            x       y       z     vdW  Elec       q    Type
REMARK                         _______ _______ _______ _____ _____    ______ ____
ROOT
ATOM      1  C   UNL     1       2.738   5.492  19.142  0.00  0.00    +0.000 C 
ATOM      2  C   UNL     1       3.977   5.966  18.893  0.00  0.00    +0.000 C 
ENDROOT
BRANCH   2   3
ATOM      3  C   UNL     1       4.742   5.690  17.659  0.00  0.00    +0.000 A 
ATOM      4  C   UNL     1       5.592   4.575  17.597  0.00  0.00    +0.000 A 
ATOM      5  C   UNL     1       6.325   4.295  16.436  0.00  0.00    +0.000 A 
ATOM      6  C   UNL     1       6.208   5.134  15.322  0.00  0.00    +0.000 A 
ATOM      7  C   UNL     1       5.376   6.260  15.374  0.00  0.00    +0.000 A 
ATOM      8  C   UNL     1       4.651   6.538  16.544  0.00  0.00    +0.000 A 
BRANCH   6   9
ATOM      9  N   UNL     1       6.956   4.828  14.088  0.00  0.00    +0.000 N 
ATOM     10  O   UNL     1       7.980   5.485  13.859  0.00  0.00    +0.000 OA
ATOM     11  O   UNL     1       6.518   3.925  13.361  0.00  0.00    +0.000 OA
ENDBRANCH   6   9
ENDBRANCH   2   3
BRANCH   1  12
ATOM     12  C   UNL     1       2.003   5.841  20.394  0.00  0.00    +0.000 C 
ATOM     13  O   UNL     1       1.735   4.975  21.222  0.00  0.00    +0.000 OA
ATOM     14  N   UNL     1       1.654   7.162  20.550  0.00  0.00    +0.000 N 
ATOM     15  H   UNL     1       1.895   7.865  19.863  0.00  0.00    +0.000 HD
BRANCH  14  16
ATOM     16  C   UNL     1       0.942   7.648  21.717  0.00  0.00    +0.000 C 
BRANCH  16  17
ATOM     17  C   UNL     1       0.460   9.062  21.507  0.00  0.00    +0.000 A 
ATOM     18  C   UNL     1      -0.124   9.794  22.551  0.00  0.00    +0.000 A 
ATOM     19  C   UNL     1      -0.585  11.095  22.334  0.00  0.00    +0.000 A 
ATOM     20  C   UNL     1      -0.470  11.677  21.073  0.00  0.00    +0.000 A 
ATOM     21  C   UNL     1       0.109  10.960  20.027  0.00  0.00    +0.000 A 
ATOM     22  C   UNL     1       0.568   9.658  20.242  0.00  0.00    +0.000 A 
ENDBRANCH  16  17
ENDBRANCH  14  16
ENDBRANCH   1  12
BRANCH   1  24
ATOM     23  N   UNL     1       1.547   3.806  17.279  0.00  0.00    +0.000 NA
ATOM     24  C   UNL     1       2.087   4.570  18.124  0.00  0.00    +0.000 C 
ENDBRANCH   1  24
TORSDOF 6
ENDMDL
MODEL 5
REMARK VINA RESULT:      -7.2      4.979      7.767
REMARK  Name = 
REMARK  6 active torsions:
REMARK  status: ('A' for Active; 'I' for Inactive)
REMARK    1  A    between atoms: C_2  and  C_3
REMARK    2  A    between atoms: C_3  and  C_14
REMARK    3  A    between atoms: C_4  and  C_5
REMARK    4  A    between atoms: C_8  and  N_9
REMARK    5  A    between atoms: N_16  and  C_17
REMARK    6  A    between atoms: C_17  and  C_18
REMARK                            x       y       z     vdW  Elec       q    Type
REMARK                         _______ _______ _______ _____ _____    ______ ____
ROOT
ATOM      1  C   UNL     1       6.794   6.528  18.239  0.00  0.00    +0.000 C 
ATOM      2  C   UNL     1       5.534   6.221  17.865  0.00  0.00    +0.000 C 
ENDROOT
BRANCH   2   3
ATOM      3  C   UNL     1       4.646   5.300  18.604  0.00  0.00    +0.000 A 
ATOM      4  C   UNL     1       4.751   3.915  18.402  0.00  0.00    +0.000 A 
ATOM      5  C   UNL     1       3.920   3.023  19.093  0.00  0.00    +0.000 A 
ATOM      6  C   UNL     1       2.975   3.517  20.000  0.00  0.00    +0.000 A 
ATOM      7  C   UNL     1       2.847   4.898  20.201  0.00  0.00    +0.000 A 
ATOM      8  C   UNL     1       3.678   5.784  19.498  0.00  0.00    +0.000 A 
BRANCH   6   9
ATOM      9  N   UNL     1       2.117   2.581  20.752  0.00  0.00    +0.000 N 
ATOM     10  O   UNL     1       1.343   1.866  20.103  0.00  0.00    +0.000 OA
ATOM     11  O   UNL     1       2.232   2.563  21.986  0.00  0.00    +0.000 OA
ENDBRANCH   6   9
ENDBRANCH   2   3
BRANCH   1  12
ATOM     12  C   UNL     1       7.626   7.499  17.468  0.00  0.00    +0.000 C 
ATOM     13  O   UNL     1       8.088   7.192  16.373  0.00  0.00    +0.000 OA
ATOM     14  N   UNL     1       7.834   8.726  18.054  0.00  0.00    +0.000 N 
ATOM     15  H   UNL     1       7.434   8.966  18.952  0.00  0.00    +0.000 HD
BRANCH  14  16
ATOM     16  C   UNL     1       8.617   9.770  17.420  0.00  0.00    +0.000 C 
BRANCH  16  17
ATOM     17  C   UNL     1       9.423  10.536  18.440  0.00  0.00    +0.000 A 
ATOM     18  C   UNL     1       9.136  10.445  19.810  0.00  0.00    +0.000 A 
ATOM     19  C   UNL     1       9.879  11.178  20.740  0.00  0.00    +0.000 A 
ATOM     20  C   UNL     1      10.913  12.009  20.311  0.00  0.00    +0.000 A 
ATOM     21  C   UNL     1      11.207  12.107  18.953  0.00  0.00    +0.000 A 
ATOM     22  C   UNL     1      10.465  11.377  18.022  0.00  0.00    +0.000 A 
ENDBRANCH  16  17
ENDBRANCH  14  16
ENDBRANCH   1  12
BRANCH   1  24
ATOM     23  N   UNL     1       7.862   5.295  20.491  0.00  0.00    +0.000 NA
ATOM     24  C   UNL     1       7.378   5.854  19.470  0.00  0.00    +0.000 C 
ENDBRANCH   1  24
TORSDOF 6
ENDMDL
MODEL 6
REMARK VINA RESULT:      -7.2      4.972      7.816
REMARK  Name = 
REMARK  6 active torsions:
REMARK  status: ('A' for Active; 'I' for Inactive)
REMARK    1  A    between atoms: C_2  and  C_3
REMARK    2  A    between atoms: C_3  and  C_14
REMARK    3  A    between atoms: C_4  and  C_5
REMARK    4  A    between atoms: C_8  and  N_9
REMARK    5  A    between atoms: N_16  and  C_17
REMARK    6  A    between atoms: C_17  and  C_18
REMARK                            x       y       z     vdW  Elec       q    Type
REMARK                         _______ _______ _______ _____ _____    ______ ____
ROOT
ATOM      1  C   UNL     1       6.784   6.528  18.240  0.00  0.00    +0.000 C 
ATOM      2  C   UNL     1       5.517   6.228  17.884  0.00  0.00    +0.000 C 
ENDROOT
BRANCH   2   3
ATOM      3  C   UNL     1       4.635   5.310  18.634  0.00  0.00    +0.000 A 
ATOM      4  C   UNL     1       4.781   3.922  18.485  0.00  0.00    +0.000 A 
ATOM      5  C   UNL     1       3.957   3.033  19.188  0.00  0.00    +0.000 A 
ATOM      6  C   UNL     1       2.978   3.533  20.054  0.00  0.00    +0.000 A 
ATOM      7  C   UNL     1       2.809   4.916  20.202  0.00  0.00    +0.000 A 
ATOM      8  C   UNL     1       3.633   5.799  19.487  0.00  0.00    +0.000 A 
BRANCH   6   9
ATOM      9  N   UNL     1       2.126   2.601  20.818  0.00  0.00    +0.000 N 
ATOM     10  O   UNL     1       1.265   1.968  20.194  0.00  0.00    +0.000 OA
ATOM     11  O   UNL     1       2.332   2.504  22.036  0.00  0.00    +0.000 OA
ENDBRANCH   6   9
ENDBRANCH   2   3
BRANCH   1  12
ATOM     12  C   UNL     1       7.609   7.497  17.458  0.00  0.00    +0.000 C 
ATOM     13  O   UNL     1       8.038   7.196  16.348  0.00  0.00    +0.000 OA
ATOM     14  N   UNL     1       7.849   8.713  18.053  0.00  0.00    +0.000 N 
ATOM     15  H   UNL     1       7.476   8.948  18.963  0.00  0.00    +0.000 HD
BRANCH  14  16
ATOM     16  C   UNL     1       8.630   9.753  17.410  0.00  0.00    +0.000 C 
BRANCH  16  17
ATOM     17  C   UNL     1       9.406  10.554  18.427  0.00  0.00    +0.000 A 
ATOM     18  C   UNL     1      10.439  11.419  18.037  0.00  0.00    +0.000 A 
ATOM     19  C   UNL     1      11.161  12.138  18.993  0.00  0.00    +0.000 A 
ATOM     20  C   UNL     1      10.862  11.997  20.347  0.00  0.00    +0.000 A 
ATOM     21  C   UNL     1       9.837  11.141  20.747  0.00  0.00    +0.000 A 
ATOM     22  C   UNL     1       9.115  10.421  19.792  0.00  0.00    +0.000 A 
ENDBRANCH  16  17
ENDBRANCH  14  16
ENDBRANCH   1  12
BRANCH   1  24
ATOM     23  N   UNL     1       7.879   5.285  20.473  0.00  0.00    +0.000 NA
ATOM     24  C   UNL     1       7.383   5.848  19.461  0.00  0.00    +0.000 C 
ENDBRANCH   1  24
TORSDOF 6
ENDMDL
MODEL 7
REMARK VINA RESULT:      -7.1      3.503      4.663
REMARK  Name = 
REMARK  6 active torsions:
REMARK  status: ('A' for Active; 'I' for Inactive)
REMARK    1  A    between atoms: C_2  and  C_3
REMARK    2  A    between atoms: C_3  and  C_14
REMARK    3  A    between atoms: C_4  and  C_5
REMARK    4  A    between atoms: C_8  and  N_9
REMARK    5  A    between atoms: N_16  and  C_17
REMARK    6  A    between atoms: C_17  and  C_18
REMARK                            x       y       z     vdW  Elec       q    Type
REMARK                         _______ _______ _______ _____ _____    ______ ____
ROOT
ATOM      1  C   UNL     1       1.905   8.202  18.778  0.00  0.00    +0.000 C 
ATOM      2  C   UNL     1       2.509   7.351  17.922  0.00  0.00    +0.000 C 
ENDROOT
BRANCH   2   3
ATOM      3  C   UNL     1       2.939   5.982  18.272  0.00  0.00    +0.000 A 
ATOM      4  C   UNL     1       4.208   5.768  18.832  0.00  0.00    +0.000 A 
ATOM      5  C   UNL     1       4.635   4.478  19.172  0.00  0.00    +0.000 A 
ATOM      6  C   UNL     1       3.785   3.386  18.956  0.00  0.00    +0.000 A 
ATOM      7  C   UNL     1       2.522   3.581  18.383  0.00  0.00    +0.000 A 
ATOM      8  C   UNL     1       2.106   4.876  18.037  0.00  0.00    +0.000 A 
BRANCH   6   9
ATOM      9  N   UNL     1       4.219   2.029  19.339  0.00  0.00    +0.000 N 
ATOM     10  O   UNL     1       3.812   1.082  18.654  0.00  0.00    +0.000 OA
ATOM     11  O   UNL     1       4.971   1.923  20.319  0.00  0.00    +0.000 OA
ENDBRANCH   6   9
ENDBRANCH   2   3
BRANCH   1  12
ATOM     12  C   UNL     1       1.459   9.561  18.348  0.00  0.00    +0.000 C 
ATOM     13  O   UNL     1       2.109  10.198  17.525  0.00  0.00    +0.000 OA
ATOM     14  N   UNL     1       0.304  10.035  18.925  0.00  0.00    +0.000 N 
ATOM     15  H   UNL     1      -0.226   9.490  19.592  0.00  0.00    +0.000 HD
BRANCH  14  16
ATOM     16  C   UNL     1      -0.251  11.336  18.600  0.00  0.00    +0.000 C 
BRANCH  16  17
ATOM     17  C   UNL     1      -1.690  11.216  18.163  0.00  0.00    +0.000 A 
ATOM     18  C   UNL     1      -2.717  11.878  18.853  0.00  0.00    +0.000 A 
ATOM     19  C   UNL     1      -4.047  11.740  18.448  0.00  0.00    +0.000 A 
ATOM     20  C   UNL     1      -4.365  10.938  17.352  0.00  0.00    +0.000 A 
ATOM     21  C   UNL     1      -3.354  10.277  16.659  0.00  0.00    +0.000 A 
ATOM     22  C   UNL     1      -2.024  10.412  17.064  0.00  0.00    +0.000 A 
ENDBRANCH  16  17
ENDBRANCH  14  16
ENDBRANCH   1  12
BRANCH   1  24
ATOM     23  N   UNL     1       1.508   7.398  21.410  0.00  0.00    +0.000 NA
ATOM     24  C   UNL     1       1.688   7.762  20.217  0.00  0.00    +0.000 C 
ENDBRANCH   1  24
TORSDOF 6
ENDMDL
MODEL 8
REMARK VINA RESULT:      -7.1      1.378      1.752
REMARK  Name = 
REMARK  6 active torsions:
REMARK  status: ('A' for Active; 'I' for Inactive)
REMARK    1  A    between atoms: C_2  and  C_3
REMARK    2  A    between atoms: C_3  and  C_14
REMARK    3  A    between atoms: C_4  and  C_5
REMARK    4  A    between atoms: C_8  and  N_9
REMARK    5  A    between atoms: N_16  and  C_17
REMARK    6  A    between atoms: C_17  and  C_18
REMARK                            x       y       z     vdW  Elec       q    Type
REMARK                         _______ _______ _______ _____ _____    ______ ____
ROOT
ATOM      1  C   UNL     1       2.741   6.675  19.215  0.00  0.00    +0.000 C 
ATOM      2  C   UNL     1       3.577   5.629  19.044  0.00  0.00    +0.000 C 
ENDROOT
BRANCH   2   3
ATOM      3  C   UNL     1       4.455   5.449  17.868  0.00  0.00    +0.000 A 
ATOM      4  C   UNL     1       4.223   4.388  16.979  0.00  0.00    +0.000 A 
ATOM      5  C   UNL     1       5.041   4.199  15.858  0.00  0.00    +0.000 A 
ATOM      6  C   UNL     1       6.103   5.080  15.617  0.00  0.00    +0.000 A 
ATOM      7  C   UNL     1       6.357   6.134  16.504  0.00  0.00    +0.000 A 
ATOM      8  C   UNL     1       5.537   6.311  17.630  0.00  0.00    +0.000 A 
BRANCH   6   9
ATOM      9  N   UNL     1       6.950   4.902  14.423  0.00  0.00    +0.000 N 
ATOM     10  O   UNL     1       6.556   4.116  13.552  0.00  0.00    +0.000 OA
ATOM     11  O   UNL     1       8.000   5.558  14.362  0.00  0.00    +0.000 OA
ENDBRANCH   6   9
ENDBRANCH   2   3
BRANCH   1  12
ATOM     12  C   UNL     1       1.909   6.818  20.448  0.00  0.00    +0.000 C 
ATOM     13  O   UNL     1       1.477   5.826  21.027  0.00  0.00    +0.000 OA
ATOM     14  N   UNL     1       1.665   8.102  20.874  0.00  0.00    +0.000 N 
ATOM     15  H   UNL     1       2.040   8.908  20.391  0.00  0.00    +0.000 HD
BRANCH  14  16
ATOM     16  C   UNL     1       0.877   8.394  22.057  0.00  0.00    +0.000 C 
BRANCH  16  17
ATOM     17  C   UNL     1       0.063   9.650  21.869  0.00  0.00    +0.000 A 
ATOM     18  C   UNL     1      -0.546  10.292  22.958  0.00  0.00    +0.000 A 
ATOM     19  C   UNL     1      -1.314  11.443  22.764  0.00  0.00    +0.000 A 
ATOM     20  C   UNL     1      -1.483  11.962  21.481  0.00  0.00    +0.000 A 
ATOM     21  C   UNL     1      -0.883  11.335  20.392  0.00  0.00    +0.000 A 
ATOM     22  C   UNL     1      -0.116  10.183  20.585  0.00  0.00    +0.000 A 
ENDBRANCH  16  17
ENDBRANCH  14  16
ENDBRANCH   1  12
BRANCH   1  24
ATOM     23  N   UNL     1       2.555   8.589  17.207  0.00  0.00    +0.000 NA
ATOM     24  C   UNL     1       2.639   7.721  18.118  0.00  0.00    +0.000 C 
ENDBRANCH   1  24
TORSDOF 6
ENDMDL
MODEL 9
REMARK VINA RESULT:      -7.1      3.487      4.747
REMARK  Name = 
REMARK  6 active torsions:
REMARK  status: ('A' for Active; 'I' for Inactive)
REMARK    1  A    between atoms: C_2  and  C_3
REMARK    2  A    between atoms: C_3  and  C_14
REMARK    3  A    between atoms: C_4  and  C_5
REMARK    4  A    between atoms: C_8  and  N_9
REMARK    5  A    between atoms: N_16  and  C_17
REMARK    6  A    between atoms: C_17  and  C_18
REMARK                            x       y       z     vdW  Elec       q    Type
REMARK                         _______ _______ _______ _____ _____    ______ ____
ROOT
ATOM      1  C   UNL     1       1.905   8.224  18.759  0.00  0.00    +0.000 C 
ATOM      2  C   UNL     1       2.526   7.371  17.918  0.00  0.00    +0.000 C 
ENDROOT
BRANCH   2   3
ATOM      3  C   UNL     1       2.968   6.011  18.288  0.00  0.00    +0.000 A 
ATOM      4  C   UNL     1       2.093   4.924  18.137  0.00  0.00    +0.000 A 
ATOM      5  C   UNL     1       2.492   3.626  18.481  0.00  0.00    +0.000 A 
ATOM      6  C   UNL     1       3.783   3.407  18.978  0.00  0.00    +0.000 A 
ATOM      7  C   UNL     1       4.663   4.483  19.150  0.00  0.00    +0.000 A 
ATOM      8  C   UNL     1       4.251   5.781  18.811  0.00  0.00    +0.000 A 
BRANCH   6   9
ATOM      9  N   UNL     1       4.218   2.038  19.315  0.00  0.00    +0.000 N 
ATOM     10  O   UNL     1       4.938   1.894  20.312  0.00  0.00    +0.000 OA
ATOM     11  O   UNL     1       3.829   1.116  18.583  0.00  0.00    +0.000 OA
ENDBRANCH   6   9
ENDBRANCH   2   3
BRANCH   1  12
ATOM     12  C   UNL     1       1.446   9.573  18.309  0.00  0.00    +0.000 C 
ATOM     13  O   UNL     1       2.099  10.211  17.488  0.00  0.00    +0.000 OA
ATOM     14  N   UNL     1       0.277  10.038  18.864  0.00  0.00    +0.000 N 
ATOM     15  H   UNL     1      -0.255   9.492  19.530  0.00  0.00    +0.000 HD
BRANCH  14  16
ATOM     16  C   UNL     1      -0.291  11.327  18.519  0.00  0.00    +0.000 C 
BRANCH  16  17
ATOM     17  C   UNL     1      -1.723  11.184  18.066  0.00  0.00    +0.000 A 
ATOM     18  C   UNL     1      -2.053  10.436  16.926  0.00  0.00    +0.000 A 
ATOM     19  C   UNL     1      -3.383  10.330  16.508  0.00  0.00    +0.000 A 
ATOM     20  C   UNL     1      -4.394  10.972  17.222  0.00  0.00    +0.000 A 
ATOM     21  C   UNL     1      -4.078  11.716  18.356  0.00  0.00    +0.000 A 
ATOM     22  C   UNL     1      -2.749  11.824  18.774  0.00  0.00    +0.000 A 
ENDBRANCH  16  17
ENDBRANCH  14  16
ENDBRANCH   1  12
BRANCH   1  24
ATOM     23  N   UNL     1       1.495   7.448  21.398  0.00  0.00    +0.000 NA
ATOM     24  C   UNL     1       1.681   7.800  20.201  0.00  0.00    +0.000 C 
ENDBRANCH   1  24
TORSDOF 6
ENDMDL
