MODEL 1
REMARK VINA RESULT:      -7.4      0.000      0.000
REMARK  Name = 
REMARK  7 active torsions:
REMARK  status: ('A' for Active; 'I' for Inactive)
REMARK    1  A    between atoms: C_1  and  C_2
REMARK    2  A    between atoms: C_2  and  C_3
REMARK    3  A    between atoms: C_15  and  O_16
REMARK    4  A    between atoms: C_15  and  C_17
REMARK    5  A    between atoms: C_17  and  C_18
REMARK    6  A    between atoms: C_23  and  C_24
REMARK    7  A    between atoms: C_23  and  C_25
REMARK                            x       y       z     vdW  Elec       q    Type
REMARK                         _______ _______ _______ _____ _____    ______ ____
ROOT
ATOM      1  C   UNL     1       0.638  14.628  19.429  0.00  0.00    +0.000 C 
ATOM      2  C   UNL     1       1.839  14.747  18.461  0.00  0.00    +0.000 C 
ATOM      3  O   UNL     1       2.413  13.825  17.914  0.00  0.00    +0.000 OA
ATOM      4  N   UNL     1       2.240  16.098  18.347  0.00  0.00    +0.000 N 
ATOM      5  C   UNL     1       1.517  17.072  19.060  0.00  0.00    +0.000 C 
ATOM      6  C   UNL     1       0.594  17.745  18.328  0.00  0.00    +0.000 C 
ATOM      7  C   UNL     1      -0.849  17.953  18.731  0.00  0.00    +0.000 C 
ATOM      8  C   UNL     1       0.854  18.025  16.868  0.00  0.00    +0.000 C 
ATOM      9  C   UNL     1       1.365  16.624  20.559  0.00  0.00    +0.000 A 
ATOM     10  N   UNL     1       2.112  17.214  21.446  0.00  0.00    +0.000 NA
ATOM     11  C   UNL     1       3.374  16.585  21.395  0.00  0.00    +0.000 A 
ATOM     12  C   UNL     1       4.454  17.341  20.928  0.00  0.00    +0.000 A 
ATOM     13  C   UNL     1       5.572  16.701  20.397  0.00  0.00    +0.000 A 
ATOM     14  C   UNL     1       5.652  15.306  20.411  0.00  0.00    +0.000 A 
ATOM     15  C   UNL     1       4.601  14.536  20.928  0.00  0.00    +0.000 A 
ATOM     16  C   UNL     1       3.442  15.178  21.383  0.00  0.00    +0.000 A 
ATOM     17  C   UNL     1       2.121  14.468  21.319  0.00  0.00    +0.000 A 
ATOM     18  O   UNL     1       2.026  13.263  21.565  0.00  0.00    +0.000 OA
ATOM     19  N   UNL     1       1.131  15.217  20.673  0.00  0.00    +0.000 N 
ATOM     20  H   UNL     1       2.970  16.342  17.700  0.00  0.00    +0.000 HD
ENDROOT
BRANCH   1  21
ATOM     21  C   UNL     1      -0.780  14.193  19.108  0.00  0.00    +0.000 C 
BRANCH  21  34
ATOM     22  C   UNL     1       0.800   9.678  18.492  0.00  0.00    +0.000 C 
ATOM     23  N   UNL     1       0.448  10.980  17.887  0.00  0.00    +0.000 NA
ATOM     24  C   UNL     1       0.195  11.885  18.988  0.00  0.00    +0.000 C 
ATOM     25  N   UNL     1       0.132  11.101  20.196  0.00  0.00    +0.000 N 
ATOM     26  C   UNL     1       0.379   9.765  19.963  0.00  0.00    +0.000 C 
ATOM     27  O   UNL     1       0.242   8.825  20.721  0.00  0.00    +0.000 OA
ATOM     28  C   UNL     1      -0.877  11.562  21.039  0.00  0.00    +0.000 A 
ATOM     29  C   UNL     1      -0.963  11.472  22.414  0.00  0.00    +0.000 A 
ATOM     30  C   UNL     1      -1.906  12.282  23.071  0.00  0.00    +0.000 A 
ATOM     31  C   UNL     1      -2.841  13.042  22.350  0.00  0.00    +0.000 A 
ATOM     32  C   UNL     1      -2.810  13.045  20.961  0.00  0.00    +0.000 A 
ATOM     33  C   UNL     1      -1.746  12.386  20.334  0.00  0.00    +0.000 A 
ATOM     34  C   UNL     1      -1.125  12.724  18.979  0.00  0.00    +0.000 C 
ATOM     35  H   UNL     1      -0.380  10.909  17.305  0.00  0.00    +0.000 HD
BRANCH  22  37
ATOM     36  C   UNL     1       2.625   7.969  17.969  0.00  0.00    +0.000 C 
ATOM     37  C   UNL     1       2.303   9.398  18.385  0.00  0.00    +0.000 C 
ENDBRANCH  22  37
BRANCH  34  38
ATOM     38  O   UNL     1      -2.035  12.423  17.940  0.00  0.00    +0.000 OA
ATOM     39  H   UNL     1      -2.193  13.239  17.433  0.00  0.00    +0.000 HD
ENDBRANCH  34  38
ENDBRANCH  21  34
ENDBRANCH   1  21
TORSDOF 4
ENDMDL
MODEL 2
REMARK VINA RESULT:      -7.3      2.675      6.931
REMARK  Name = 
REMARK  7 active torsions:
REMARK  status: ('A' for Active; 'I' for Inactive)
REMARK    1  A    between atoms: C_1  and  C_2
REMARK    2  A    between atoms: C_2  and  C_3
REMARK    3  A    between atoms: C_15  and  O_16
REMARK    4  A    between atoms: C_15  and  C_17
REMARK    5  A    between atoms: C_17  and  C_18
REMARK    6  A    between atoms: C_23  and  C_24
REMARK    7  A    between atoms: C_23  and  C_25
REMARK                            x       y       z     vdW  Elec       q    Type
REMARK                         _______ _______ _______ _____ _____    ______ ____
ROOT
ATOM      1  C   UNL     1      -0.045  14.000  21.383  0.00  0.00    +0.000 C 
ATOM      2  C   UNL     1      -1.265  14.638  20.677  0.00  0.00    +0.000 C 
ATOM      3  O   UNL     1      -1.433  15.826  20.469  0.00  0.00    +0.000 OA
ATOM      4  N   UNL     1      -2.220  13.645  20.361  0.00  0.00    +0.000 N 
ATOM      5  C   UNL     1      -1.925  12.308  20.686  0.00  0.00    +0.000 C 
ATOM      6  C   UNL     1      -1.458  11.561  19.654  0.00  0.00    +0.000 C 
ATOM      7  C   UNL     1      -0.215  10.699  19.701  0.00  0.00    +0.000 C 
ATOM      8  C   UNL     1      -1.949  11.827  18.253  0.00  0.00    +0.000 C 
ATOM      9  C   UNL     1      -1.455  12.221  22.183  0.00  0.00    +0.000 A 
ATOM     10  N   UNL     1      -2.296  11.749  23.056  0.00  0.00    +0.000 NA
ATOM     11  C   UNL     1      -3.161  12.810  23.399  0.00  0.00    +0.000 A 
ATOM     12  C   UNL     1      -4.500  12.703  23.011  0.00  0.00    +0.000 A 
ATOM     13  C   UNL     1      -5.276  13.852  22.868  0.00  0.00    +0.000 A 
ATOM     14  C   UNL     1      -4.743  15.101  23.197  0.00  0.00    +0.000 A 
ATOM     15  C   UNL     1      -3.419  15.218  23.641  0.00  0.00    +0.000 A 
ATOM     16  C   UNL     1      -2.614  14.073  23.702  0.00  0.00    +0.000 A 
ATOM     17  C   UNL     1      -1.129  14.193  23.525  0.00  0.00    +0.000 A 
ATOM     18  O   UNL     1      -0.500  15.142  23.999  0.00  0.00    +0.000 OA
ATOM     19  N   UNL     1      -0.625  13.329  22.546  0.00  0.00    +0.000 N 
ATOM     20  H   UNL     1      -3.040  13.900  19.838  0.00  0.00    +0.000 HD
ENDROOT
BRANCH   1  21
ATOM     21  C   UNL     1       1.384  13.914  20.881  0.00  0.00    +0.000 C 
BRANCH  21  34
ATOM     22  C   UNL     1       5.853  14.403  22.627  0.00  0.00    +0.000 C 
ATOM     23  N   UNL     1       4.443  14.033  22.869  0.00  0.00    +0.000 NA
ATOM     24  C   UNL     1       3.790  14.050  21.578  0.00  0.00    +0.000 C 
ATOM     25  N   UNL     1       4.694  14.663  20.637  0.00  0.00    +0.000 N 
ATOM     26  C   UNL     1       5.901  14.993  21.214  0.00  0.00    +0.000 C 
ATOM     27  O   UNL     1       6.806  15.660  20.752  0.00  0.00    +0.000 OA
ATOM     28  C   UNL     1       4.009  15.495  19.754  0.00  0.00    +0.000 A 
ATOM     29  C   UNL     1       4.346  15.851  18.464  0.00  0.00    +0.000 A 
ATOM     30  C   UNL     1       3.353  16.441  17.662  0.00  0.00    +0.000 A 
ATOM     31  C   UNL     1       2.106  16.803  18.194  0.00  0.00    +0.000 A 
ATOM     32  C   UNL     1       1.814  16.531  19.526  0.00  0.00    +0.000 A 
ATOM     33  C   UNL     1       2.742  15.775  20.251  0.00  0.00    +0.000 A 
ATOM     34  C   UNL     1       2.450  14.842  21.426  0.00  0.00    +0.000 C 
ATOM     35  H   UNL     1       3.986  14.691  23.493  0.00  0.00    +0.000 HD
BRANCH  22  37
ATOM     36  C   UNL     1       6.226  12.076  23.614  0.00  0.00    +0.000 C 
ATOM     37  C   UNL     1       6.777  13.184  22.727  0.00  0.00    +0.000 C 
ENDBRANCH  22  37
BRANCH  34  38
ATOM     38  O   UNL     1       2.051  15.594  22.555  0.00  0.00    +0.000 OA
ATOM     39  H   UNL     1       1.084  15.520  22.640  0.00  0.00    +0.000 HD
ENDBRANCH  34  38
ENDBRANCH  21  34
ENDBRANCH   1  21
TORSDOF 4
ENDMDL
MODEL 3
REMARK VINA RESULT:      -7.2      3.334      7.075
REMARK  Name = 
REMARK  7 active torsions:
REMARK  status: ('A' for Active; 'I' for Inactive)
REMARK    1  A    between atoms: C_1  and  C_2
REMARK    2  A    between atoms: C_2  and  C_3
REMARK    3  A    between atoms: C_15  and  O_16
REMARK    4  A    between atoms: C_15  and  C_17
REMARK    5  A    between atoms: C_17  and  C_18
REMARK    6  A    between atoms: C_23  and  C_24
REMARK    7  A    between atoms: C_23  and  C_25
REMARK                            x       y       z     vdW  Elec       q    Type
REMARK                         _______ _______ _______ _____ _____    ______ ____
ROOT
ATOM      1  C   UNL     1      -2.725  13.981  22.032  0.00  0.00    +0.000 C 
ATOM      2  C   UNL     1      -3.168  13.080  23.208  0.00  0.00    +0.000 C 
ATOM      3  O   UNL     1      -3.122  11.864  23.238  0.00  0.00    +0.000 OA
ATOM      4  N   UNL     1      -3.718  13.868  24.245  0.00  0.00    +0.000 N 
ATOM      5  C   UNL     1      -3.750  15.265  24.077  0.00  0.00    +0.000 C 
ATOM      6  C   UNL     1      -2.747  15.936  24.699  0.00  0.00    +0.000 C 
ATOM      7  C   UNL     1      -1.864  16.975  24.045  0.00  0.00    +0.000 C 
ATOM      8  C   UNL     1      -2.198  15.421  26.006  0.00  0.00    +0.000 C 
ATOM      9  C   UNL     1      -4.371  15.613  22.676  0.00  0.00    +0.000 A 
ATOM     10  N   UNL     1      -5.593  16.060  22.650  0.00  0.00    +0.000 NA
ATOM     11  C   UNL     1      -6.438  14.932  22.734  0.00  0.00    +0.000 A 
ATOM     12  C   UNL     1      -7.203  14.784  23.895  0.00  0.00    +0.000 A 
ATOM     13  C   UNL     1      -7.661  13.522  24.269  0.00  0.00    +0.000 A 
ATOM     14  C   UNL     1      -7.431  12.421  23.440  0.00  0.00    +0.000 A 
ATOM     15  C   UNL     1      -6.713  12.565  22.244  0.00  0.00    +0.000 A 
ATOM     16  C   UNL     1      -6.180  13.817  21.913  0.00  0.00    +0.000 A 
ATOM     17  C   UNL     1      -4.935  13.902  21.079  0.00  0.00    +0.000 A 
ATOM     18  O   UNL     1      -4.736  13.128  20.140  0.00  0.00    +0.000 OA
ATOM     19  N   UNL     1      -3.943  14.699  21.662  0.00  0.00    +0.000 N 
ATOM     20  H   UNL     1      -3.992  13.427  25.107  0.00  0.00    +0.000 HD
ENDROOT
BRANCH   1  21
ATOM     21  C   UNL     1      -1.316  14.218  21.518  0.00  0.00    +0.000 C 
BRANCH  21  34
ATOM     22  C   UNL     1      -0.010  10.288  19.047  0.00  0.00    +0.000 C 
ATOM     23  N   UNL     1      -0.895  10.898  20.060  0.00  0.00    +0.000 NA
ATOM     24  C   UNL     1      -0.635  12.322  20.024  0.00  0.00    +0.000 C 
ATOM     25  N   UNL     1       0.542  12.533  19.220  0.00  0.00    +0.000 N 
ATOM     26  C   UNL     1       1.029  11.357  18.691  0.00  0.00    +0.000 C 
ATOM     27  O   UNL     1       2.081  11.162  18.115  0.00  0.00    +0.000 OA
ATOM     28  C   UNL     1       1.352  13.524  19.769  0.00  0.00    +0.000 A 
ATOM     29  C   UNL     1       2.241  14.366  19.132  0.00  0.00    +0.000 A 
ATOM     30  C   UNL     1       2.707  15.490  19.837  0.00  0.00    +0.000 A 
ATOM     31  C   UNL     1       2.408  15.672  21.197  0.00  0.00    +0.000 A 
ATOM     32  C   UNL     1       1.593  14.760  21.857  0.00  0.00    +0.000 A 
ATOM     33  C   UNL     1       0.987  13.758  21.090  0.00  0.00    +0.000 A 
ATOM     34  C   UNL     1      -0.346  13.065  21.369  0.00  0.00    +0.000 C 
ATOM     35  H   UNL     1      -0.702  10.539  20.990  0.00  0.00    +0.000 HD
BRANCH  22  37
ATOM     36  C   UNL     1      -2.299  10.053  17.935  0.00  0.00    +0.000 C 
ATOM     37  C   UNL     1      -0.793   9.871  17.797  0.00  0.00    +0.000 C 
ENDBRANCH  22  37
BRANCH  34  38
ATOM     38  O   UNL     1      -0.234  12.241  22.513  0.00  0.00    +0.000 OA
ATOM     39  H   UNL     1      -1.110  11.859  22.696  0.00  0.00    +0.000 HD
ENDBRANCH  34  38
ENDBRANCH  21  34
ENDBRANCH   1  21
TORSDOF 4
ENDMDL
MODEL 4
REMARK VINA RESULT:      -7.2      4.324      6.848
REMARK  Name = 
REMARK  7 active torsions:
REMARK  status: ('A' for Active; 'I' for Inactive)
REMARK    1  A    between atoms: C_1  and  C_2
REMARK    2  A    between atoms: C_2  and  C_3
REMARK    3  A    between atoms: C_15  and  O_16
REMARK    4  A    between atoms: C_15  and  C_17
REMARK    5  A    between atoms: C_17  and  C_18
REMARK    6  A    between atoms: C_23  and  C_24
REMARK    7  A    between atoms: C_23  and  C_25
REMARK                            x       y       z     vdW  Elec       q    Type
REMARK                         _______ _______ _______ _____ _____    ______ ____
ROOT
ATOM      1  C   UNL     1      -3.985  13.094  20.490  0.00  0.00    +0.000 C 
ATOM      2  C   UNL     1      -3.915  14.636  20.587  0.00  0.00    +0.000 C 
ATOM      3  O   UNL     1      -2.904  15.302  20.707  0.00  0.00    +0.000 OA
ATOM      4  N   UNL     1      -5.219  15.183  20.590  0.00  0.00    +0.000 N 
ATOM      5  C   UNL     1      -6.313  14.304  20.481  0.00  0.00    +0.000 C 
ATOM      6  C   UNL     1      -6.836  14.199  19.234  0.00  0.00    +0.000 C 
ATOM      7  C   UNL     1      -7.121  12.896  18.520  0.00  0.00    +0.000 C 
ATOM      8  C   UNL     1      -6.833  15.397  18.316  0.00  0.00    +0.000 C 
ATOM      9  C   UNL     1      -6.158  13.139  21.524  0.00  0.00    +0.000 A 
ATOM     10  N   UNL     1      -6.904  13.177  22.589  0.00  0.00    +0.000 NA
ATOM     11  C   UNL     1      -6.273  14.058  23.494  0.00  0.00    +0.000 A 
ATOM     12  C   UNL     1      -6.924  15.261  23.782  0.00  0.00    +0.000 A 
ATOM     13  C   UNL     1      -6.192  16.354  24.243  0.00  0.00    +0.000 A 
ATOM     14  C   UNL     1      -4.825  16.221  24.501  0.00  0.00    +0.000 A 
ATOM     15  C   UNL     1      -4.170  15.004  24.269  0.00  0.00    +0.000 A 
ATOM     16  C   UNL     1      -4.889  13.933  23.725  0.00  0.00    +0.000 A 
ATOM     17  C   UNL     1      -4.183  12.909  22.883  0.00  0.00    +0.000 A 
ATOM     18  O   UNL     1      -3.048  12.519  23.163  0.00  0.00    +0.000 OA
ATOM     19  N   UNL     1      -4.798  12.707  21.642  0.00  0.00    +0.000 N 
ATOM     20  H   UNL     1      -5.334  16.182  20.581  0.00  0.00    +0.000 HD
ENDROOT
BRANCH   1  21
ATOM     21  C   UNL     1      -3.501  12.206  19.358  0.00  0.00    +0.000 C 
BRANCH  21  34
ATOM     22  C   UNL     1       0.893  10.512  20.398  0.00  0.00    +0.000 C 
ATOM     23  N   UNL     1      -0.170  11.501  20.674  0.00  0.00    +0.000 NA
ATOM     24  C   UNL     1      -1.318  11.091  19.894  0.00  0.00    +0.000 C 
ATOM     25  N   UNL     1      -0.887  10.061  18.984  0.00  0.00    +0.000 N 
ATOM     26  C   UNL     1       0.442   9.738  19.155  0.00  0.00    +0.000 C 
ATOM     27  O   UNL     1       1.150   9.041  18.455  0.00  0.00    +0.000 OA
ATOM     28  C   UNL     1      -1.488  10.212  17.736  0.00  0.00    +0.000 A 
ATOM     29  C   UNL     1      -1.766   9.248  16.788  0.00  0.00    +0.000 A 
ATOM     30  C   UNL     1      -2.656   9.579  15.751  0.00  0.00    +0.000 A 
ATOM     31  C   UNL     1      -3.128  10.892  15.587  0.00  0.00    +0.000 A 
ATOM     32  C   UNL     1      -2.759  11.880  16.492  0.00  0.00    +0.000 A 
ATOM     33  C   UNL     1      -2.029  11.486  17.621  0.00  0.00    +0.000 A 
ATOM     34  C   UNL     1      -2.031  12.154  18.995  0.00  0.00    +0.000 C 
ATOM     35  H   UNL     1       0.112  12.437  20.402  0.00  0.00    +0.000 HD
BRANCH  22  37
ATOM     36  C   UNL     1       0.122   9.805  22.729  0.00  0.00    +0.000 C 
ATOM     37  C   UNL     1       1.088   9.554  21.579  0.00  0.00    +0.000 C 
ENDBRANCH  22  37
BRANCH  34  38
ATOM     38  O   UNL     1      -1.400  13.417  18.922  0.00  0.00    +0.000 OA
ATOM     39  H   UNL     1      -0.751  13.472  19.645  0.00  0.00    +0.000 HD
ENDBRANCH  34  38
ENDBRANCH  21  34
ENDBRANCH   1  21
TORSDOF 4
ENDMDL
MODEL 5
REMARK VINA RESULT:      -7.2      2.088      3.853
REMARK  Name = 
REMARK  7 active torsions:
REMARK  status: ('A' for Active; 'I' for Inactive)
REMARK    1  A    between atoms: C_1  and  C_2
REMARK    2  A    between atoms: C_2  and  C_3
REMARK    3  A    between atoms: C_15  and  O_16
REMARK    4  A    between atoms: C_15  and  C_17
REMARK    5  A    between atoms: C_17  and  C_18
REMARK    6  A    between atoms: C_23  and  C_24
REMARK    7  A    between atoms: C_23  and  C_25
REMARK                            x       y       z     vdW  Elec       q    Type
REMARK                         _______ _______ _______ _____ _____    ______ ____
ROOT
ATOM      1  C   UNL     1       0.964  14.523  19.449  0.00  0.00    +0.000 C 
ATOM      2  C   UNL     1       2.032  14.942  18.412  0.00  0.00    +0.000 C 
ATOM      3  O   UNL     1       2.749  14.192  17.777  0.00  0.00    +0.000 OA
ATOM      4  N   UNL     1       2.121  16.352  18.348  0.00  0.00    +0.000 N 
ATOM      5  C   UNL     1       1.261  17.113  19.161  0.00  0.00    +0.000 C 
ATOM      6  C   UNL     1       0.161  17.596  18.531  0.00  0.00    +0.000 C 
ATOM      7  C   UNL     1      -1.257  17.465  19.040  0.00  0.00    +0.000 C 
ATOM      8  C   UNL     1       0.241  17.985  17.075  0.00  0.00    +0.000 C 
ATOM      9  C   UNL     1       1.326  16.582  20.640  0.00  0.00    +0.000 A 
ATOM     10  N   UNL     1       1.993  17.286  21.507  0.00  0.00    +0.000 NA
ATOM     11  C   UNL     1       3.355  16.953  21.337  0.00  0.00    +0.000 A 
ATOM     12  C   UNL     1       4.206  17.946  20.843  0.00  0.00    +0.000 A 
ATOM     13  C   UNL     1       5.392  17.590  20.203  0.00  0.00    +0.000 A 
ATOM     14  C   UNL     1       5.773  16.247  20.134  0.00  0.00    +0.000 A 
ATOM     15  C   UNL     1       4.956  15.245  20.674  0.00  0.00    +0.000 A 
ATOM     16  C   UNL     1       3.725  15.597  21.240  0.00  0.00    +0.000 A 
ATOM     17  C   UNL     1       2.587  14.616  21.225  0.00  0.00    +0.000 A 
ATOM     18  O   UNL     1       2.775  13.412  21.408  0.00  0.00    +0.000 OA
ATOM     19  N   UNL     1       1.412  15.155  20.689  0.00  0.00    +0.000 N 
ATOM     20  H   UNL     1       2.729  16.777  17.669  0.00  0.00    +0.000 HD
ENDROOT
BRANCH   1  21
ATOM     21  C   UNL     1      -0.347  13.800  19.199  0.00  0.00    +0.000 C 
BRANCH  21  34
ATOM     22  C   UNL     1      -2.910  13.356  23.259  0.00  0.00    +0.000 C 
ATOM     23  N   UNL     1      -1.615  13.665  22.619  0.00  0.00    +0.000 NA
ATOM     24  C   UNL     1      -1.865  13.702  21.194  0.00  0.00    +0.000 C 
ATOM     25  N   UNL     1      -3.186  13.175  20.965  0.00  0.00    +0.000 N 
ATOM     26  C   UNL     1      -3.828  12.852  22.141  0.00  0.00    +0.000 C 
ATOM     27  O   UNL     1      -4.869  12.243  22.296  0.00  0.00    +0.000 OA
ATOM     28  C   UNL     1      -3.216  12.373  19.826  0.00  0.00    +0.000 A 
ATOM     29  C   UNL     1      -4.278  12.104  18.986  0.00  0.00    +0.000 A 
ATOM     30  C   UNL     1      -3.998  11.530  17.733  0.00  0.00    +0.000 A 
ATOM     31  C   UNL     1      -2.704  11.097  17.403  0.00  0.00    +0.000 A 
ATOM     32  C   UNL     1      -1.660  11.281  18.301  0.00  0.00    +0.000 A 
ATOM     33  C   UNL     1      -1.923  12.024  19.458  0.00  0.00    +0.000 A 
ATOM     34  C   UNL     1      -0.931  12.877  20.248  0.00  0.00    +0.000 C 
ATOM     35  H   UNL     1      -0.918  12.957  22.826  0.00  0.00    +0.000 HD
BRANCH  22  37
ATOM     36  C   UNL     1      -2.889  14.930  25.273  0.00  0.00    +0.000 C 
ATOM     37  C   UNL     1      -3.516  14.597  23.925  0.00  0.00    +0.000 C 
ENDBRANCH  22  37
BRANCH  34  38
ATOM     38  O   UNL     1       0.016  12.048  20.892  0.00  0.00    +0.000 OA
ATOM     39  H   UNL     1       0.019  12.274  21.839  0.00  0.00    +0.000 HD
ENDBRANCH  34  38
ENDBRANCH  21  34
ENDBRANCH   1  21
TORSDOF 4
ENDMDL
MODEL 6
REMARK VINA RESULT:      -7.1      3.543      7.571
REMARK  Name = 
REMARK  7 active torsions:
REMARK  status: ('A' for Active; 'I' for Inactive)
REMARK    1  A    between atoms: C_1  and  C_2
REMARK    2  A    between atoms: C_2  and  C_3
REMARK    3  A    between atoms: C_15  and  O_16
REMARK    4  A    between atoms: C_15  and  C_17
REMARK    5  A    between atoms: C_17  and  C_18
REMARK    6  A    between atoms: C_23  and  C_24
REMARK    7  A    between atoms: C_23  and  C_25
REMARK                            x       y       z     vdW  Elec       q    Type
REMARK                         _______ _______ _______ _____ _____    ______ ____
ROOT
ATOM      1  C   UNL     1      -3.973  12.998  20.499  0.00  0.00    +0.000 C 
ATOM      2  C   UNL     1      -4.666  14.369  20.315  0.00  0.00    +0.000 C 
ATOM      3  O   UNL     1      -4.120  15.457  20.330  0.00  0.00    +0.000 OA
ATOM      4  N   UNL     1      -6.065  14.196  20.197  0.00  0.00    +0.000 N 
ATOM      5  C   UNL     1      -6.581  12.888  20.231  0.00  0.00    +0.000 C 
ATOM      6  C   UNL     1      -6.856  12.353  19.015  0.00  0.00    +0.000 C 
ATOM      7  C   UNL     1      -6.402  10.989  18.544  0.00  0.00    +0.000 C 
ATOM      8  C   UNL     1      -7.336  13.244  17.895  0.00  0.00    +0.000 C 
ATOM      9  C   UNL     1      -5.992  12.121  21.471  0.00  0.00    +0.000 A 
ATOM     10  N   UNL     1      -6.770  11.945  22.498  0.00  0.00    +0.000 NA
ATOM     11  C   UNL     1      -6.740  13.146  23.239  0.00  0.00    +0.000 A 
ATOM     12  C   UNL     1      -7.916  13.900  23.294  0.00  0.00    +0.000 A 
ATOM     13  C   UNL     1      -7.854  15.267  23.561  0.00  0.00    +0.000 A 
ATOM     14  C   UNL     1      -6.627  15.865  23.862  0.00  0.00    +0.000 A 
ATOM     15  C   UNL     1      -5.447  15.110  23.865  0.00  0.00    +0.000 A 
ATOM     16  C   UNL     1      -5.500  13.756  23.512  0.00  0.00    +0.000 A 
ATOM     17  C   UNL     1      -4.305  13.100  22.882  0.00  0.00    +0.000 A 
ATOM     18  O   UNL     1      -3.158  13.367  23.247  0.00  0.00    +0.000 OA
ATOM     19  N   UNL     1      -4.614  12.439  21.688  0.00  0.00    +0.000 N 
ATOM     20  H   UNL     1      -6.645  14.995  20.006  0.00  0.00    +0.000 HD
ENDROOT
BRANCH   1  21
ATOM     21  C   UNL     1      -3.007  12.307  19.555  0.00  0.00    +0.000 C 
BRANCH  21  34
ATOM     22  C   UNL     1       0.316  15.566  20.817  0.00  0.00    +0.000 C 
ATOM     23  N   UNL     1      -0.875  15.235  20.008  0.00  0.00    +0.000 NA
ATOM     24  C   UNL     1      -1.320  13.933  20.454  0.00  0.00    +0.000 C 
ATOM     25  N   UNL     1      -0.293  13.383  21.301  0.00  0.00    +0.000 N 
ATOM     26  C   UNL     1       0.758  14.257  21.479  0.00  0.00    +0.000 C 
ATOM     27  O   UNL     1       1.841  14.048  21.990  0.00  0.00    +0.000 OA
ATOM     28  C   UNL     1      -0.129  12.019  21.070  0.00  0.00    +0.000 A 
ATOM     29  C   UNL     1       0.327  11.044  21.934  0.00  0.00    +0.000 A 
ATOM     30  C   UNL     1       0.107   9.699  21.586  0.00  0.00    +0.000 A 
ATOM     31  C   UNL     1      -0.415   9.347  20.331  0.00  0.00    +0.000 A 
ATOM     32  C   UNL     1      -0.776  10.338  19.427  0.00  0.00    +0.000 A 
ATOM     33  C   UNL     1      -0.728  11.666  19.866  0.00  0.00    +0.000 A 
ATOM     34  C   UNL     1      -1.595  12.827  19.381  0.00  0.00    +0.000 C 
ATOM     35  H   UNL     1      -0.655  15.202  19.017  0.00  0.00    +0.000 HD
BRANCH  22  37
ATOM     36  C   UNL     1      -1.350  17.302  21.676  0.00  0.00    +0.000 C 
ATOM     37  C   UNL     1      -0.006  16.618  21.884  0.00  0.00    +0.000 C 
ENDBRANCH  22  37
BRANCH  34  38
ATOM     38  O   UNL     1      -1.253  13.165  18.051  0.00  0.00    +0.000 OA
ATOM     39  H   UNL     1      -1.155  12.339  17.547  0.00  0.00    +0.000 HD
ENDBRANCH  34  38
ENDBRANCH  21  34
ENDBRANCH   1  21
TORSDOF 4
ENDMDL
MODEL 7
REMARK VINA RESULT:      -7.1      3.450      5.315
REMARK  Name = 
REMARK  7 active torsions:
REMARK  status: ('A' for Active; 'I' for Inactive)
REMARK    1  A    between atoms: C_1  and  C_2
REMARK    2  A    between atoms: C_2  and  C_3
REMARK    3  A    between atoms: C_15  and  O_16
REMARK    4  A    between atoms: C_15  and  C_17
REMARK    5  A    between atoms: C_17  and  C_18
REMARK    6  A    between atoms: C_23  and  C_24
REMARK    7  A    between atoms: C_23  and  C_25
REMARK                            x       y       z     vdW  Elec       q    Type
REMARK                         _______ _______ _______ _____ _____    ______ ____
ROOT
ATOM      1  C   UNL     1      -2.275  14.603  21.047  0.00  0.00    +0.000 C 
ATOM      2  C   UNL     1      -1.337  15.715  20.520  0.00  0.00    +0.000 C 
ATOM      3  O   UNL     1      -1.501  16.372  19.509  0.00  0.00    +0.000 OA
ATOM      4  N   UNL     1      -0.197  15.823  21.349  0.00  0.00    +0.000 N 
ATOM      5  C   UNL     1      -0.105  14.980  22.472  0.00  0.00    +0.000 C 
ATOM      6  C   UNL     1      -0.467  15.556  23.646  0.00  0.00    +0.000 C 
ATOM      7  C   UNL     1      -1.436  14.958  24.642  0.00  0.00    +0.000 C 
ATOM      8  C   UNL     1      -0.204  17.024  23.875  0.00  0.00    +0.000 C 
ATOM      9  C   UNL     1      -0.385  13.495  22.041  0.00  0.00    +0.000 A 
ATOM     10  N   UNL     1       0.633  12.690  21.948  0.00  0.00    +0.000 NA
ATOM     11  C   UNL     1       1.227  12.933  20.691  0.00  0.00    +0.000 A 
ATOM     12  C   UNL     1       2.503  13.506  20.680  0.00  0.00    +0.000 A 
ATOM     13  C   UNL     1       2.941  14.207  19.557  0.00  0.00    +0.000 A 
ATOM     14  C   UNL     1       2.142  14.262  18.412  0.00  0.00    +0.000 A 
ATOM     15  C   UNL     1       0.884  13.645  18.389  0.00  0.00    +0.000 A 
ATOM     16  C   UNL     1       0.410  13.014  19.547  0.00  0.00    +0.000 A 
ATOM     17  C   UNL     1      -1.068  12.933  19.801  0.00  0.00    +0.000 A 
ATOM     18  O   UNL     1      -1.867  12.728  18.886  0.00  0.00    +0.000 OA
ATOM     19  N   UNL     1      -1.429  13.411  21.066  0.00  0.00    +0.000 N 
ATOM     20  H   UNL     1       0.474  16.550  21.170  0.00  0.00    +0.000 HD
ENDROOT
BRANCH   1  21
ATOM     21  C   UNL     1      -3.678  14.753  21.606  0.00  0.00    +0.000 C 
BRANCH  21  34
ATOM     22  C   UNL     1      -5.883  11.789  18.507  0.00  0.00    +0.000 C 
ATOM     23  N   UNL     1      -4.866  12.836  18.737  0.00  0.00    +0.000 NA
ATOM     24  C   UNL     1      -4.796  13.027  20.169  0.00  0.00    +0.000 C 
ATOM     25  N   UNL     1      -5.907  12.326  20.762  0.00  0.00    +0.000 N 
ATOM     26  C   UNL     1      -6.657  11.652  19.822  0.00  0.00    +0.000 C 
ATOM     27  O   UNL     1      -7.735  11.108  19.959  0.00  0.00    +0.000 OA
ATOM     28  C   UNL     1      -6.462  13.060  21.808  0.00  0.00    +0.000 A 
ATOM     29  C   UNL     1      -7.147  12.603  22.916  0.00  0.00    +0.000 A 
ATOM     30  C   UNL     1      -7.333  13.493  23.989  0.00  0.00    +0.000 A 
ATOM     31  C   UNL     1      -6.979  14.847  23.882  0.00  0.00    +0.000 A 
ATOM     32  C   UNL     1      -6.382  15.319  22.720  0.00  0.00    +0.000 A 
ATOM     33  C   UNL     1      -6.033  14.380  21.742  0.00  0.00    +0.000 A 
ATOM     34  C   UNL     1      -4.888  14.483  20.736  0.00  0.00    +0.000 C 
ATOM     35  H   UNL     1      -5.121  13.709  18.286  0.00  0.00    +0.000 HD
BRANCH  22  37
ATOM     36  C   UNL     1      -4.015  10.601  17.231  0.00  0.00    +0.000 C 
ATOM     37  C   UNL     1      -5.236  10.452  18.129  0.00  0.00    +0.000 C 
ENDBRANCH  22  37
BRANCH  34  38
ATOM     38  O   UNL     1      -5.166  15.493  19.787  0.00  0.00    +0.000 OA
ATOM     39  H   UNL     1      -6.112  15.713  19.850  0.00  0.00    +0.000 HD
ENDBRANCH  34  38
ENDBRANCH  21  34
ENDBRANCH   1  21
TORSDOF 4
ENDMDL
MODEL 8
REMARK VINA RESULT:      -7.1      2.227      4.199
REMARK  Name = 
REMARK  7 active torsions:
REMARK  status: ('A' for Active; 'I' for Inactive)
REMARK    1  A    between atoms: C_1  and  C_2
REMARK    2  A    between atoms: C_2  and  C_3
REMARK    3  A    between atoms: C_15  and  O_16
REMARK    4  A    between atoms: C_15  and  C_17
REMARK    5  A    between atoms: C_17  and  C_18
REMARK    6  A    between atoms: C_23  and  C_24
REMARK    7  A    between atoms: C_23  and  C_25
REMARK                            x       y       z     vdW  Elec       q    Type
REMARK                         _______ _______ _______ _____ _____    ______ ____
ROOT
ATOM      1  C   UNL     1       0.253  14.116  19.417  0.00  0.00    +0.000 C 
ATOM      2  C   UNL     1       1.457  14.584  18.567  0.00  0.00    +0.000 C 
ATOM      3  O   UNL     1       2.208  13.867  17.931  0.00  0.00    +0.000 OA
ATOM      4  N   UNL     1       1.622  15.983  18.684  0.00  0.00    +0.000 N 
ATOM      5  C   UNL     1       0.709  16.699  19.480  0.00  0.00    +0.000 C 
ATOM      6  C   UNL     1      -0.283  17.318  18.791  0.00  0.00    +0.000 C 
ATOM      7  C   UNL     1      -1.757  17.218  19.116  0.00  0.00    +0.000 C 
ATOM      8  C   UNL     1      -0.010  17.865  17.412  0.00  0.00    +0.000 C 
ATOM      9  C   UNL     1       0.569  16.000  20.881  0.00  0.00    +0.000 A 
ATOM     10  N   UNL     1       1.161  16.557  21.896  0.00  0.00    +0.000 NA
ATOM     11  C   UNL     1       2.515  16.161  21.843  0.00  0.00    +0.000 A 
ATOM     12  C   UNL     1       3.466  17.149  21.573  0.00  0.00    +0.000 A 
ATOM     13  C   UNL     1       4.702  16.795  21.034  0.00  0.00    +0.000 A 
ATOM     14  C   UNL     1       5.023  15.449  20.847  0.00  0.00    +0.000 A 
ATOM     15  C   UNL     1       4.100  14.443  21.166  0.00  0.00    +0.000 A 
ATOM     16  C   UNL     1       2.827  14.805  21.627  0.00  0.00    +0.000 A 
ATOM     17  C   UNL     1       1.654  13.905  21.365  0.00  0.00    +0.000 A 
ATOM     18  O   UNL     1       1.760  12.678  21.421  0.00  0.00    +0.000 OA
ATOM     19  N   UNL     1       0.579  14.573  20.767  0.00  0.00    +0.000 N 
ATOM     20  H   UNL     1       2.327  16.444  18.134  0.00  0.00    +0.000 HD
ENDROOT
BRANCH   1  21
ATOM     21  C   UNL     1      -1.051  13.509  18.934  0.00  0.00    +0.000 C 
BRANCH  21  34
ATOM     22  C   UNL     1      -4.429  12.881  22.318  0.00  0.00    +0.000 C 
ATOM     23  N   UNL     1      -3.036  13.243  21.986  0.00  0.00    +0.000 NA
ATOM     24  C   UNL     1      -2.967  13.314  20.542  0.00  0.00    +0.000 C 
ATOM     25  N   UNL     1      -4.188  12.758  20.016  0.00  0.00    +0.000 N 
ATOM     26  C   UNL     1      -5.062  12.384  21.014  0.00  0.00    +0.000 C 
ATOM     27  O   UNL     1      -6.091  11.744  20.921  0.00  0.00    +0.000 OA
ATOM     28  C   UNL     1      -3.941  11.989  18.881  0.00  0.00    +0.000 A 
ATOM     29  C   UNL     1      -4.782  11.716  17.821  0.00  0.00    +0.000 A 
ATOM     30  C   UNL     1      -4.215  11.186  16.649  0.00  0.00    +0.000 A 
ATOM     31  C   UNL     1      -2.866  10.797  16.602  0.00  0.00    +0.000 A 
ATOM     32  C   UNL     1      -2.052  10.984  17.713  0.00  0.00    +0.000 A 
ATOM     33  C   UNL     1      -2.587  11.685  18.799  0.00  0.00    +0.000 A 
ATOM     34  C   UNL     1      -1.821  12.541  19.808  0.00  0.00    +0.000 C 
ATOM     35  H   UNL     1      -2.379  12.548  22.326  0.00  0.00    +0.000 HD
BRANCH  22  37
ATOM     36  C   UNL     1      -6.344  13.701  23.798  0.00  0.00    +0.000 C 
ATOM     37  C   UNL     1      -5.206  14.085  22.861  0.00  0.00    +0.000 C 
ENDBRANCH  22  37
BRANCH  34  38
ATOM     38  O   UNL     1      -1.013  11.719  20.627  0.00  0.00    +0.000 OA
ATOM     39  H   UNL     1      -1.600  11.204  21.207  0.00  0.00    +0.000 HD
ENDBRANCH  34  38
ENDBRANCH  21  34
ENDBRANCH   1  21
TORSDOF 4
ENDMDL
MODEL 9
REMARK VINA RESULT:      -7.1      3.105      5.600
REMARK  Name = 
REMARK  7 active torsions:
REMARK  status: ('A' for Active; 'I' for Inactive)
REMARK    1  A    between atoms: C_1  and  C_2
REMARK    2  A    between atoms: C_2  and  C_3
REMARK    3  A    between atoms: C_15  and  O_16
REMARK    4  A    between atoms: C_15  and  C_17
REMARK    5  A    between atoms: C_17  and  C_18
REMARK    6  A    between atoms: C_23  and  C_24
REMARK    7  A    between atoms: C_23  and  C_25
REMARK                            x       y       z     vdW  Elec       q    Type
REMARK                         _______ _______ _______ _____ _____    ______ ____
ROOT
ATOM      1  C   UNL     1      -0.938  13.499  20.543  0.00  0.00    +0.000 C 
ATOM      2  C   UNL     1       0.234  13.488  21.552  0.00  0.00    +0.000 C 
ATOM      3  O   UNL     1       0.307  14.143  22.575  0.00  0.00    +0.000 OA
ATOM      4  N   UNL     1       1.272  12.649  21.084  0.00  0.00    +0.000 N 
ATOM      5  C   UNL     1       1.084  11.971  19.865  0.00  0.00    +0.000 C 
ATOM      6  C   UNL     1       0.693  10.677  19.989  0.00  0.00    +0.000 C 
ATOM      7  C   UNL     1      -0.475  10.051  19.259  0.00  0.00    +0.000 C 
ATOM      8  C   UNL     1       1.180   9.855  21.155  0.00  0.00    +0.000 C 
ATOM      9  C   UNL     1       0.601  12.986  18.766  0.00  0.00    +0.000 A 
ATOM     10  N   UNL     1       1.466  13.367  17.873  0.00  0.00    +0.000 NA
ATOM     11  C   UNL     1       2.236  14.391  18.467  0.00  0.00    +0.000 A 
ATOM     12  C   UNL     1       3.585  14.120  18.719  0.00  0.00    +0.000 A 
ATOM     13  C   UNL     1       4.266  14.837  19.701  0.00  0.00    +0.000 A 
ATOM     14  C   UNL     1       3.628  15.885  20.371  0.00  0.00    +0.000 A 
ATOM     15  C   UNL     1       2.293  16.204  20.088  0.00  0.00    +0.000 A 
ATOM     16  C   UNL     1       1.584  15.427  19.163  0.00  0.00    +0.000 A 
ATOM     17  C   UNL     1       0.096  15.280  19.295  0.00  0.00    +0.000 A 
ATOM     18  O   UNL     1      -0.615  16.226  19.641  0.00  0.00    +0.000 OA
ATOM     19  N   UNL     1      -0.321  13.944  19.295  0.00  0.00    +0.000 N 
ATOM     20  H   UNL     1       2.076  12.489  21.666  0.00  0.00    +0.000 HD
ENDROOT
BRANCH   1  21
ATOM     21  C   UNL     1      -2.349  12.977  20.746  0.00  0.00    +0.000 C 
BRANCH  21  34
ATOM     22  C   UNL     1      -6.884  14.036  19.493  0.00  0.00    +0.000 C 
ATOM     23  N   UNL     1      -5.450  14.037  19.138  0.00  0.00    +0.000 NA
ATOM     24  C   UNL     1      -4.772  13.296  20.180  0.00  0.00    +0.000 C 
ATOM     25  N   UNL     1      -5.711  13.088  21.254  0.00  0.00    +0.000 N 
ATOM     26  C   UNL     1      -6.959  13.593  20.958  0.00  0.00    +0.000 C 
ATOM     27  O   UNL     1      -7.916  13.730  21.694  0.00  0.00    +0.000 OA
ATOM     28  C   UNL     1      -5.094  13.236  22.494  0.00  0.00    +0.000 A 
ATOM     29  C   UNL     1      -5.435  12.664  23.703  0.00  0.00    +0.000 A 
ATOM     30  C   UNL     1      -4.489  12.704  24.742  0.00  0.00    +0.000 A 
ATOM     31  C   UNL     1      -3.298  13.437  24.616  0.00  0.00    +0.000 A 
ATOM     32  C   UNL     1      -3.012  14.095  23.426  0.00  0.00    +0.000 A 
ATOM     33  C   UNL     1      -3.874  13.884  22.344  0.00  0.00    +0.000 A 
ATOM     34  C   UNL     1      -3.516  13.936  20.859  0.00  0.00    +0.000 C 
ATOM     35  H   UNL     1      -5.077  14.981  19.091  0.00  0.00    +0.000 HD
BRANCH  22  37
ATOM     36  C   UNL     1      -7.121  12.947  17.194  0.00  0.00    +0.000 C 
ATOM     37  C   UNL     1      -7.680  13.074  18.605  0.00  0.00    +0.000 C 
ENDBRANCH  22  37
BRANCH  34  38
ATOM     38  O   UNL     1      -3.223  15.265  20.477  0.00  0.00    +0.000 OA
ATOM     39  H   UNL     1      -2.546  15.235  19.778  0.00  0.00    +0.000 HD
ENDBRANCH  34  38
ENDBRANCH  21  34
ENDBRANCH   1  21
TORSDOF 4
ENDMDL
