MODEL 1
REMARK VINA RESULT:      -7.2      0.000      0.000
REMARK  Name = 
REMARK  4 active torsions:
REMARK  status: ('A' for Active; 'I' for Inactive)
REMARK    1  A    between atoms: C_1  and  C_2
REMARK    2  A    between atoms: C_2  and  C_4
REMARK    3  A    between atoms: C_6  and  C_7
REMARK    4  A    between atoms: C_15  and  C_16
REMARK                            x       y       z     vdW  Elec       q    Type
REMARK                         _______ _______ _______ _____ _____    ______ ____
ROOT
ATOM      1  C   UNL     1       4.000   3.985  19.049  0.00  0.00    +0.000 A 
ATOM      2  S   UNL     1       2.613   4.810  19.623  0.00  0.00    +0.000 S 
ATOM      3  C   UNL     1       3.135   6.263  18.879  0.00  0.00    +0.000 A 
ATOM      4  N   UNL     1       4.298   6.169  18.268  0.00  0.00    +0.000 NA
ATOM      5  C   UNL     1       4.804   4.862  18.331  0.00  0.00    +0.000 A 
ENDROOT
BRANCH   3   6
ATOM      6  C   UNL     1       2.342   7.496  18.996  0.00  0.00    +0.000 A 
ATOM      7  C   UNL     1       1.787   7.846  20.238  0.00  0.00    +0.000 A 
ATOM      8  C   UNL     1       1.003   8.996  20.376  0.00  0.00    +0.000 A 
ATOM      9  C   UNL     1       0.776   9.817  19.275  0.00  0.00    +0.000 A 
ATOM     10 CL   UNL     1      -0.198  11.224  19.438  0.00  0.00    +0.000 Cl
ATOM     11  C   UNL     1       1.332   9.501  18.039  0.00  0.00    +0.000 A 
ATOM     12  C   UNL     1       2.113   8.350  17.902  0.00  0.00    +0.000 A 
ENDBRANCH   3   6
BRANCH   1  14
ATOM     13  C   UNL     1       3.497   1.555  18.443  0.00  0.00    +0.000 C 
ATOM     14  C   UNL     1       4.200   2.570  19.319  0.00  0.00    +0.000 C 
ATOM     15  O   UNL     1       4.900   2.175  20.252  0.00  0.00    +0.000 OA
ENDBRANCH   1  14
BRANCH   5  16
ATOM     16  C   UNL     1       6.115   4.559  17.671  0.00  0.00    +0.000 C 
ATOM     17 BR   UNL     1       5.802   3.980  15.838  0.00  0.00    +0.000 Br
ATOM     18 BR   UNL     1       7.260   6.135  17.778  0.00  0.00    +0.000 Br
ENDBRANCH   5  16
TORSDOF 3
ENDMDL
MODEL 2
REMARK VINA RESULT:      -7.2      0.071      1.139
REMARK  Name = 
REMARK  4 active torsions:
REMARK  status: ('A' for Active; 'I' for Inactive)
REMARK    1  A    between atoms: C_1  and  C_2
REMARK    2  A    between atoms: C_2  and  C_4
REMARK    3  A    between atoms: C_6  and  C_7
REMARK    4  A    between atoms: C_15  and  C_16
REMARK                            x       y       z     vdW  Elec       q    Type
REMARK                         _______ _______ _______ _____ _____    ______ ____
ROOT
ATOM      1  C   UNL     1       4.018   3.980  19.075  0.00  0.00    +0.000 A 
ATOM      2  S   UNL     1       2.634   4.795  19.669  0.00  0.00    +0.000 S 
ATOM      3  C   UNL     1       3.131   6.250  18.914  0.00  0.00    +0.000 A 
ATOM      4  N   UNL     1       4.285   6.164  18.285  0.00  0.00    +0.000 NA
ATOM      5  C   UNL     1       4.803   4.862  18.342  0.00  0.00    +0.000 A 
ENDROOT
BRANCH   3   6
ATOM      6  C   UNL     1       2.330   7.477  19.041  0.00  0.00    +0.000 A 
ATOM      7  C   UNL     1       2.146   8.301  17.918  0.00  0.00    +0.000 A 
ATOM      8  C   UNL     1       1.415   9.490  18.012  0.00  0.00    +0.000 A 
ATOM      9  C   UNL     1       0.850   9.862  19.229  0.00  0.00    +0.000 A 
ATOM     10 CL   UNL     1      -0.036  11.330  19.353  0.00  0.00    +0.000 Cl
ATOM     11  C   UNL     1       1.004   9.053  20.350  0.00  0.00    +0.000 A 
ATOM     12  C   UNL     1       1.736   7.865  20.254  0.00  0.00    +0.000 A 
ENDBRANCH   3   6
BRANCH   1  14
ATOM     13  C   UNL     1       3.539   1.545  18.472  0.00  0.00    +0.000 C 
ATOM     14  C   UNL     1       4.235   2.567  19.345  0.00  0.00    +0.000 C 
ATOM     15  O   UNL     1       4.942   2.180  20.276  0.00  0.00    +0.000 OA
ENDBRANCH   1  14
BRANCH   5  16
ATOM     16  C   UNL     1       6.106   4.569  17.662  0.00  0.00    +0.000 C 
ATOM     17 BR   UNL     1       5.771   4.020  15.824  0.00  0.00    +0.000 Br
ATOM     18 BR   UNL     1       7.254   6.141  17.781  0.00  0.00    +0.000 Br
ENDBRANCH   5  16
TORSDOF 3
ENDMDL
MODEL 3
REMARK VINA RESULT:      -6.6      2.284      3.186
REMARK  Name = 
REMARK  4 active torsions:
REMARK  status: ('A' for Active; 'I' for Inactive)
REMARK    1  A    between atoms: C_1  and  C_2
REMARK    2  A    between atoms: C_2  and  C_4
REMARK    3  A    between atoms: C_6  and  C_7
REMARK    4  A    between atoms: C_15  and  C_16
REMARK                            x       y       z     vdW  Elec       q    Type
REMARK                         _______ _______ _______ _____ _____    ______ ____
ROOT
ATOM      1  C   UNL     1       4.708   4.952  17.423  0.00  0.00    +0.000 A 
ATOM      2  S   UNL     1       4.497   6.651  17.431  0.00  0.00    +0.000 S 
ATOM      3  C   UNL     1       3.064   6.498  18.358  0.00  0.00    +0.000 A 
ATOM      4  N   UNL     1       2.722   5.254  18.620  0.00  0.00    +0.000 NA
ATOM      5  C   UNL     1       3.665   4.347  18.115  0.00  0.00    +0.000 A 
ENDROOT
BRANCH   3   6
ATOM      6  C   UNL     1       2.287   7.685  18.747  0.00  0.00    +0.000 A 
ATOM      7  C   UNL     1       2.023   8.681  17.793  0.00  0.00    +0.000 A 
ATOM      8  C   UNL     1       1.313   9.836  18.138  0.00  0.00    +0.000 A 
ATOM      9  C   UNL     1       0.848  10.001  19.440  0.00  0.00    +0.000 A 
ATOM     10 CL   UNL     1      -0.012  11.425  19.872  0.00  0.00    +0.000 Cl
ATOM     11  C   UNL     1       1.081   9.018  20.398  0.00  0.00    +0.000 A 
ATOM     12  C   UNL     1       1.792   7.865  20.051  0.00  0.00    +0.000 A 
ENDBRANCH   3   6
BRANCH   1  14
ATOM     13  C   UNL     1       7.237   4.608  17.328  0.00  0.00    +0.000 C 
ATOM     14  C   UNL     1       5.855   4.339  16.773  0.00  0.00    +0.000 C 
ATOM     15  O   UNL     1       5.738   3.631  15.772  0.00  0.00    +0.000 OA
ENDBRANCH   1  14
BRANCH   5  16
ATOM     16  C   UNL     1       3.453   2.880  18.336  0.00  0.00    +0.000 C 
ATOM     17 BR   UNL     1       4.433   2.312  19.920  0.00  0.00    +0.000 Br
ATOM     18 BR   UNL     1       1.539   2.527  18.469  0.00  0.00    +0.000 Br
ENDBRANCH   5  16
TORSDOF 3
ENDMDL
MODEL 4
REMARK VINA RESULT:      -6.6      2.307      2.993
REMARK  Name = 
REMARK  4 active torsions:
REMARK  status: ('A' for Active; 'I' for Inactive)
REMARK    1  A    between atoms: C_1  and  C_2
REMARK    2  A    between atoms: C_2  and  C_4
REMARK    3  A    between atoms: C_6  and  C_7
REMARK    4  A    between atoms: C_15  and  C_16
REMARK                            x       y       z     vdW  Elec       q    Type
REMARK                         _______ _______ _______ _____ _____    ______ ____
ROOT
ATOM      1  C   UNL     1       4.646   5.005  17.354  0.00  0.00    +0.000 A 
ATOM      2  S   UNL     1       4.441   6.705  17.358  0.00  0.00    +0.000 S 
ATOM      3  C   UNL     1       3.025   6.562  18.313  0.00  0.00    +0.000 A 
ATOM      4  N   UNL     1       2.683   5.320  18.587  0.00  0.00    +0.000 NA
ATOM      5  C   UNL     1       3.613   4.407  18.068  0.00  0.00    +0.000 A 
ENDROOT
BRANCH   3   6
ATOM      6  C   UNL     1       2.261   7.754  18.712  0.00  0.00    +0.000 A 
ATOM      7  C   UNL     1       1.824   7.881  20.041  0.00  0.00    +0.000 A 
ATOM      8  C   UNL     1       1.069   8.987  20.446  0.00  0.00    +0.000 A 
ATOM      9  C   UNL     1       0.754   9.984  19.527  0.00  0.00    +0.000 A 
ATOM     10 CL   UNL     1      -0.185  11.338  20.017  0.00  0.00    +0.000 Cl
ATOM     11  C   UNL     1       1.192   9.889  18.210  0.00  0.00    +0.000 A 
ATOM     12  C   UNL     1       1.945   8.782  17.807  0.00  0.00    +0.000 A 
ENDBRANCH   3   6
BRANCH   1  14
ATOM     13  C   UNL     1       7.163   4.584  17.260  0.00  0.00    +0.000 C 
ATOM     14  C   UNL     1       5.777   4.384  16.685  0.00  0.00    +0.000 C 
ATOM     15  O   UNL     1       5.645   3.726  15.652  0.00  0.00    +0.000 OA
ENDBRANCH   1  14
BRANCH   5  16
ATOM     16  C   UNL     1       3.399   2.942  18.299  0.00  0.00    +0.000 C 
ATOM     17 BR   UNL     1       4.407   2.376  19.866  0.00  0.00    +0.000 Br
ATOM     18 BR   UNL     1       1.487   2.598  18.469  0.00  0.00    +0.000 Br
ENDBRANCH   5  16
TORSDOF 3
ENDMDL
MODEL 5
REMARK VINA RESULT:      -6.6      2.179      3.028
REMARK  Name = 
REMARK  4 active torsions:
REMARK  status: ('A' for Active; 'I' for Inactive)
REMARK    1  A    between atoms: C_1  and  C_2
REMARK    2  A    between atoms: C_2  and  C_4
REMARK    3  A    between atoms: C_6  and  C_7
REMARK    4  A    between atoms: C_15  and  C_16
REMARK                            x       y       z     vdW  Elec       q    Type
REMARK                         _______ _______ _______ _____ _____    ______ ____
ROOT
ATOM      1  C   UNL     1       4.809   5.074  18.086  0.00  0.00    +0.000 A 
ATOM      2  S   UNL     1       4.411   6.709  17.769  0.00  0.00    +0.000 S 
ATOM      3  C   UNL     1       3.047   6.607  18.801  0.00  0.00    +0.000 A 
ATOM      4  N   UNL     1       2.858   5.415  19.328  0.00  0.00    +0.000 NA
ATOM      5  C   UNL     1       3.872   4.523  18.952  0.00  0.00    +0.000 A 
ENDROOT
BRANCH   3   6
ATOM      6  C   UNL     1       2.161   7.765  18.998  0.00  0.00    +0.000 A 
ATOM      7  C   UNL     1       1.829   8.575  17.899  0.00  0.00    +0.000 A 
ATOM      8  C   UNL     1       1.014   9.701  18.058  0.00  0.00    +0.000 A 
ATOM      9  C   UNL     1       0.512  10.022  19.316  0.00  0.00    +0.000 A 
ATOM     10 CL   UNL     1      -0.478  11.412  19.518  0.00  0.00    +0.000 Cl
ATOM     11  C   UNL     1       0.812   9.224  20.416  0.00  0.00    +0.000 A 
ATOM     12  C   UNL     1       1.629   8.100  20.255  0.00  0.00    +0.000 A 
ENDBRANCH   3   6
BRANCH   1  14
ATOM     13  C   UNL     1       5.913   3.971  16.064  0.00  0.00    +0.000 C 
ATOM     14  C   UNL     1       5.986   4.458  17.495  0.00  0.00    +0.000 C 
ATOM     15  O   UNL     1       7.028   4.296  18.132  0.00  0.00    +0.000 OA
ENDBRANCH   1  14
BRANCH   5  16
ATOM     16  C   UNL     1       3.834   3.119  19.474  0.00  0.00    +0.000 C 
ATOM     17 BR   UNL     1       2.646   3.030  21.015  0.00  0.00    +0.000 Br
ATOM     18 BR   UNL     1       3.291   1.920  18.035  0.00  0.00    +0.000 Br
ENDBRANCH   5  16
TORSDOF 3
ENDMDL
MODEL 6
REMARK VINA RESULT:      -6.6      2.240      2.829
REMARK  Name = 
REMARK  4 active torsions:
REMARK  status: ('A' for Active; 'I' for Inactive)
REMARK    1  A    between atoms: C_1  and  C_2
REMARK    2  A    between atoms: C_2  and  C_4
REMARK    3  A    between atoms: C_6  and  C_7
REMARK    4  A    between atoms: C_15  and  C_16
REMARK                            x       y       z     vdW  Elec       q    Type
REMARK                         _______ _______ _______ _____ _____    ______ ____
ROOT
ATOM      1  C   UNL     1       4.602   5.099  18.154  0.00  0.00    +0.000 A 
ATOM      2  S   UNL     1       4.230   6.735  17.810  0.00  0.00    +0.000 S 
ATOM      3  C   UNL     1       2.905   6.693  18.895  0.00  0.00    +0.000 A 
ATOM      4  N   UNL     1       2.708   5.519  19.459  0.00  0.00    +0.000 NA
ATOM      5  C   UNL     1       3.686   4.593  19.069  0.00  0.00    +0.000 A 
ENDROOT
BRANCH   3   6
ATOM      6  C   UNL     1       2.055   7.877  19.094  0.00  0.00    +0.000 A 
ATOM      7  C   UNL     1       1.538   8.149  20.372  0.00  0.00    +0.000 A 
ATOM      8  C   UNL     1       0.702   9.249  20.588  0.00  0.00    +0.000 A 
ATOM      9  C   UNL     1       0.384  10.097  19.531  0.00  0.00    +0.000 A 
ATOM     10 CL   UNL     1      -0.654  11.443  19.790  0.00  0.00    +0.000 Cl
ATOM     11  C   UNL     1       0.899   9.858  18.261  0.00  0.00    +0.000 A 
ATOM     12  C   UNL     1       1.733   8.757  18.046  0.00  0.00    +0.000 A 
ENDBRANCH   3   6
BRANCH   1  14
ATOM     13  C   UNL     1       5.605   3.927  16.119  0.00  0.00    +0.000 C 
ATOM     14  C   UNL     1       5.741   4.440  17.536  0.00  0.00    +0.000 C 
ATOM     15  O   UNL     1       6.799   4.262  18.140  0.00  0.00    +0.000 OA
ENDBRANCH   1  14
BRANCH   5  16
ATOM     16  C   UNL     1       3.634   3.204  19.628  0.00  0.00    +0.000 C 
ATOM     17 BR   UNL     1       2.394   3.153  21.129  0.00  0.00    +0.000 Br
ATOM     18 BR   UNL     1       3.146   1.963  18.205  0.00  0.00    +0.000 Br
ENDBRANCH   5  16
TORSDOF 3
ENDMDL
MODEL 7
REMARK VINA RESULT:      -6.2      1.230      1.337
REMARK  Name = 
REMARK  4 active torsions:
REMARK  status: ('A' for Active; 'I' for Inactive)
REMARK    1  A    between atoms: C_1  and  C_2
REMARK    2  A    between atoms: C_2  and  C_4
REMARK    3  A    between atoms: C_6  and  C_7
REMARK    4  A    between atoms: C_15  and  C_16
REMARK                            x       y       z     vdW  Elec       q    Type
REMARK                         _______ _______ _______ _____ _____    ______ ____
ROOT
ATOM      1  C   UNL     1       3.098   4.322  20.082  0.00  0.00    +0.000 A 
ATOM      2  S   UNL     1       1.881   5.452  20.498  0.00  0.00    +0.000 S 
ATOM      3  C   UNL     1       2.563   6.619  19.445  0.00  0.00    +0.000 A 
ATOM      4  N   UNL     1       3.664   6.221  18.841  0.00  0.00    +0.000 NA
ATOM      5  C   UNL     1       3.978   4.895  19.171  0.00  0.00    +0.000 A 
ENDROOT
BRANCH   3   6
ATOM      6  C   UNL     1       1.966   7.956  19.313  0.00  0.00    +0.000 A 
ATOM      7  C   UNL     1       1.336   8.544  20.422  0.00  0.00    +0.000 A 
ATOM      8  C   UNL     1       0.731   9.802  20.321  0.00  0.00    +0.000 A 
ATOM      9  C   UNL     1       0.762  10.491  19.112  0.00  0.00    +0.000 A 
ATOM     10 CL   UNL     1       0.008  12.030  18.980  0.00  0.00    +0.000 Cl
ATOM     11  C   UNL     1       1.397   9.937  18.005  0.00  0.00    +0.000 A 
ATOM     12  C   UNL     1       1.999   8.679  18.107  0.00  0.00    +0.000 A 
ENDBRANCH   3   6
BRANCH   1  14
ATOM     13  C   UNL     1       1.933   2.540  21.493  0.00  0.00    +0.000 C 
ATOM     14  C   UNL     1       3.106   2.982  20.646  0.00  0.00    +0.000 C 
ATOM     15  O   UNL     1       4.049   2.207  20.477  0.00  0.00    +0.000 OA
ENDBRANCH   1  14
BRANCH   5  16
ATOM     16  C   UNL     1       5.192   4.263  18.560  0.00  0.00    +0.000 C 
ATOM     17 BR   UNL     1       4.879   3.955  16.662  0.00  0.00    +0.000 Br
ATOM     18 BR   UNL     1       6.739   5.403  18.893  0.00  0.00    +0.000 Br
ENDBRANCH   5  16
TORSDOF 3
ENDMDL
MODEL 8
REMARK VINA RESULT:      -6.2      1.171      1.670
REMARK  Name = 
REMARK  4 active torsions:
REMARK  status: ('A' for Active; 'I' for Inactive)
REMARK    1  A    between atoms: C_1  and  C_2
REMARK    2  A    between atoms: C_2  and  C_4
REMARK    3  A    between atoms: C_6  and  C_7
REMARK    4  A    between atoms: C_15  and  C_16
REMARK                            x       y       z     vdW  Elec       q    Type
REMARK                         _______ _______ _______ _____ _____    ______ ____
ROOT
ATOM      1  C   UNL     1       2.942   4.198  19.988  0.00  0.00    +0.000 A 
ATOM      2  S   UNL     1       1.713   5.306  20.428  0.00  0.00    +0.000 S 
ATOM      3  C   UNL     1       2.488   6.559  19.553  0.00  0.00    +0.000 A 
ATOM      4  N   UNL     1       3.625   6.202  18.993  0.00  0.00    +0.000 NA
ATOM      5  C   UNL     1       3.896   4.842  19.208  0.00  0.00    +0.000 A 
ENDROOT
BRANCH   3   6
ATOM      6  C   UNL     1       1.921   7.916  19.516  0.00  0.00    +0.000 A 
ATOM      7  C   UNL     1       1.985   8.659  18.325  0.00  0.00    +0.000 A 
ATOM      8  C   UNL     1       1.483   9.963  18.265  0.00  0.00    +0.000 A 
ATOM      9  C   UNL     1       0.898  10.534  19.393  0.00  0.00    +0.000 A 
ATOM     10 CL   UNL     1       0.292  12.141  19.326  0.00  0.00    +0.000 Cl
ATOM     11  C   UNL     1       0.806   9.810  20.578  0.00  0.00    +0.000 A 
ATOM     12  C   UNL     1       1.311   8.507  20.636  0.00  0.00    +0.000 A 
ENDBRANCH   3   6
BRANCH   1  14
ATOM     13  C   UNL     1       2.295   1.783  19.467  0.00  0.00    +0.000 C 
ATOM     14  C   UNL     1       2.889   2.808  20.410  0.00  0.00    +0.000 C 
ATOM     15  O   UNL     1       3.286   2.445  21.517  0.00  0.00    +0.000 OA
ENDBRANCH   1  14
BRANCH   5  16
ATOM     16  C   UNL     1       5.143   4.249  18.625  0.00  0.00    +0.000 C 
ATOM     17 BR   UNL     1       4.884   3.932  16.721  0.00  0.00    +0.000 Br
ATOM     18 BR   UNL     1       6.644   5.438  18.993  0.00  0.00    +0.000 Br
ENDBRANCH   5  16
TORSDOF 3
ENDMDL
MODEL 9
REMARK VINA RESULT:      -6.2      0.913      1.426
REMARK  Name = 
REMARK  4 active torsions:
REMARK  status: ('A' for Active; 'I' for Inactive)
REMARK    1  A    between atoms: C_1  and  C_2
REMARK    2  A    between atoms: C_2  and  C_4
REMARK    3  A    between atoms: C_6  and  C_7
REMARK    4  A    between atoms: C_15  and  C_16
REMARK                            x       y       z     vdW  Elec       q    Type
REMARK                         _______ _______ _______ _____ _____    ______ ____
ROOT
ATOM      1  C   UNL     1       3.998   4.899  18.565  0.00  0.00    +0.000 A 
ATOM      2  S   UNL     1       2.646   5.531  19.404  0.00  0.00    +0.000 S 
ATOM      3  C   UNL     1       2.838   7.048  18.630  0.00  0.00    +0.000 A 
ATOM      4  N   UNL     1       3.875   7.113  17.820  0.00  0.00    +0.000 NA
ATOM      5  C   UNL     1       4.543   5.882  17.746  0.00  0.00    +0.000 A 
ENDROOT
BRANCH   3   6
ATOM      6  C   UNL     1       1.932   8.167  18.929  0.00  0.00    +0.000 A 
ATOM      7  C   UNL     1       1.466   8.347  20.242  0.00  0.00    +0.000 A 
ATOM      8  C   UNL     1       0.579   9.383  20.554  0.00  0.00    +0.000 A 
ATOM      9  C   UNL     1       0.159  10.259  19.557  0.00  0.00    +0.000 A 
ATOM     10 CL   UNL     1      -0.941  11.525  19.933  0.00  0.00    +0.000 Cl
ATOM     11  C   UNL     1       0.622  10.113  18.253  0.00  0.00    +0.000 A 
ATOM     12  C   UNL     1       1.507   9.075  17.943  0.00  0.00    +0.000 A 
ENDBRANCH   3   6
BRANCH   1  14
ATOM     13  C   UNL     1       3.669   2.427  18.012  0.00  0.00    +0.000 C 
ATOM     14  C   UNL     1       4.419   3.519  18.744  0.00  0.00    +0.000 C 
ATOM     15  O   UNL     1       5.346   3.210  19.494  0.00  0.00    +0.000 OA
ENDBRANCH   1  14
BRANCH   5  16
ATOM     16  C   UNL     1       5.741   5.759  16.854  0.00  0.00    +0.000 C 
ATOM     17 BR   UNL     1       7.329   5.445  17.937  0.00  0.00    +0.000 Br
ATOM     18 BR   UNL     1       5.424   4.340  15.554  0.00  0.00    +0.000 Br
ENDBRANCH   5  16
TORSDOF 3
ENDMDL
