MODEL 1
REMARK VINA RESULT:      -8.4      0.000      0.000
REMARK  Name = 
REMARK  5 active torsions:
REMARK  status: ('A' for Active; 'I' for Inactive)
REMARK    1  A    between atoms: C_2  and  O_3
REMARK    2  A    between atoms: C_2  and  C_4
REMARK    3  A    between atoms: C_10  and  C_11
REMARK    4  A    between atoms: C_15  and  C_16
REMARK    5  A    between atoms: C_25  and  O_26
REMARK                            x       y       z     vdW  Elec       q    Type
REMARK                         _______ _______ _______ _____ _____    ______ ____
ROOT
ATOM      1  C   UNK     1      -1.620  12.358  21.734  0.00  0.00    +0.000 A 
ATOM      2  C   UNK     1      -1.530  11.598  22.885  0.00  0.00    +0.000 A 
ATOM      3  S   UNK     1      -0.527  10.238  22.613  0.00  0.00    +0.000 S 
ATOM      4  C   UNK     1      -0.268  10.762  21.005  0.00  0.00    +0.000 A 
ATOM      5  N   UNK     1       0.528   9.984  20.146  0.00  0.00    +0.000 N 
ATOM      6  N   UNK     1       0.993   8.778  20.575  0.00  0.00    +0.000 NA
ATOM      7  C   UNK     1       1.623   8.241  19.522  0.00  0.00    +0.000 A 
ATOM      8  C   UNK     1       1.626   9.141  18.425  0.00  0.00    +0.000 A 
ATOM      9  C   UNK     1       0.928  10.248  18.841  0.00  0.00    +0.000 A 
ATOM     10  N   UNK     1      -0.860  11.890  20.656  0.00  0.00    +0.000 NA
ENDROOT
BRANCH   7  11
ATOM     11  C   UNK     1       2.225   6.911  19.585  0.00  0.00    +0.000 A 
ATOM     12  C   UNK     1       1.853   5.997  20.573  0.00  0.00    +0.000 A 
ATOM     13  C   UNK     1       2.475   4.752  20.644  0.00  0.00    +0.000 A 
ATOM     14  C   UNK     1       3.487   4.421  19.737  0.00  0.00    +0.000 A 
ATOM     15  C   UNK     1       3.891   5.312  18.726  0.00  0.00    +0.000 A 
ATOM     16  C   UNK     1       3.214   6.544  18.657  0.00  0.00    +0.000 A 
BRANCH  15  17
ATOM     17  C   UNK     1       5.005   4.994  17.798  0.00  0.00    +0.000 A 
ATOM     18  C   UNK     1       4.766   4.590  16.470  0.00  0.00    +0.000 A 
ATOM     19  C   UNK     1       5.815   4.236  15.610  0.00  0.00    +0.000 A 
ATOM     20  C   UNK     1       7.134   4.297  16.049  0.00  0.00    +0.000 A 
ATOM     21  C   UNK     1       7.404   4.714  17.346  0.00  0.00    +0.000 A 
ATOM     22  C   UNK     1       6.354   5.047  18.202  0.00  0.00    +0.000 A 
ATOM     23  F   UNK     1       6.685   5.405  19.454  0.00  0.00    +0.000 F 
ENDBRANCH  15  17
ENDBRANCH   7  11
BRANCH   1  25
ATOM     24  O   UNK     1      -3.199  13.980  22.455  0.00  0.00    +0.000 OA
ATOM     25  C   UNK     1      -2.442  13.557  21.595  0.00  0.00    +0.000 C 
BRANCH  25  26
ATOM     26  O   UNK     1      -2.285  14.151  20.381  0.00  0.00    +0.000 OA
ATOM     27  H   UNK     1      -2.166  15.115  20.537  0.00  0.00    +0.000 HD
ENDBRANCH  25  26
ENDBRANCH   1  25
BRANCH   9  28
ATOM     28  O   UNK     1       0.649  11.386  18.204  0.00  0.00    +0.000 OA
ATOM     29  H   UNK     1       0.486  11.168  17.267  0.00  0.00    +0.000 HD
ENDBRANCH   9  28
TORSDOF 5
ENDMDL
MODEL 2
REMARK VINA RESULT:      -8.2      0.929      1.291
REMARK  Name = 
REMARK  5 active torsions:
REMARK  status: ('A' for Active; 'I' for Inactive)
REMARK    1  A    between atoms: C_2  and  O_3
REMARK    2  A    between atoms: C_2  and  C_4
REMARK    3  A    between atoms: C_10  and  C_11
REMARK    4  A    between atoms: C_15  and  C_16
REMARK    5  A    between atoms: C_25  and  O_26
REMARK                            x       y       z     vdW  Elec       q    Type
REMARK                         _______ _______ _______ _____ _____    ______ ____
ROOT
ATOM      1  C   UNK     1      -1.564  12.416  21.761  0.00  0.00    +0.000 A 
ATOM      2  C   UNK     1      -1.512  11.651  22.911  0.00  0.00    +0.000 A 
ATOM      3  S   UNK     1      -0.535  10.269  22.653  0.00  0.00    +0.000 S 
ATOM      4  C   UNK     1      -0.235  10.793  21.051  0.00  0.00    +0.000 A 
ATOM      5  N   UNK     1       0.557   9.999  20.204  0.00  0.00    +0.000 N 
ATOM      6  N   UNK     1       0.988   8.781  20.637  0.00  0.00    +0.000 NA
ATOM      7  C   UNK     1       1.624   8.234  19.594  0.00  0.00    +0.000 A 
ATOM      8  C   UNK     1       1.668   9.136  18.499  0.00  0.00    +0.000 A 
ATOM      9  C   UNK     1       0.987  10.258  18.907  0.00  0.00    +0.000 A 
ATOM     10  N   UNK     1      -0.796  11.935  20.695  0.00  0.00    +0.000 NA
ENDROOT
BRANCH   7  11
ATOM     11  C   UNK     1       2.195   6.891  19.663  0.00  0.00    +0.000 A 
ATOM     12  C   UNK     1       1.772   5.976  20.629  0.00  0.00    +0.000 A 
ATOM     13  C   UNK     1       2.364   4.717  20.708  0.00  0.00    +0.000 A 
ATOM     14  C   UNK     1       3.397   4.372  19.831  0.00  0.00    +0.000 A 
ATOM     15  C   UNK     1       3.852   5.263  18.842  0.00  0.00    +0.000 A 
ATOM     16  C   UNK     1       3.205   6.510  18.763  0.00  0.00    +0.000 A 
BRANCH  15  17
ATOM     17  C   UNK     1       4.988   4.929  17.947  0.00  0.00    +0.000 A 
ATOM     18  C   UNK     1       6.295   5.384  18.211  0.00  0.00    +0.000 A 
ATOM     19  C   UNK     1       7.357   5.115  17.337  0.00  0.00    +0.000 A 
ATOM     20  C   UNK     1       7.146   4.366  16.184  0.00  0.00    +0.000 A 
ATOM     21  C   UNK     1       5.873   3.883  15.907  0.00  0.00    +0.000 A 
ATOM     22  C   UNK     1       4.817   4.169  16.771  0.00  0.00    +0.000 A 
ATOM     23  F   UNK     1       3.606   3.704  16.423  0.00  0.00    +0.000 F 
ENDBRANCH  15  17
ENDBRANCH   7  11
BRANCH   1  25
ATOM     24  O   UNK     1      -2.655  14.382  22.529  0.00  0.00    +0.000 OA
ATOM     25  C   UNK     1      -2.357  13.634  21.611  0.00  0.00    +0.000 C 
BRANCH  25  26
ATOM     26  O   UNK     1      -2.746  13.839  20.324  0.00  0.00    +0.000 OA
ATOM     27  H   UNK     1      -2.104  14.464  19.918  0.00  0.00    +0.000 HD
ENDBRANCH  25  26
ENDBRANCH   1  25
BRANCH   9  28
ATOM     28  O   UNK     1       0.745  11.403  18.269  0.00  0.00    +0.000 OA
ATOM     29  H   UNK     1      -0.223  11.506  18.202  0.00  0.00    +0.000 HD
ENDBRANCH   9  28
TORSDOF 5
ENDMDL
MODEL 3
REMARK VINA RESULT:      -8.2      1.108      1.297
REMARK  Name = 
REMARK  5 active torsions:
REMARK  status: ('A' for Active; 'I' for Inactive)
REMARK    1  A    between atoms: C_2  and  O_3
REMARK    2  A    between atoms: C_2  and  C_4
REMARK    3  A    between atoms: C_10  and  C_11
REMARK    4  A    between atoms: C_15  and  C_16
REMARK    5  A    between atoms: C_25  and  O_26
REMARK                            x       y       z     vdW  Elec       q    Type
REMARK                         _______ _______ _______ _____ _____    ______ ____
ROOT
ATOM      1  C   UNK     1      -1.064  11.473  22.057  0.00  0.00    +0.000 A 
ATOM      2  C   UNK     1      -0.813  10.591  23.092  0.00  0.00    +0.000 A 
ATOM      3  S   UNK     1       0.229   9.342  22.559  0.00  0.00    +0.000 S 
ATOM      4  C   UNK     1       0.290  10.068  21.010  0.00  0.00    +0.000 A 
ATOM      5  N   UNK     1       1.033   9.450  19.989  0.00  0.00    +0.000 N 
ATOM      6  N   UNK     1       1.606   8.236  20.218  0.00  0.00    +0.000 NA
ATOM      7  C   UNK     1       2.152   7.870  19.052  0.00  0.00    +0.000 A 
ATOM      8  C   UNK     1       1.991   8.890  18.078  0.00  0.00    +0.000 A 
ATOM      9  C   UNK     1       1.281   9.892  18.693  0.00  0.00    +0.000 A 
ATOM     10  N   UNK     1      -0.396  11.187  20.862  0.00  0.00    +0.000 NA
ENDROOT
BRANCH   7  11
ATOM     11  C   UNK     1       2.829   6.585  18.892  0.00  0.00    +0.000 A 
ATOM     12  C   UNK     1       2.744   5.597  19.875  0.00  0.00    +0.000 A 
ATOM     13  C   UNK     1       3.438   4.399  19.724  0.00  0.00    +0.000 A 
ATOM     14  C   UNK     1       4.236   4.187  18.596  0.00  0.00    +0.000 A 
ATOM     15  C   UNK     1       4.349   5.156  17.581  0.00  0.00    +0.000 A 
ATOM     16  C   UNK     1       3.603   6.338  17.745  0.00  0.00    +0.000 A 
BRANCH  15  17
ATOM     17  C   UNK     1       5.241   4.966  16.410  0.00  0.00    +0.000 A 
ATOM     18  C   UNK     1       4.783   4.360  15.224  0.00  0.00    +0.000 A 
ATOM     19  C   UNK     1       5.639   4.130  14.138  0.00  0.00    +0.000 A 
ATOM     20  C   UNK     1       6.973   4.520  14.201  0.00  0.00    +0.000 A 
ATOM     21  C   UNK     1       7.450   5.142  15.348  0.00  0.00    +0.000 A 
ATOM     22  C   UNK     1       6.597   5.351  16.432  0.00  0.00    +0.000 A 
ATOM     23  F   UNK     1       7.133   5.923  17.523  0.00  0.00    +0.000 F 
ENDBRANCH  15  17
ENDBRANCH   7  11
BRANCH   1  25
ATOM     24  O   UNK     1      -1.860  13.515  22.973  0.00  0.00    +0.000 OA
ATOM     25  C   UNK     1      -1.961  12.622  22.147  0.00  0.00    +0.000 C 
BRANCH  25  26
ATOM     26  O   UNK     1      -2.945  12.581  21.208  0.00  0.00    +0.000 OA
ATOM     27  H   UNK     1      -3.483  13.399  21.308  0.00  0.00    +0.000 HD
ENDBRANCH  25  26
ENDBRANCH   1  25
BRANCH   9  28
ATOM     28  O   UNK     1       0.875  11.075  18.232  0.00  0.00    +0.000 OA
ATOM     29  H   UNK     1       1.635  11.497  17.790  0.00  0.00    +0.000 HD
ENDBRANCH   9  28
TORSDOF 5
ENDMDL
MODEL 4
REMARK VINA RESULT:      -8.2      2.797      3.605
REMARK  Name = 
REMARK  5 active torsions:
REMARK  status: ('A' for Active; 'I' for Inactive)
REMARK    1  A    between atoms: C_2  and  O_3
REMARK    2  A    between atoms: C_2  and  C_4
REMARK    3  A    between atoms: C_10  and  C_11
REMARK    4  A    between atoms: C_15  and  C_16
REMARK    5  A    between atoms: C_25  and  O_26
REMARK                            x       y       z     vdW  Elec       q    Type
REMARK                         _______ _______ _______ _____ _____    ______ ____
ROOT
ATOM      1  C   UNK     1      -1.196  13.620  22.961  0.00  0.00    +0.000 A 
ATOM      2  C   UNK     1      -1.136  14.092  21.663  0.00  0.00    +0.000 A 
ATOM      3  S   UNK     1      -0.508  12.883  20.627  0.00  0.00    +0.000 S 
ATOM      4  C   UNK     1      -0.382  11.819  21.962  0.00  0.00    +0.000 A 
ATOM      5  N   UNK     1       0.151  10.532  21.769  0.00  0.00    +0.000 N 
ATOM      6  N   UNK     1       0.651  10.191  20.549  0.00  0.00    +0.000 NA
ATOM      7  C   UNK     1       1.164   8.963  20.702  0.00  0.00    +0.000 A 
ATOM      8  C   UNK     1       0.929   8.479  22.015  0.00  0.00    +0.000 A 
ATOM      9  C   UNK     1       0.278   9.489  22.680  0.00  0.00    +0.000 A 
ATOM     10  N   UNK     1      -0.792  12.291  23.126  0.00  0.00    +0.000 NA
ENDROOT
BRANCH   7  11
ATOM     11  C   UNK     1       1.838   8.272  19.605  0.00  0.00    +0.000 A 
ATOM     12  C   UNK     1       2.196   8.948  18.438  0.00  0.00    +0.000 A 
ATOM     13  C   UNK     1       2.793   8.258  17.385  0.00  0.00    +0.000 A 
ATOM     14  C   UNK     1       3.020   6.882  17.487  0.00  0.00    +0.000 A 
ATOM     15  C   UNK     1       2.676   6.163  18.646  0.00  0.00    +0.000 A 
ATOM     16  C   UNK     1       2.113   6.898  19.706  0.00  0.00    +0.000 A 
BRANCH  15  17
ATOM     17  C   UNK     1       2.857   4.693  18.741  0.00  0.00    +0.000 A 
ATOM     18  C   UNK     1       3.906   4.125  19.490  0.00  0.00    +0.000 A 
ATOM     19  C   UNK     1       4.111   2.739  19.534  0.00  0.00    +0.000 A 
ATOM     20  C   UNK     1       3.258   1.881  18.847  0.00  0.00    +0.000 A 
ATOM     21  C   UNK     1       2.200   2.409  18.117  0.00  0.00    +0.000 A 
ATOM     22  C   UNK     1       2.014   3.789  18.063  0.00  0.00    +0.000 A 
ATOM     23  F   UNK     1       0.994   4.233  17.308  0.00  0.00    +0.000 F 
ENDBRANCH  15  17
ENDBRANCH   7  11
BRANCH   1  25
ATOM     24  O   UNK     1      -0.871  15.000  24.867  0.00  0.00    +0.000 OA
ATOM     25  C   UNK     1      -1.627  14.410  24.111  0.00  0.00    +0.000 C 
BRANCH  25  26
ATOM     26  O   UNK     1      -2.979  14.405  24.262  0.00  0.00    +0.000 OA
ATOM     27  H   UNK     1      -3.330  13.638  23.755  0.00  0.00    +0.000 HD
ENDBRANCH  25  26
ENDBRANCH   1  25
BRANCH   9  28
ATOM     28  O   UNK     1      -0.181   9.548  23.931  0.00  0.00    +0.000 OA
ATOM     29  H   UNK     1       0.390  10.164  24.427  0.00  0.00    +0.000 HD
ENDBRANCH   9  28
TORSDOF 5
ENDMDL
MODEL 5
REMARK VINA RESULT:      -7.9      4.980      9.163
REMARK  Name = 
REMARK  5 active torsions:
REMARK  status: ('A' for Active; 'I' for Inactive)
REMARK    1  A    between atoms: C_2  and  O_3
REMARK    2  A    between atoms: C_2  and  C_4
REMARK    3  A    between atoms: C_10  and  C_11
REMARK    4  A    between atoms: C_15  and  C_16
REMARK    5  A    between atoms: C_25  and  O_26
REMARK                            x       y       z     vdW  Elec       q    Type
REMARK                         _______ _______ _______ _____ _____    ______ ____
ROOT
ATOM      1  C   UNK     1       3.544   3.117  20.149  0.00  0.00    +0.000 A 
ATOM      2  C   UNK     1       2.456   3.204  20.997  0.00  0.00    +0.000 A 
ATOM      3  S   UNK     1       1.652   4.698  20.770  0.00  0.00    +0.000 S 
ATOM      4  C   UNK     1       2.784   5.110  19.554  0.00  0.00    +0.000 A 
ATOM      5  N   UNK     1       2.690   6.362  18.922  0.00  0.00    +0.000 N 
ATOM      6  N   UNK     1       1.766   7.263  19.356  0.00  0.00    +0.000 NA
ATOM      7  C   UNK     1       1.980   8.373  18.636  0.00  0.00    +0.000 A 
ATOM      8  C   UNK     1       3.006   8.162  17.679  0.00  0.00    +0.000 A 
ATOM      9  C   UNK     1       3.444   6.874  17.872  0.00  0.00    +0.000 A 
ATOM     10  N   UNK     1       3.712   4.208  19.290  0.00  0.00    +0.000 NA
ENDROOT
BRANCH   7  11
ATOM     11  C   UNK     1       1.200   9.589  18.852  0.00  0.00    +0.000 A 
ATOM     12  C   UNK     1       1.632  10.576  19.740  0.00  0.00    +0.000 A 
ATOM     13  C   UNK     1       0.847  11.705  19.967  0.00  0.00    +0.000 A 
ATOM     14  C   UNK     1      -0.384  11.846  19.318  0.00  0.00    +0.000 A 
ATOM     15  C   UNK     1      -0.855  10.876  18.414  0.00  0.00    +0.000 A 
ATOM     16  C   UNK     1      -0.020   9.768  18.177  0.00  0.00    +0.000 A 
BRANCH  15  17
ATOM     17  C   UNK     1      -2.187  10.986  17.768  0.00  0.00    +0.000 A 
ATOM     18  C   UNK     1      -2.397  10.578  16.436  0.00  0.00    +0.000 A 
ATOM     19  C   UNK     1      -3.640  10.734  15.807  0.00  0.00    +0.000 A 
ATOM     20  C   UNK     1      -4.714  11.283  16.501  0.00  0.00    +0.000 A 
ATOM     21  C   UNK     1      -4.545  11.675  17.823  0.00  0.00    +0.000 A 
ATOM     22  C   UNK     1      -3.300  11.534  18.436  0.00  0.00    +0.000 A 
ATOM     23  F   UNK     1      -3.198  11.968  19.704  0.00  0.00    +0.000 F 
ENDBRANCH  15  17
ENDBRANCH   7  11
BRANCH   1  25
ATOM     24  O   UNK     1       5.238   1.709  21.038  0.00  0.00    +0.000 OA
ATOM     25  C   UNK     1       4.486   2.001  20.121  0.00  0.00    +0.000 C 
BRANCH  25  26
ATOM     26  O   UNK     1       4.446   1.323  18.943  0.00  0.00    +0.000 OA
ATOM     27  H   UNK     1       3.750   1.740  18.386  0.00  0.00    +0.000 HD
ENDBRANCH  25  26
ENDBRANCH   1  25
BRANCH   9  28
ATOM     28  O   UNK     1       4.381   6.174  17.232  0.00  0.00    +0.000 OA
ATOM     29  H   UNK     1       4.240   5.231  17.440  0.00  0.00    +0.000 HD
ENDBRANCH   9  28
TORSDOF 5
ENDMDL
MODEL 6
REMARK VINA RESULT:      -7.8      2.448      3.299
REMARK  Name = 
REMARK  5 active torsions:
REMARK  status: ('A' for Active; 'I' for Inactive)
REMARK    1  A    between atoms: C_2  and  O_3
REMARK    2  A    between atoms: C_2  and  C_4
REMARK    3  A    between atoms: C_10  and  C_11
REMARK    4  A    between atoms: C_15  and  C_16
REMARK    5  A    between atoms: C_25  and  O_26
REMARK                            x       y       z     vdW  Elec       q    Type
REMARK                         _______ _______ _______ _____ _____    ______ ____
ROOT
ATOM      1  C   UNK     1      -1.635  13.507  22.960  0.00  0.00    +0.000 A 
ATOM      2  C   UNK     1      -1.683  13.929  21.645  0.00  0.00    +0.000 A 
ATOM      3  S   UNK     1      -0.987  12.747  20.622  0.00  0.00    +0.000 S 
ATOM      4  C   UNK     1      -0.694  11.755  21.985  0.00  0.00    +0.000 A 
ATOM      5  N   UNK     1      -0.045  10.520  21.812  0.00  0.00    +0.000 N 
ATOM      6  N   UNK     1       0.429  10.180  20.581  0.00  0.00    +0.000 NA
ATOM      7  C   UNK     1       1.068   9.015  20.752  0.00  0.00    +0.000 A 
ATOM      8  C   UNK     1       0.944   8.564  22.091  0.00  0.00    +0.000 A 
ATOM      9  C   UNK     1       0.228   9.532  22.752  0.00  0.00    +0.000 A 
ATOM     10  N   UNK     1      -1.093  12.231  23.151  0.00  0.00    +0.000 NA
ENDROOT
BRANCH   7  11
ATOM     11  C   UNK     1       1.754   8.349  19.647  0.00  0.00    +0.000 A 
ATOM     12  C   UNK     1       2.083   9.040  18.480  0.00  0.00    +0.000 A 
ATOM     13  C   UNK     1       2.694   8.373  17.420  0.00  0.00    +0.000 A 
ATOM     14  C   UNK     1       2.964   7.004  17.515  0.00  0.00    +0.000 A 
ATOM     15  C   UNK     1       2.651   6.271  18.674  0.00  0.00    +0.000 A 
ATOM     16  C   UNK     1       2.072   6.984  19.741  0.00  0.00    +0.000 A 
BRANCH  15  17
ATOM     17  C   UNK     1       2.878   4.806  18.761  0.00  0.00    +0.000 A 
ATOM     18  C   UNK     1       1.875   3.882  18.409  0.00  0.00    +0.000 A 
ATOM     19  C   UNK     1       2.069   2.500  18.544  0.00  0.00    +0.000 A 
ATOM     20  C   UNK     1       3.280   2.004  19.016  0.00  0.00    +0.000 A 
ATOM     21  C   UNK     1       4.298   2.889  19.350  0.00  0.00    +0.000 A 
ATOM     22  C   UNK     1       4.091   4.263  19.231  0.00  0.00    +0.000 A 
ATOM     23  F   UNK     1       5.103   5.062  19.608  0.00  0.00    +0.000 F 
ENDBRANCH  15  17
ENDBRANCH   7  11
BRANCH   1  25
ATOM     24  O   UNK     1      -1.345  14.869  24.885  0.00  0.00    +0.000 OA
ATOM     25  C   UNK     1      -2.088  14.297  24.102  0.00  0.00    +0.000 C 
BRANCH  25  26
ATOM     26  O   UNK     1      -3.444  14.315  24.210  0.00  0.00    +0.000 OA
ATOM     27  H   UNK     1      -3.813  14.121  23.319  0.00  0.00    +0.000 HD
ENDBRANCH  25  26
ENDBRANCH   1  25
BRANCH   9  28
ATOM     28  O   UNK     1      -0.176   9.596  24.021  0.00  0.00    +0.000 OA
ATOM     29  H   UNK     1      -1.126   9.816  24.019  0.00  0.00    +0.000 HD
ENDBRANCH   9  28
TORSDOF 5
ENDMDL
MODEL 7
REMARK VINA RESULT:      -7.7      2.647      3.657
REMARK  Name = 
REMARK  5 active torsions:
REMARK  status: ('A' for Active; 'I' for Inactive)
REMARK    1  A    between atoms: C_2  and  O_3
REMARK    2  A    between atoms: C_2  and  C_4
REMARK    3  A    between atoms: C_10  and  C_11
REMARK    4  A    between atoms: C_15  and  C_16
REMARK    5  A    between atoms: C_25  and  O_26
REMARK                            x       y       z     vdW  Elec       q    Type
REMARK                         _______ _______ _______ _____ _____    ______ ____
ROOT
ATOM      1  C   UNK     1      -1.094  14.212  22.861  0.00  0.00    +0.000 A 
ATOM      2  C   UNK     1      -0.745  14.705  21.618  0.00  0.00    +0.000 A 
ATOM      3  S   UNK     1      -0.145  13.442  20.632  0.00  0.00    +0.000 S 
ATOM      4  C   UNK     1      -0.411  12.333  21.908  0.00  0.00    +0.000 A 
ATOM      5  N   UNK     1      -0.057  10.984  21.733  0.00  0.00    +0.000 N 
ATOM      6  N   UNK     1       0.582  10.602  20.594  0.00  0.00    +0.000 NA
ATOM      7  C   UNK     1       0.868   9.304  20.759  0.00  0.00    +0.000 A 
ATOM      8  C   UNK     1       0.343   8.826  21.988  0.00  0.00    +0.000 A 
ATOM      9  C   UNK     1      -0.247   9.908  22.594  0.00  0.00    +0.000 A 
ATOM     10  N   UNK     1      -0.932  12.831  23.015  0.00  0.00    +0.000 NA
ENDROOT
BRANCH   7  11
ATOM     11  C   UNK     1       1.601   8.545  19.749  0.00  0.00    +0.000 A 
ATOM     12  C   UNK     1       1.811   9.063  18.469  0.00  0.00    +0.000 A 
ATOM     13  C   UNK     1       2.470   8.301  17.506  0.00  0.00    +0.000 A 
ATOM     14  C   UNK     1       2.910   7.010  17.813  0.00  0.00    +0.000 A 
ATOM     15  C   UNK     1       2.721   6.452  19.091  0.00  0.00    +0.000 A 
ATOM     16  C   UNK     1       2.088   7.262  20.051  0.00  0.00    +0.000 A 
BRANCH  15  17
ATOM     17  C   UNK     1       3.129   5.060  19.408  0.00  0.00    +0.000 A 
ATOM     18  C   UNK     1       4.446   4.610  19.192  0.00  0.00    +0.000 A 
ATOM     19  C   UNK     1       4.819   3.282  19.438  0.00  0.00    +0.000 A 
ATOM     20  C   UNK     1       3.888   2.371  19.928  0.00  0.00    +0.000 A 
ATOM     21  C   UNK     1       2.586   2.789  20.174  0.00  0.00    +0.000 A 
ATOM     22  C   UNK     1       2.218   4.108  19.909  0.00  0.00    +0.000 A 
ATOM     23  F   UNK     1       0.935   4.435  20.133  0.00  0.00    +0.000 F 
ENDBRANCH  15  17
ENDBRANCH   7  11
BRANCH   1  25
ATOM     24  O   UNK     1      -2.716  15.483  24.044  0.00  0.00    +0.000 OA
ATOM     25  C   UNK     1      -1.586  15.028  23.969  0.00  0.00    +0.000 C 
BRANCH  25  26
ATOM     26  O   UNK     1      -0.630  15.242  24.913  0.00  0.00    +0.000 OA
ATOM     27  H   UNK     1       0.222  15.390  24.443  0.00  0.00    +0.000 HD
ENDBRANCH  25  26
ENDBRANCH   1  25
BRANCH   9  28
ATOM     28  O   UNK     1      -0.895  10.003  23.755  0.00  0.00    +0.000 OA
ATOM     29  H   UNK     1      -1.381   9.168  23.893  0.00  0.00    +0.000 HD
ENDBRANCH   9  28
TORSDOF 5
ENDMDL
MODEL 8
REMARK VINA RESULT:      -7.7      4.702      9.191
REMARK  Name = 
REMARK  5 active torsions:
REMARK  status: ('A' for Active; 'I' for Inactive)
REMARK    1  A    between atoms: C_2  and  O_3
REMARK    2  A    between atoms: C_2  and  C_4
REMARK    3  A    between atoms: C_10  and  C_11
REMARK    4  A    between atoms: C_15  and  C_16
REMARK    5  A    between atoms: C_25  and  O_26
REMARK                            x       y       z     vdW  Elec       q    Type
REMARK                         _______ _______ _______ _____ _____    ______ ____
ROOT
ATOM      1  C   UNK     1       3.353   3.227  19.852  0.00  0.00    +0.000 A 
ATOM      2  C   UNK     1       2.280   3.194  20.722  0.00  0.00    +0.000 A 
ATOM      3  S   UNK     1       1.438   4.684  20.674  0.00  0.00    +0.000 S 
ATOM      4  C   UNK     1       2.538   5.255  19.494  0.00  0.00    +0.000 A 
ATOM      5  N   UNK     1       2.403   6.566  19.004  0.00  0.00    +0.000 N 
ATOM      6  N   UNK     1       1.467   7.391  19.550  0.00  0.00    +0.000 NA
ATOM      7  C   UNK     1       1.643   8.578  18.954  0.00  0.00    +0.000 A 
ATOM      8  C   UNK     1       2.655   8.499  17.963  0.00  0.00    +0.000 A 
ATOM      9  C   UNK     1       3.126   7.209  18.005  0.00  0.00    +0.000 A 
ATOM     10  N   UNK     1       3.480   4.410  19.116  0.00  0.00    +0.000 NA
ENDROOT
BRANCH   7  11
ATOM     11  C   UNK     1       0.840   9.744  19.315  0.00  0.00    +0.000 A 
ATOM     12  C   UNK     1       1.231  10.599  20.347  0.00  0.00    +0.000 A 
ATOM     13  C   UNK     1       0.425  11.676  20.707  0.00  0.00    +0.000 A 
ATOM     14  C   UNK     1      -0.788  11.896  20.047  0.00  0.00    +0.000 A 
ATOM     15  C   UNK     1      -1.219  11.060  19.001  0.00  0.00    +0.000 A 
ATOM     16  C   UNK     1      -0.362  10.005  18.635  0.00  0.00    +0.000 A 
BRANCH  15  17
ATOM     17  C   UNK     1      -2.533  11.248  18.335  0.00  0.00    +0.000 A 
ATOM     18  C   UNK     1      -3.622  11.837  19.006  0.00  0.00    +0.000 A 
ATOM     19  C   UNK     1      -4.878  11.964  18.397  0.00  0.00    +0.000 A 
ATOM     20  C   UNK     1      -5.074  11.525  17.092  0.00  0.00    +0.000 A 
ATOM     21  C   UNK     1      -4.013  10.961  16.395  0.00  0.00    +0.000 A 
ATOM     22  C   UNK     1      -2.771  10.820  17.013  0.00  0.00    +0.000 A 
ATOM     23  F   UNK     1      -1.800  10.232  16.295  0.00  0.00    +0.000 F 
ENDBRANCH  15  17
ENDBRANCH   7  11
BRANCH   1  25
ATOM     24  O   UNK     1       5.212   1.888  20.478  0.00  0.00    +0.000 OA
ATOM     25  C   UNK     1       4.319   2.145  19.686  0.00  0.00    +0.000 C 
BRANCH  25  26
ATOM     26  O   UNK     1       4.125   1.454  18.530  0.00  0.00    +0.000 OA
ATOM     27  H   UNK     1       4.751   0.695  18.531  0.00  0.00    +0.000 HD
ENDBRANCH  25  26
ENDBRANCH   1  25
BRANCH   9  28
ATOM     28  O   UNK     1       4.066   6.606  17.277  0.00  0.00    +0.000 OA
ATOM     29  H   UNK     1       3.616   6.070  16.597  0.00  0.00    +0.000 HD
ENDBRANCH   9  28
TORSDOF 5
ENDMDL
MODEL 9
REMARK VINA RESULT:      -7.7      3.145      4.513
REMARK  Name = 
REMARK  5 active torsions:
REMARK  status: ('A' for Active; 'I' for Inactive)
REMARK    1  A    between atoms: C_2  and  O_3
REMARK    2  A    between atoms: C_2  and  C_4
REMARK    3  A    between atoms: C_10  and  C_11
REMARK    4  A    between atoms: C_15  and  C_16
REMARK    5  A    between atoms: C_25  and  O_26
REMARK                            x       y       z     vdW  Elec       q    Type
REMARK                         _______ _______ _______ _____ _____    ______ ____
ROOT
ATOM      1  C   UNK     1       0.972  15.371  18.972  0.00  0.00    +0.000 A 
ATOM      2  C   UNK     1       2.299  15.349  18.585  0.00  0.00    +0.000 A 
ATOM      3  S   UNK     1       2.792  13.740  18.270  0.00  0.00    +0.000 S 
ATOM      4  C   UNK     1       1.214  13.194  18.645  0.00  0.00    +0.000 A 
ATOM      5  N   UNK     1       0.935  11.816  18.606  0.00  0.00    +0.000 N 
ATOM      6  N   UNK     1       1.946  10.935  18.370  0.00  0.00    +0.000 NA
ATOM      7  C   UNK     1       1.398   9.719  18.488  0.00  0.00    +0.000 A 
ATOM      8  C   UNK     1       0.003   9.817  18.732  0.00  0.00    +0.000 A 
ATOM      9  C   UNK     1      -0.276  11.160  18.799  0.00  0.00    +0.000 A 
ATOM     10  N   UNK     1       0.336  14.124  18.973  0.00  0.00    +0.000 NA
ENDROOT
BRANCH   7  11
ATOM     11  C   UNK     1       2.193   8.502  18.344  0.00  0.00    +0.000 A 
ATOM     12  C   UNK     1       3.272   8.446  17.459  0.00  0.00    +0.000 A 
ATOM     13  C   UNK     1       3.986   7.260  17.302  0.00  0.00    +0.000 A 
ATOM     14  C   UNK     1       3.614   6.117  18.016  0.00  0.00    +0.000 A 
ATOM     15  C   UNK     1       2.535   6.131  18.919  0.00  0.00    +0.000 A 
ATOM     16  C   UNK     1       1.861   7.355  19.085  0.00  0.00    +0.000 A 
BRANCH  15  17
ATOM     17  C   UNK     1       2.095   4.908  19.636  0.00  0.00    +0.000 A 
ATOM     18  C   UNK     1       2.404   4.697  20.994  0.00  0.00    +0.000 A 
ATOM     19  C   UNK     1       2.037   3.517  21.656  0.00  0.00    +0.000 A 
ATOM     20  C   UNK     1       1.332   2.525  20.983  0.00  0.00    +0.000 A 
ATOM     21  C   UNK     1       0.992   2.712  19.650  0.00  0.00    +0.000 A 
ATOM     22  C   UNK     1       1.376   3.880  18.992  0.00  0.00    +0.000 A 
ATOM     23  F   UNK     1       1.047   3.979  17.693  0.00  0.00    +0.000 F 
ENDBRANCH  15  17
ENDBRANCH   7  11
BRANCH   1  25
ATOM     24  O   UNK     1      -0.964  16.714  19.278  0.00  0.00    +0.000 OA
ATOM     25  C   UNK     1       0.246  16.572  19.374  0.00  0.00    +0.000 C 
BRANCH  25  26
ATOM     26  O   UNK     1       1.074  17.536  19.860  0.00  0.00    +0.000 OA
ATOM     27  H   UNK     1       1.150  17.398  20.831  0.00  0.00    +0.000 HD
ENDBRANCH  25  26
ENDBRANCH   1  25
BRANCH   9  28
ATOM     28  O   UNK     1      -1.431  11.796  18.996  0.00  0.00    +0.000 OA
ATOM     29  H   UNK     1      -1.244  12.591  19.530  0.00  0.00    +0.000 HD
ENDBRANCH   9  28
TORSDOF 5
ENDMDL
