MODEL 1
REMARK VINA RESULT:      -7.6      0.000      0.000
REMARK  Name = 
REMARK  8 active torsions:
REMARK  status: ('A' for Active; 'I' for Inactive)
REMARK    1  A    between atoms: C_1  and  O_2
REMARK    2  A    between atoms: O_2  and  C_3
REMARK    3  A    between atoms: C_5  and  C_6
REMARK    4  A    between atoms: C_10  and  O_11
REMARK    5  A    between atoms: C_17  and  O_18
REMARK    6  A    between atoms: C_20  and  O_21
REMARK    7  A    between atoms: O_21  and  C_22
REMARK    8  A    between atoms: C_23  and  O_24
REMARK                            x       y       z     vdW  Elec       q    Type
REMARK                         _______ _______ _______ _____ _____    ______ ____
ROOT
ATOM      1  C   UNL     1       2.174   6.853  18.818  0.00  0.00    +0.000 C 
ATOM      2  O   UNL     1       2.321   7.165  20.239  0.00  0.00    +0.000 OA
ATOM      3  C   UNL     1       1.633   8.321  20.542  0.00  0.00    +0.000 A 
ATOM      4  C   UNL     1       1.285   8.576  21.862  0.00  0.00    +0.000 A 
ATOM      5  C   UNL     1       0.357   9.585  22.118  0.00  0.00    +0.000 A 
ATOM      6  C   UNL     1      -0.261  10.283  21.084  0.00  0.00    +0.000 A 
ATOM      7  C   UNL     1       0.205  10.138  19.780  0.00  0.00    +0.000 A 
ATOM      8  C   UNL     1       1.221   9.220  19.537  0.00  0.00    +0.000 A 
ATOM      9  C   UNL     1       1.930   9.144  18.234  0.00  0.00    +0.000 C 
ATOM     10  O   UNL     1       1.753   9.997  17.370  0.00  0.00    +0.000 OA
ATOM     11  C   UNL     1       2.925   7.988  18.096  0.00  0.00    +0.000 C 
ENDROOT
BRANCH   1  14
ATOM     12  C   UNL     1       3.869   3.692  17.561  0.00  0.00    +0.000 A 
ATOM     13  C   UNL     1       3.350   4.998  17.602  0.00  0.00    +0.000 A 
ATOM     14  C   UNL     1       2.341   5.372  18.506  0.00  0.00    +0.000 A 
ATOM     15  C   UNL     1       1.804   4.367  19.319  0.00  0.00    +0.000 A 
ATOM     16  C   UNL     1       2.291   3.049  19.295  0.00  0.00    +0.000 A 
ATOM     17  C   UNL     1       3.340   2.721  18.426  0.00  0.00    +0.000 A 
BRANCH  12  19
ATOM     18  C   UNL     1       5.357   4.720  15.977  0.00  0.00    +0.000 C 
ATOM     19  O   UNL     1       4.889   3.565  16.655  0.00  0.00    +0.000 OA
ENDBRANCH  12  19
BRANCH  16  20
ATOM     20  O   UNL     1       1.659   2.240  20.207  0.00  0.00    +0.000 OA
ATOM     21  C   UNL     1       1.607   2.621  21.573  0.00  0.00    +0.000 C 
ENDBRANCH  16  20
BRANCH  17  22
ATOM     22  O   UNL     1       3.865   1.460  18.427  0.00  0.00    +0.000 OA
ATOM     23  H   UNL     1       3.448   1.016  17.677  0.00  0.00    +0.000 HD
ENDBRANCH  17  22
ENDBRANCH   1  14
BRANCH   5  24
ATOM     24  O   UNL     1       0.017   9.925  23.394  0.00  0.00    +0.000 OA
ATOM     25  H   UNL     1      -0.870   9.568  23.575  0.00  0.00    +0.000 HD
ENDBRANCH   5  24
BRANCH  11  26
ATOM     26  O   UNL     1       3.247   7.797  16.732  0.00  0.00    +0.000 OA
ATOM     27  H   UNL     1       3.954   7.122  16.714  0.00  0.00    +0.000 HD
ENDBRANCH  11  26
TORSDOF 6
ENDMDL
MODEL 2
REMARK VINA RESULT:      -7.5      1.251      1.251
REMARK  Name = 
REMARK  8 active torsions:
REMARK  status: ('A' for Active; 'I' for Inactive)
REMARK    1  A    between atoms: C_1  and  O_2
REMARK    2  A    between atoms: O_2  and  C_3
REMARK    3  A    between atoms: C_5  and  C_6
REMARK    4  A    between atoms: C_10  and  O_11
REMARK    5  A    between atoms: C_17  and  O_18
REMARK    6  A    between atoms: C_20  and  O_21
REMARK    7  A    between atoms: O_21  and  C_22
REMARK    8  A    between atoms: C_23  and  O_24
REMARK                            x       y       z     vdW  Elec       q    Type
REMARK                         _______ _______ _______ _____ _____    ______ ____
ROOT
ATOM      1  C   UNL     1       2.323   7.119  19.252  0.00  0.00    +0.000 C 
ATOM      2  O   UNL     1       2.508   7.653  20.601  0.00  0.00    +0.000 OA
ATOM      3  C   UNL     1       1.559   8.620  20.859  0.00  0.00    +0.000 A 
ATOM      4  C   UNL     1       1.276   8.956  22.177  0.00  0.00    +0.000 A 
ATOM      5  C   UNL     1       0.134   9.714  22.435  0.00  0.00    +0.000 A 
ATOM      6  C   UNL     1      -0.742  10.077  21.416  0.00  0.00    +0.000 A 
ATOM      7  C   UNL     1      -0.375   9.880  20.088  0.00  0.00    +0.000 A 
ATOM      8  C   UNL     1       0.827   9.232  19.822  0.00  0.00    +0.000 A 
ATOM      9  C   UNL     1       1.409   9.164  18.456  0.00  0.00    +0.000 C 
ATOM     10  O   UNL     1       0.927   9.813  17.534  0.00  0.00    +0.000 OA
ATOM     11  C   UNL     1       2.665   8.299  18.322  0.00  0.00    +0.000 C 
ENDROOT
BRANCH   1  14
ATOM     12  C   UNL     1       4.908   4.344  19.008  0.00  0.00    +0.000 A 
ATOM     13  C   UNL     1       4.222   5.549  18.773  0.00  0.00    +0.000 A 
ATOM     14  C   UNL     1       2.861   5.704  19.085  0.00  0.00    +0.000 A 
ATOM     15  C   UNL     1       2.180   4.580  19.567  0.00  0.00    +0.000 A 
ATOM     16  C   UNL     1       2.833   3.358  19.802  0.00  0.00    +0.000 A 
ATOM     17  C   UNL     1       4.205   3.251  19.538  0.00  0.00    +0.000 A 
BRANCH  12  19
ATOM     18  C   UNL     1       6.977   5.563  19.135  0.00  0.00    +0.000 C 
ATOM     19  O   UNL     1       6.239   4.434  18.695  0.00  0.00    +0.000 OA
ENDBRANCH  12  19
BRANCH  16  20
ATOM     20  O   UNL     1       1.991   2.405  20.321  0.00  0.00    +0.000 OA
ATOM     21  C   UNL     1       1.453   2.573  21.623  0.00  0.00    +0.000 C 
ENDBRANCH  16  20
BRANCH  17  22
ATOM     22  O   UNL     1       4.870   2.090  19.813  0.00  0.00    +0.000 OA
ATOM     23  H   UNL     1       4.660   1.502  19.074  0.00  0.00    +0.000 HD
ENDBRANCH  17  22
ENDBRANCH   1  14
BRANCH   5  24
ATOM     24  O   UNL     1      -0.168  10.128  23.698  0.00  0.00    +0.000 OA
ATOM     25  H   UNL     1       0.253  10.994  23.841  0.00  0.00    +0.000 HD
ENDBRANCH   5  24
BRANCH  11  26
ATOM     26  O   UNL     1       2.903   8.012  16.958  0.00  0.00    +0.000 OA
ATOM     27  H   UNL     1       3.291   8.823  16.575  0.00  0.00    +0.000 HD
ENDBRANCH  11  26
TORSDOF 6
ENDMDL
MODEL 3
REMARK VINA RESULT:      -7.4      2.256      4.577
REMARK  Name = 
REMARK  8 active torsions:
REMARK  status: ('A' for Active; 'I' for Inactive)
REMARK    1  A    between atoms: C_1  and  O_2
REMARK    2  A    between atoms: O_2  and  C_3
REMARK    3  A    between atoms: C_5  and  C_6
REMARK    4  A    between atoms: C_10  and  O_11
REMARK    5  A    between atoms: C_17  and  O_18
REMARK    6  A    between atoms: C_20  and  O_21
REMARK    7  A    between atoms: O_21  and  C_22
REMARK    8  A    between atoms: C_23  and  O_24
REMARK                            x       y       z     vdW  Elec       q    Type
REMARK                         _______ _______ _______ _____ _____    ______ ____
ROOT
ATOM      1  C   UNL     1       3.756   5.876  18.423  0.00  0.00    +0.000 C 
ATOM      2  O   UNL     1       2.945   6.917  17.793  0.00  0.00    +0.000 OA
ATOM      3  C   UNL     1       2.155   7.537  18.738  0.00  0.00    +0.000 A 
ATOM      4  C   UNL     1       1.633   8.795  18.466  0.00  0.00    +0.000 A 
ATOM      5  C   UNL     1       1.082   9.524  19.519  0.00  0.00    +0.000 A 
ATOM      6  C   UNL     1       1.107   9.044  20.825  0.00  0.00    +0.000 A 
ATOM      7  C   UNL     1       1.481   7.726  21.068  0.00  0.00    +0.000 A 
ATOM      8  C   UNL     1       1.914   6.951  19.998  0.00  0.00    +0.000 A 
ATOM      9  C   UNL     1       2.129   5.485  20.111  0.00  0.00    +0.000 C 
ATOM     10  O   UNL     1       1.780   4.874  21.115  0.00  0.00    +0.000 OA
ATOM     11  C   UNL     1       2.735   4.815  18.875  0.00  0.00    +0.000 C 
ENDROOT
BRANCH   1  14
ATOM     12  C   UNL     1       5.962   4.491  15.656  0.00  0.00    +0.000 A 
ATOM     13  C   UNL     1       5.002   4.568  16.681  0.00  0.00    +0.000 A 
ATOM     14  C   UNL     1       5.040   5.571  17.664  0.00  0.00    +0.000 A 
ATOM     15  C   UNL     1       6.127   6.453  17.639  0.00  0.00    +0.000 A 
ATOM     16  C   UNL     1       7.110   6.397  16.636  0.00  0.00    +0.000 A 
ATOM     17  C   UNL     1       7.012   5.423  15.633  0.00  0.00    +0.000 A 
BRANCH  12  19
ATOM     18  C   UNL     1       5.338   3.810  13.436  0.00  0.00    +0.000 C 
ATOM     19  O   UNL     1       5.696   3.481  14.768  0.00  0.00    +0.000 OA
ENDBRANCH  12  19
BRANCH  16  20
ATOM     20  O   UNL     1       8.054   7.384  16.772  0.00  0.00    +0.000 OA
ATOM     21  C   UNL     1       7.839   8.446  17.688  0.00  0.00    +0.000 C 
ENDBRANCH  16  20
BRANCH  17  22
ATOM     22  O   UNL     1       7.925   5.386  14.618  0.00  0.00    +0.000 OA
ATOM     23  H   UNL     1       8.540   6.107  14.811  0.00  0.00    +0.000 HD
ENDBRANCH  17  22
ENDBRANCH   1  14
BRANCH   5  24
ATOM     24  O   UNL     1       0.500  10.739  19.308  0.00  0.00    +0.000 OA
ATOM     25  H   UNL     1       0.968  11.174  18.575  0.00  0.00    +0.000 HD
ENDBRANCH   5  24
BRANCH  11  26
ATOM     26  O   UNL     1       3.228   3.536  19.220  0.00  0.00    +0.000 OA
ATOM     27  H   UNL     1       4.175   3.658  19.430  0.00  0.00    +0.000 HD
ENDBRANCH  11  26
TORSDOF 6
ENDMDL
MODEL 4
REMARK VINA RESULT:      -7.2      1.699      6.870
REMARK  Name = 
REMARK  8 active torsions:
REMARK  status: ('A' for Active; 'I' for Inactive)
REMARK    1  A    between atoms: C_1  and  O_2
REMARK    2  A    between atoms: O_2  and  C_3
REMARK    3  A    between atoms: C_5  and  C_6
REMARK    4  A    between atoms: C_10  and  O_11
REMARK    5  A    between atoms: C_17  and  O_18
REMARK    6  A    between atoms: C_20  and  O_21
REMARK    7  A    between atoms: O_21  and  C_22
REMARK    8  A    between atoms: C_23  and  O_24
REMARK                            x       y       z     vdW  Elec       q    Type
REMARK                         _______ _______ _______ _____ _____    ______ ____
ROOT
ATOM      1  C   UNL     1       2.724   6.148  19.350  0.00  0.00    +0.000 C 
ATOM      2  O   UNL     1       4.180   6.088  19.477  0.00  0.00    +0.000 OA
ATOM      3  C   UNL     1       4.695   5.179  18.578  0.00  0.00    +0.000 A 
ATOM      4  C   UNL     1       6.037   5.257  18.228  0.00  0.00    +0.000 A 
ATOM      5  C   UNL     1       6.476   4.529  17.123  0.00  0.00    +0.000 A 
ATOM      6  C   UNL     1       5.591   3.790  16.342  0.00  0.00    +0.000 A 
ATOM      7  C   UNL     1       4.288   3.584  16.785  0.00  0.00    +0.000 A 
ATOM      8  C   UNL     1       3.879   4.210  17.958  0.00  0.00    +0.000 A 
ATOM      9  C   UNL     1       2.591   3.889  18.625  0.00  0.00    +0.000 C 
ATOM     10  O   UNL     1       1.907   2.943  18.249  0.00  0.00    +0.000 OA
ATOM     11  C   UNL     1       2.240   4.767  19.829  0.00  0.00    +0.000 C 
ENDROOT
BRANCH   1  14
ATOM     12  C   UNL     1       1.228   9.627  19.031  0.00  0.00    +0.000 A 
ATOM     13  C   UNL     1       2.099   8.534  18.881  0.00  0.00    +0.000 A 
ATOM     14  C   UNL     1       2.134   7.476  19.806  0.00  0.00    +0.000 A 
ATOM     15  C   UNL     1       1.323   7.588  20.941  0.00  0.00    +0.000 A 
ATOM     16  C   UNL     1       0.449   8.673  21.127  0.00  0.00    +0.000 A 
ATOM     17  C   UNL     1       0.391   9.683  20.158  0.00  0.00    +0.000 A 
BRANCH  12  19
ATOM     18  C   UNL     1       2.138  11.650  18.105  0.00  0.00    +0.000 C 
ATOM     19  O   UNL     1       1.309  10.505  17.983  0.00  0.00    +0.000 OA
ENDBRANCH  12  19
BRANCH  16  20
ATOM     20  O   UNL     1      -0.290   8.558  22.279  0.00  0.00    +0.000 OA
ATOM     21  C   UNL     1      -0.084   9.472  23.344  0.00  0.00    +0.000 C 
ENDBRANCH  16  20
BRANCH  17  22
ATOM     22  O   UNL     1      -0.491  10.716  20.292  0.00  0.00    +0.000 OA
ATOM     23  H   UNL     1      -1.344  10.353  20.016  0.00  0.00    +0.000 HD
ENDBRANCH  17  22
ENDBRANCH   1  14
BRANCH   5  24
ATOM     24  O   UNL     1       7.791   4.515  16.763  0.00  0.00    +0.000 OA
ATOM     25  H   UNL     1       7.986   5.348  16.299  0.00  0.00    +0.000 HD
ENDBRANCH   5  24
BRANCH  11  26
ATOM     26  O   UNL     1       0.868   4.624  20.139  0.00  0.00    +0.000 OA
ATOM     27  H   UNL     1       0.740   5.056  21.006  0.00  0.00    +0.000 HD
ENDBRANCH  11  26
TORSDOF 6
ENDMDL
MODEL 5
REMARK VINA RESULT:      -7.2      1.394      2.478
REMARK  Name = 
REMARK  8 active torsions:
REMARK  status: ('A' for Active; 'I' for Inactive)
REMARK    1  A    between atoms: C_1  and  O_2
REMARK    2  A    between atoms: O_2  and  C_3
REMARK    3  A    between atoms: C_5  and  C_6
REMARK    4  A    between atoms: C_10  and  O_11
REMARK    5  A    between atoms: C_17  and  O_18
REMARK    6  A    between atoms: C_20  and  O_21
REMARK    7  A    between atoms: O_21  and  C_22
REMARK    8  A    between atoms: C_23  and  O_24
REMARK                            x       y       z     vdW  Elec       q    Type
REMARK                         _______ _______ _______ _____ _____    ______ ____
ROOT
ATOM      1  C   UNL     1       2.243   7.248  19.370  0.00  0.00    +0.000 C 
ATOM      2  O   UNL     1       2.355   7.840  20.702  0.00  0.00    +0.000 OA
ATOM      3  C   UNL     1       1.394   8.815  20.868  0.00  0.00    +0.000 A 
ATOM      4  C   UNL     1       1.040   9.207  22.152  0.00  0.00    +0.000 A 
ATOM      5  C   UNL     1      -0.113   9.973  22.316  0.00  0.00    +0.000 A 
ATOM      6  C   UNL     1      -0.934  10.289  21.237  0.00  0.00    +0.000 A 
ATOM      7  C   UNL     1      -0.496  10.036  19.940  0.00  0.00    +0.000 A 
ATOM      8  C   UNL     1       0.719   9.381  19.767  0.00  0.00    +0.000 A 
ATOM      9  C   UNL     1       1.373   9.255  18.439  0.00  0.00    +0.000 C 
ATOM     10  O   UNL     1       0.941   9.862  17.465  0.00  0.00    +0.000 OA
ATOM     11  C   UNL     1       2.634   8.388  18.410  0.00  0.00    +0.000 C 
ENDROOT
BRANCH   1  14
ATOM     12  C   UNL     1       2.423   3.601  18.319  0.00  0.00    +0.000 A 
ATOM     13  C   UNL     1       1.933   4.818  18.824  0.00  0.00    +0.000 A 
ATOM     14  C   UNL     1       2.789   5.829  19.293  0.00  0.00    +0.000 A 
ATOM     15  C   UNL     1       4.160   5.548  19.320  0.00  0.00    +0.000 A 
ATOM     16  C   UNL     1       4.682   4.337  18.834  0.00  0.00    +0.000 A 
ATOM     17  C   UNL     1       3.808   3.372  18.316  0.00  0.00    +0.000 A 
BRANCH  12  19
ATOM     18  C   UNL     1       0.573   2.137  18.784  0.00  0.00    +0.000 C 
ATOM     19  O   UNL     1       1.422   2.789  17.853  0.00  0.00    +0.000 OA
ENDBRANCH  12  19
BRANCH  16  20
ATOM     20  O   UNL     1       6.052   4.290  18.908  0.00  0.00    +0.000 OA
ATOM     21  C   UNL     1       6.789   5.485  19.115  0.00  0.00    +0.000 C 
ENDBRANCH  16  20
BRANCH  17  22
ATOM     22  O   UNL     1       4.300   2.212  17.787  0.00  0.00    +0.000 OA
ATOM     23  H   UNL     1       3.953   1.513  18.357  0.00  0.00    +0.000 HD
ENDBRANCH  17  22
ENDBRANCH   1  14
BRANCH   5  24
ATOM     24  O   UNL     1      -0.483  10.440  23.542  0.00  0.00    +0.000 OA
ATOM     25  H   UNL     1      -0.836   9.693  24.056  0.00  0.00    +0.000 HD
ENDBRANCH   5  24
BRANCH  11  26
ATOM     26  O   UNL     1       2.945   8.042  17.074  0.00  0.00    +0.000 OA
ATOM     27  H   UNL     1       3.470   7.220  17.123  0.00  0.00    +0.000 HD
ENDBRANCH  11  26
TORSDOF 6
ENDMDL
MODEL 6
REMARK VINA RESULT:      -7.2      0.635      2.720
REMARK  Name = 
REMARK  8 active torsions:
REMARK  status: ('A' for Active; 'I' for Inactive)
REMARK    1  A    between atoms: C_1  and  O_2
REMARK    2  A    between atoms: O_2  and  C_3
REMARK    3  A    between atoms: C_5  and  C_6
REMARK    4  A    between atoms: C_10  and  O_11
REMARK    5  A    between atoms: C_17  and  O_18
REMARK    6  A    between atoms: C_20  and  O_21
REMARK    7  A    between atoms: O_21  and  C_22
REMARK    8  A    between atoms: C_23  and  O_24
REMARK                            x       y       z     vdW  Elec       q    Type
REMARK                         _______ _______ _______ _____ _____    ______ ____
ROOT
ATOM      1  C   UNL     1       2.175   7.153  19.171  0.00  0.00    +0.000 C 
ATOM      2  O   UNL     1       2.314   7.627  20.547  0.00  0.00    +0.000 OA
ATOM      3  C   UNL     1       1.465   8.691  20.768  0.00  0.00    +0.000 A 
ATOM      4  C   UNL     1       1.120   9.024  22.071  0.00  0.00    +0.000 A 
ATOM      5  C   UNL     1       0.056   9.904  22.270  0.00  0.00    +0.000 A 
ATOM      6  C   UNL     1      -0.690  10.393  21.202  0.00  0.00    +0.000 A 
ATOM      7  C   UNL     1      -0.245  10.188  19.898  0.00  0.00    +0.000 A 
ATOM      8  C   UNL     1       0.892   9.412  19.700  0.00  0.00    +0.000 A 
ATOM      9  C   UNL     1       1.567   9.311  18.381  0.00  0.00    +0.000 C 
ATOM     10  O   UNL     1       1.237  10.036  17.448  0.00  0.00    +0.000 OA
ATOM     11  C   UNL     1       2.722   8.309  18.311  0.00  0.00    +0.000 C 
ENDROOT
BRANCH   1  14
ATOM     12  C   UNL     1       1.834   3.376  19.404  0.00  0.00    +0.000 A 
ATOM     13  C   UNL     1       1.877   4.734  19.767  0.00  0.00    +0.000 A 
ATOM     14  C   UNL     1       2.558   5.690  18.995  0.00  0.00    +0.000 A 
ATOM     15  C   UNL     1       3.273   5.228  17.884  0.00  0.00    +0.000 A 
ATOM     16  C   UNL     1       3.261   3.876  17.500  0.00  0.00    +0.000 A 
ATOM     17  C   UNL     1       2.523   2.955  18.255  0.00  0.00    +0.000 A 
BRANCH  12  19
ATOM     18  C   UNL     1       1.387   2.604  21.636  0.00  0.00    +0.000 C 
ATOM     19  O   UNL     1       1.060   2.633  20.257  0.00  0.00    +0.000 OA
ENDBRANCH  12  19
BRANCH  16  20
ATOM     20  O   UNL     1       3.985   3.650  16.355  0.00  0.00    +0.000 OA
ATOM     21  C   UNL     1       5.353   4.021  16.300  0.00  0.00    +0.000 C 
ENDBRANCH  16  20
BRANCH  17  22
ATOM     22  O   UNL     1       2.452   1.647  17.867  0.00  0.00    +0.000 OA
ATOM     23  H   UNL     1       2.938   1.160  18.546  0.00  0.00    +0.000 HD
ENDBRANCH  17  22
ENDBRANCH   1  14
BRANCH   5  24
ATOM     24  O   UNL     1      -0.295  10.317  23.521  0.00  0.00    +0.000 OA
ATOM     25  H   UNL     1      -0.753  11.172  23.438  0.00  0.00    +0.000 HD
ENDBRANCH   5  24
BRANCH  11  26
ATOM     26  O   UNL     1       3.031   8.031  16.959  0.00  0.00    +0.000 OA
ATOM     27  H   UNL     1       2.178   8.028  16.482  0.00  0.00    +0.000 HD
ENDBRANCH  11  26
TORSDOF 6
ENDMDL
MODEL 7
REMARK VINA RESULT:      -7.1      2.276      4.854
REMARK  Name = 
REMARK  8 active torsions:
REMARK  status: ('A' for Active; 'I' for Inactive)
REMARK    1  A    between atoms: C_1  and  O_2
REMARK    2  A    between atoms: O_2  and  C_3
REMARK    3  A    between atoms: C_5  and  C_6
REMARK    4  A    between atoms: C_10  and  O_11
REMARK    5  A    between atoms: C_17  and  O_18
REMARK    6  A    between atoms: C_20  and  O_21
REMARK    7  A    between atoms: O_21  and  C_22
REMARK    8  A    between atoms: C_23  and  O_24
REMARK                            x       y       z     vdW  Elec       q    Type
REMARK                         _______ _______ _______ _____ _____    ______ ____
ROOT
ATOM      1  C   UNL     1       3.799   5.125  17.805  0.00  0.00    +0.000 C 
ATOM      2  O   UNL     1       3.186   6.447  17.679  0.00  0.00    +0.000 OA
ATOM      3  C   UNL     1       2.370   6.694  18.763  0.00  0.00    +0.000 A 
ATOM      4  C   UNL     1       2.027   8.005  19.068  0.00  0.00    +0.000 A 
ATOM      5  C   UNL     1       1.446   8.264  20.310  0.00  0.00    +0.000 A 
ATOM      6  C   UNL     1       1.269   7.256  21.253  0.00  0.00    +0.000 A 
ATOM      7  C   UNL     1       1.462   5.927  20.886  0.00  0.00    +0.000 A 
ATOM      8  C   UNL     1       1.924   5.654  19.603  0.00  0.00    +0.000 A 
ATOM      9  C   UNL     1       1.957   4.277  19.046  0.00  0.00    +0.000 C 
ATOM     10  O   UNL     1       1.431   3.343  19.643  0.00  0.00    +0.000 OA
ATOM     11  C   UNL     1       2.620   4.143  17.672  0.00  0.00    +0.000 C 
ENDROOT
BRANCH   1  14
ATOM     12  C   UNL     1       6.155   4.245  14.956  0.00  0.00    +0.000 A 
ATOM     13  C   UNL     1       5.168   4.131  15.951  0.00  0.00    +0.000 A 
ATOM     14  C   UNL     1       5.118   4.999  17.055  0.00  0.00    +0.000 A 
ATOM     15  C   UNL     1       6.146   5.941  17.178  0.00  0.00    +0.000 A 
ATOM     16  C   UNL     1       7.155   6.074  16.208  0.00  0.00    +0.000 A 
ATOM     17  C   UNL     1       7.143   5.234  15.087  0.00  0.00    +0.000 A 
BRANCH  12  19
ATOM     18  C   UNL     1       5.284   3.754  12.770  0.00  0.00    +0.000 C 
ATOM     19  O   UNL     1       5.976   3.345  13.939  0.00  0.00    +0.000 OA
ENDBRANCH  12  19
BRANCH  16  20
ATOM     20  O   UNL     1       8.031   7.090  16.500  0.00  0.00    +0.000 OA
ATOM     21  C   UNL     1       7.777   7.947  17.602  0.00  0.00    +0.000 C 
ENDBRANCH  16  20
BRANCH  17  22
ATOM     22  O   UNL     1       8.082   5.384  14.105  0.00  0.00    +0.000 OA
ATOM     23  H   UNL     1       7.748   4.866  13.361  0.00  0.00    +0.000 HD
ENDBRANCH  17  22
ENDBRANCH   1  14
BRANCH   5  24
ATOM     24  O   UNL     1       1.032   9.518  20.648  0.00  0.00    +0.000 OA
ATOM     25  H   UNL     1       0.597   9.468  21.517  0.00  0.00    +0.000 HD
ENDBRANCH   5  24
BRANCH  11  26
ATOM     26  O   UNL     1       2.924   2.785  17.420  0.00  0.00    +0.000 OA
ATOM     27  H   UNL     1       3.883   2.687  17.584  0.00  0.00    +0.000 HD
ENDBRANCH  11  26
TORSDOF 6
ENDMDL
MODEL 8
REMARK VINA RESULT:      -7.0      3.499      7.751
REMARK  Name = 
REMARK  8 active torsions:
REMARK  status: ('A' for Active; 'I' for Inactive)
REMARK    1  A    between atoms: C_1  and  O_2
REMARK    2  A    between atoms: O_2  and  C_3
REMARK    3  A    between atoms: C_5  and  C_6
REMARK    4  A    between atoms: C_10  and  O_11
REMARK    5  A    between atoms: C_17  and  O_18
REMARK    6  A    between atoms: C_20  and  O_21
REMARK    7  A    between atoms: O_21  and  C_22
REMARK    8  A    between atoms: C_23  and  O_24
REMARK                            x       y       z     vdW  Elec       q    Type
REMARK                         _______ _______ _______ _____ _____    ______ ____
ROOT
ATOM      1  C   UNL     1      -0.174   9.932  19.001  0.00  0.00    +0.000 C 
ATOM      2  O   UNL     1       0.979   9.771  18.116  0.00  0.00    +0.000 OA
ATOM      3  C   UNL     1       1.777   8.740  18.564  0.00  0.00    +0.000 A 
ATOM      4  C   UNL     1       2.669   8.141  17.684  0.00  0.00    +0.000 A 
ATOM      5  C   UNL     1       3.257   6.933  18.057  0.00  0.00    +0.000 A 
ATOM      6  C   UNL     1       2.919   6.299  19.249  0.00  0.00    +0.000 A 
ATOM      7  C   UNL     1       2.154   6.974  20.196  0.00  0.00    +0.000 A 
ATOM      8  C   UNL     1       1.667   8.237  19.877  0.00  0.00    +0.000 A 
ATOM      9  C   UNL     1       1.028   9.123  20.885  0.00  0.00    +0.000 C 
ATOM     10  O   UNL     1       1.047   8.834  22.077  0.00  0.00    +0.000 OA
ATOM     11  C   UNL     1       0.429  10.419  20.333  0.00  0.00    +0.000 C 
ENDROOT
BRANCH   1  14
ATOM     12  C   UNL     1      -3.111  10.220  16.607  0.00  0.00    +0.000 A 
ATOM     13  C   UNL     1      -1.811  10.011  17.100  0.00  0.00    +0.000 A 
ATOM     14  C   UNL     1      -1.376  10.567  18.315  0.00  0.00    +0.000 A 
ATOM     15  C   UNL     1      -2.264  11.416  18.987  0.00  0.00    +0.000 A 
ATOM     16  C   UNL     1      -3.566  11.656  18.515  0.00  0.00    +0.000 A 
ATOM     17  C   UNL     1      -3.992  11.038  17.332  0.00  0.00    +0.000 A 
BRANCH  12  19
ATOM     18  C   UNL     1      -3.175  10.196  14.204  0.00  0.00    +0.000 C 
ATOM     19  O   UNL     1      -3.344   9.531  15.445  0.00  0.00    +0.000 OA
ENDBRANCH  12  19
BRANCH  16  20
ATOM     20  O   UNL     1      -4.283  12.476  19.351  0.00  0.00    +0.000 OA
ATOM     21  C   UNL     1      -3.718  12.897  20.583  0.00  0.00    +0.000 C 
ENDBRANCH  16  20
BRANCH  17  22
ATOM     22  O   UNL     1      -5.271  11.213  16.886  0.00  0.00    +0.000 OA
ATOM     23  H   UNL     1      -5.817  11.193  17.684  0.00  0.00    +0.000 HD
ENDBRANCH  17  22
ENDBRANCH   1  14
BRANCH   5  24
ATOM     24  O   UNL     1       4.185   6.325  17.265  0.00  0.00    +0.000 OA
ATOM     25  H   UNL     1       4.456   5.497  17.700  0.00  0.00    +0.000 HD
ENDBRANCH   5  24
BRANCH  11  26
ATOM     26  O   UNL     1      -0.451  10.981  21.285  0.00  0.00    +0.000 OA
ATOM     27  H   UNL     1      -1.147  11.439  20.774  0.00  0.00    +0.000 HD
ENDBRANCH  11  26
TORSDOF 6
ENDMDL
MODEL 9
REMARK VINA RESULT:      -7.0      2.401      7.590
REMARK  Name = 
REMARK  8 active torsions:
REMARK  status: ('A' for Active; 'I' for Inactive)
REMARK    1  A    between atoms: C_1  and  O_2
REMARK    2  A    between atoms: O_2  and  C_3
REMARK    3  A    between atoms: C_5  and  C_6
REMARK    4  A    between atoms: C_10  and  O_11
REMARK    5  A    between atoms: C_17  and  O_18
REMARK    6  A    between atoms: C_20  and  O_21
REMARK    7  A    between atoms: O_21  and  C_22
REMARK    8  A    between atoms: C_23  and  O_24
REMARK                            x       y       z     vdW  Elec       q    Type
REMARK                         _______ _______ _______ _____ _____    ______ ____
ROOT
ATOM      1  C   UNL     1       1.869   8.263  18.581  0.00  0.00    +0.000 C 
ATOM      2  O   UNL     1       3.189   8.235  17.951  0.00  0.00    +0.000 OA
ATOM      3  C   UNL     1       3.609   6.931  17.793  0.00  0.00    +0.000 A 
ATOM      4  C   UNL     1       4.604   6.647  16.867  0.00  0.00    +0.000 A 
ATOM      5  C   UNL     1       4.819   5.315  16.514  0.00  0.00    +0.000 A 
ATOM      6  C   UNL     1       4.021   4.293  17.020  0.00  0.00    +0.000 A 
ATOM      7  C   UNL     1       3.139   4.559  18.064  0.00  0.00    +0.000 A 
ATOM      8  C   UNL     1       3.012   5.872  18.506  0.00  0.00    +0.000 A 
ATOM      9  C   UNL     1       2.267   6.227  19.741  0.00  0.00    +0.000 C 
ATOM     10  O   UNL     1       1.866   5.356  20.507  0.00  0.00    +0.000 OA
ATOM     11  C   UNL     1       2.113   7.727  20.005  0.00  0.00    +0.000 C 
ENDROOT
BRANCH   1  14
ATOM     12  C   UNL     1      -1.191  10.406  17.885  0.00  0.00    +0.000 A 
ATOM     13  C   UNL     1      -0.250   9.364  17.809  0.00  0.00    +0.000 A 
ATOM     14  C   UNL     1       1.073   9.519  18.255  0.00  0.00    +0.000 A 
ATOM     15  C   UNL     1       1.453  10.789  18.706  0.00  0.00    +0.000 A 
ATOM     16  C   UNL     1       0.542  11.856  18.784  0.00  0.00    +0.000 A 
ATOM     17  C   UNL     1      -0.787  11.653  18.389  0.00  0.00    +0.000 A 
BRANCH  12  19
ATOM     18  C   UNL     1      -2.725  10.032  16.072  0.00  0.00    +0.000 C 
ATOM     19  O   UNL     1      -2.434  10.018  17.460  0.00  0.00    +0.000 OA
ENDBRANCH  12  19
BRANCH  16  20
ATOM     20  O   UNL     1       1.110  12.994  19.302  0.00  0.00    +0.000 OA
ATOM     21  C   UNL     1       2.151  13.647  18.594  0.00  0.00    +0.000 C 
ENDBRANCH  16  20
BRANCH  17  22
ATOM     22  O   UNL     1      -1.702  12.660  18.510  0.00  0.00    +0.000 OA
ATOM     23  H   UNL     1      -1.327  13.259  19.170  0.00  0.00    +0.000 HD
ENDBRANCH  17  22
ENDBRANCH   1  14
BRANCH   5  24
ATOM     24  O   UNL     1       5.818   4.963  15.656  0.00  0.00    +0.000 OA
ATOM     25  H   UNL     1       6.196   4.121  15.964  0.00  0.00    +0.000 HD
ENDBRANCH   5  24
BRANCH  11  26
ATOM     26  O   UNL     1       1.100   7.941  20.967  0.00  0.00    +0.000 OA
ATOM     27  H   UNL     1       1.559   8.054  21.823  0.00  0.00    +0.000 HD
ENDBRANCH  11  26
TORSDOF 6
ENDMDL
