MODEL 1
REMARK VINA RESULT:      -4.7      0.000      0.000
REMARK  Name = 
REMARK  2 active torsions:
REMARK  status: ('A' for Active; 'I' for Inactive)
REMARK    1  A    between atoms: N_1  and  C_2
REMARK    2  A    between atoms: C_6  and  N_7
REMARK                            x       y       z     vdW  Elec       q    Type
REMARK                         _______ _______ _______ _____ _____    ______ ____
ROOT
ATOM      1  C   UNL     1       5.997   3.947  15.748  0.00  0.00    +0.000 A 
ATOM      2  C   UNL     1       4.651   3.877  16.109  0.00  0.00    +0.000 A 
ATOM      3  C   UNL     1       4.225   4.318  17.369  0.00  0.00    +0.000 A 
ATOM      4 BR   UNL     1       2.374   4.160  17.781  0.00  0.00    +0.000 Br
ATOM      5  C   UNL     1       5.130   4.848  18.304  0.00  0.00    +0.000 A 
ATOM      6  C   UNL     1       6.465   4.993  17.890  0.00  0.00    +0.000 A 
ATOM      7 BR   UNL     1       7.763   5.787  19.034  0.00  0.00    +0.000 Br
ATOM      8  C   UNL     1       6.892   4.553  16.629  0.00  0.00    +0.000 A 
ENDROOT
BRANCH   1   9
ATOM      9  N   UNL     1       6.393   3.640  14.442  0.00  0.00    +0.000 N 
ATOM     10  H   UNL     1       5.655   3.264  13.853  0.00  0.00    +0.000 HD
ATOM     11  H   UNL     1       7.251   3.101  14.376  0.00  0.00    +0.000 HD
ENDBRANCH   1   9
BRANCH   5  12
ATOM     12  N   UNL     1       4.676   5.431  19.505  0.00  0.00    +0.000 N 
ATOM     13  H   UNL     1       3.862   6.029  19.382  0.00  0.00    +0.000 HD
ATOM     14  H   UNL     1       4.581   4.766  20.268  0.00  0.00    +0.000 HD
ENDBRANCH   5  12
TORSDOF 2
ENDMDL
MODEL 2
REMARK VINA RESULT:      -4.7      3.125      3.795
REMARK  Name = 
REMARK  2 active torsions:
REMARK  status: ('A' for Active; 'I' for Inactive)
REMARK    1  A    between atoms: N_1  and  C_2
REMARK    2  A    between atoms: C_6  and  N_7
REMARK                            x       y       z     vdW  Elec       q    Type
REMARK                         _______ _______ _______ _____ _____    ______ ____
ROOT
ATOM      1  C   UNL     1       3.974   3.937  17.860  0.00  0.00    +0.000 A 
ATOM      2  C   UNL     1       3.716   5.289  17.628  0.00  0.00    +0.000 A 
ATOM      3  C   UNL     1       2.949   6.036  18.532  0.00  0.00    +0.000 A 
ATOM      4 BR   UNL     1       2.631   7.867  18.119  0.00  0.00    +0.000 Br
ATOM      5  C   UNL     1       2.420   5.457  19.697  0.00  0.00    +0.000 A 
ATOM      6  C   UNL     1       2.765   4.120  19.959  0.00  0.00    +0.000 A 
ATOM      7 BR   UNL     1       2.188   3.256  21.554  0.00  0.00    +0.000 Br
ATOM      8  C   UNL     1       3.533   3.372  19.056  0.00  0.00    +0.000 A 
ENDROOT
BRANCH   1   9
ATOM      9  N   UNL     1       4.856   3.237  17.031  0.00  0.00    +0.000 N 
ATOM     10  H   UNL     1       5.813   3.578  17.047  0.00  0.00    +0.000 HD
ATOM     11  H   UNL     1       4.517   3.085  16.086  0.00  0.00    +0.000 HD
ENDBRANCH   1   9
BRANCH   5  12
ATOM     12  N   UNL     1       1.784   6.247  20.677  0.00  0.00    +0.000 N 
ATOM     13  H   UNL     1       2.141   7.197  20.726  0.00  0.00    +0.000 HD
ATOM     14  H   UNL     1       0.769   6.194  20.643  0.00  0.00    +0.000 HD
ENDBRANCH   5  12
TORSDOF 2
ENDMDL
MODEL 3
REMARK VINA RESULT:      -4.6      0.141      2.995
REMARK  Name = 
REMARK  2 active torsions:
REMARK  status: ('A' for Active; 'I' for Inactive)
REMARK    1  A    between atoms: N_1  and  C_2
REMARK    2  A    between atoms: C_6  and  N_7
REMARK                            x       y       z     vdW  Elec       q    Type
REMARK                         _______ _______ _______ _____ _____    ______ ____
ROOT
ATOM      1  C   UNL     1       5.955   4.157  15.667  0.00  0.00    +0.000 A 
ATOM      2  C   UNL     1       6.875   4.662  16.587  0.00  0.00    +0.000 A 
ATOM      3  C   UNL     1       6.455   5.108  17.848  0.00  0.00    +0.000 A 
ATOM      4 BR   UNL     1       7.779   5.804  19.025  0.00  0.00    +0.000 Br
ATOM      5  C   UNL     1       5.104   5.058  18.229  0.00  0.00    +0.000 A 
ATOM      6  C   UNL     1       4.207   4.464  17.325  0.00  0.00    +0.000 A 
ATOM      7 BR   UNL     1       2.368   4.251  17.771  0.00  0.00    +0.000 Br
ATOM      8  C   UNL     1       4.626   4.016  16.065  0.00  0.00    +0.000 A 
ENDROOT
BRANCH   1   9
ATOM      9  N   UNL     1       6.398   3.583  14.472  0.00  0.00    +0.000 N 
ATOM     10  H   UNL     1       5.955   2.700  14.237  0.00  0.00    +0.000 HD
ATOM     11  H   UNL     1       7.408   3.546  14.370  0.00  0.00    +0.000 HD
ENDBRANCH   1   9
BRANCH   5  12
ATOM     12  N   UNL     1       4.710   5.361  19.549  0.00  0.00    +0.000 N 
ATOM     13  H   UNL     1       4.541   4.537  20.120  0.00  0.00    +0.000 HD
ATOM     14  H   UNL     1       5.301   6.055  19.998  0.00  0.00    +0.000 HD
ENDBRANCH   5  12
TORSDOF 2
ENDMDL
MODEL 4
REMARK VINA RESULT:      -4.6      2.970      4.000
REMARK  Name = 
REMARK  2 active torsions:
REMARK  status: ('A' for Active; 'I' for Inactive)
REMARK    1  A    between atoms: N_1  and  C_2
REMARK    2  A    between atoms: C_6  and  N_7
REMARK                            x       y       z     vdW  Elec       q    Type
REMARK                         _______ _______ _______ _____ _____    ______ ____
ROOT
ATOM      1  C   UNL     1       2.835   6.365  19.048  0.00  0.00    +0.000 A 
ATOM      2  C   UNL     1       2.379   5.411  19.959  0.00  0.00    +0.000 A 
ATOM      3  C   UNL     1       3.036   4.181  20.096  0.00  0.00    +0.000 A 
ATOM      4 BR   UNL     1       2.326   2.934  21.347  0.00  0.00    +0.000 Br
ATOM      5  C   UNL     1       4.172   3.869  19.332  0.00  0.00    +0.000 A 
ATOM      6  C   UNL     1       4.669   4.875  18.486  0.00  0.00    +0.000 A 
ATOM      7 BR   UNL     1       6.258   4.604  17.472  0.00  0.00    +0.000 Br
ATOM      8  C   UNL     1       4.013   6.106  18.349  0.00  0.00    +0.000 A 
ENDROOT
BRANCH   1   9
ATOM      9  N   UNL     1       2.263   7.641  19.019  0.00  0.00    +0.000 N 
ATOM     10  H   UNL     1       2.076   8.000  18.088  0.00  0.00    +0.000 HD
ATOM     11  H   UNL     1       2.728   8.325  19.610  0.00  0.00    +0.000 HD
ENDBRANCH   1   9
BRANCH   5  12
ATOM     12  N   UNL     1       4.919   2.699  19.583  0.00  0.00    +0.000 N 
ATOM     13  H   UNL     1       4.978   2.077  18.781  0.00  0.00    +0.000 HD
ATOM     14  H   UNL     1       5.815   2.878  20.028  0.00  0.00    +0.000 HD
ENDBRANCH   5  12
TORSDOF 2
ENDMDL
MODEL 5
REMARK VINA RESULT:      -4.6      2.028      3.923
REMARK  Name = 
REMARK  2 active torsions:
REMARK  status: ('A' for Active; 'I' for Inactive)
REMARK    1  A    between atoms: N_1  and  C_2
REMARK    2  A    between atoms: C_6  and  N_7
REMARK                            x       y       z     vdW  Elec       q    Type
REMARK                         _______ _______ _______ _____ _____    ______ ____
ROOT
ATOM      1  C   UNL     1       4.447   3.674  18.096  0.00  0.00    +0.000 A 
ATOM      2  C   UNL     1       5.428   4.396  18.777  0.00  0.00    +0.000 A 
ATOM      3  C   UNL     1       6.490   4.991  18.082  0.00  0.00    +0.000 A 
ATOM      4 BR   UNL     1       7.793   5.934  19.099  0.00  0.00    +0.000 Br
ATOM      5  C   UNL     1       6.600   4.889  16.686  0.00  0.00    +0.000 A 
ATOM      6  C   UNL     1       5.556   4.236  16.009  0.00  0.00    +0.000 A 
ATOM      7 BR   UNL     1       5.545   4.118  14.108  0.00  0.00    +0.000 Br
ATOM      8  C   UNL     1       4.493   3.641  16.702  0.00  0.00    +0.000 A 
ENDROOT
BRANCH   1   9
ATOM      9  N   UNL     1       3.318   3.206  18.776  0.00  0.00    +0.000 N 
ATOM     10  H   UNL     1       3.060   3.751  19.593  0.00  0.00    +0.000 HD
ATOM     11  H   UNL     1       3.323   2.208  18.964  0.00  0.00    +0.000 HD
ENDBRANCH   1   9
BRANCH   5  12
ATOM     12  N   UNL     1       7.579   5.617  15.978  0.00  0.00    +0.000 N 
ATOM     13  H   UNL     1       8.443   5.744  16.499  0.00  0.00    +0.000 HD
ATOM     14  H   UNL     1       7.720   5.288  15.027  0.00  0.00    +0.000 HD
ENDBRANCH   5  12
TORSDOF 2
ENDMDL
MODEL 6
REMARK VINA RESULT:      -4.6      3.070      3.557
REMARK  Name = 
REMARK  2 active torsions:
REMARK  status: ('A' for Active; 'I' for Inactive)
REMARK    1  A    between atoms: N_1  and  C_2
REMARK    2  A    between atoms: C_6  and  N_7
REMARK                            x       y       z     vdW  Elec       q    Type
REMARK                         _______ _______ _______ _____ _____    ______ ____
ROOT
ATOM      1  C   UNL     1       4.189   3.927  17.987  0.00  0.00    +0.000 A 
ATOM      2  C   UNL     1       3.668   3.331  19.136  0.00  0.00    +0.000 A 
ATOM      3  C   UNL     1       2.899   4.076  20.041  0.00  0.00    +0.000 A 
ATOM      4 BR   UNL     1       2.253   3.184  21.594  0.00  0.00    +0.000 Br
ATOM      5  C   UNL     1       2.623   5.435  19.822  0.00  0.00    +0.000 A 
ATOM      6  C   UNL     1       3.079   5.994  18.616  0.00  0.00    +0.000 A 
ATOM      7 BR   UNL     1       2.683   7.801  18.164  0.00  0.00    +0.000 Br
ATOM      8  C   UNL     1       3.847   5.250  17.710  0.00  0.00    +0.000 A 
ENDROOT
BRANCH   1   9
ATOM      9  N   UNL     1       4.831   3.147  17.019  0.00  0.00    +0.000 N 
ATOM     10  H   UNL     1       5.834   3.051  17.150  0.00  0.00    +0.000 HD
ATOM     11  H   UNL     1       4.588   3.379  16.061  0.00  0.00    +0.000 HD
ENDBRANCH   1   9
BRANCH   5  12
ATOM     12  N   UNL     1       1.723   6.137  20.652  0.00  0.00    +0.000 N 
ATOM     13  H   UNL     1       1.164   6.823  20.152  0.00  0.00    +0.000 HD
ATOM     14  H   UNL     1       1.179   5.532  21.261  0.00  0.00    +0.000 HD
ENDBRANCH   5  12
TORSDOF 2
ENDMDL
MODEL 7
REMARK VINA RESULT:      -4.6      2.932      4.543
REMARK  Name = 
REMARK  2 active torsions:
REMARK  status: ('A' for Active; 'I' for Inactive)
REMARK    1  A    between atoms: N_1  and  C_2
REMARK    2  A    between atoms: C_6  and  N_7
REMARK                            x       y       z     vdW  Elec       q    Type
REMARK                         _______ _______ _______ _____ _____    ______ ____
ROOT
ATOM      1  C   UNL     1       2.948   6.388  19.052  0.00  0.00    +0.000 A 
ATOM      2  C   UNL     1       4.081   6.086  18.295  0.00  0.00    +0.000 A 
ATOM      3  C   UNL     1       4.749   4.866  18.464  0.00  0.00    +0.000 A 
ATOM      4 BR   UNL     1       6.299   4.554  17.405  0.00  0.00    +0.000 Br
ATOM      5  C   UNL     1       4.302   3.909  19.390  0.00  0.00    +0.000 A 
ATOM      6  C   UNL     1       3.110   4.192  20.078  0.00  0.00    +0.000 A 
ATOM      7 BR   UNL     1       2.355   2.930  21.287  0.00  0.00    +0.000 Br
ATOM      8  C   UNL     1       2.440   5.412  19.909  0.00  0.00    +0.000 A 
ENDROOT
BRANCH   1   9
ATOM      9  N   UNL     1       2.205   7.541  18.778  0.00  0.00    +0.000 N 
ATOM     10  H   UNL     1       2.532   8.378  19.252  0.00  0.00    +0.000 HD
ATOM     11  H   UNL     1       1.199   7.423  18.854  0.00  0.00    +0.000 HD
ENDBRANCH   1   9
BRANCH   5  12
ATOM     12  N   UNL     1       4.884   2.625  19.445  0.00  0.00    +0.000 N 
ATOM     13  H   UNL     1       5.805   2.579  19.018  0.00  0.00    +0.000 HD
ATOM     14  H   UNL     1       4.841   2.200  20.367  0.00  0.00    +0.000 HD
ENDBRANCH   5  12
TORSDOF 2
ENDMDL
MODEL 8
REMARK VINA RESULT:      -4.5      2.037      3.094
REMARK  Name = 
REMARK  2 active torsions:
REMARK  status: ('A' for Active; 'I' for Inactive)
REMARK    1  A    between atoms: N_1  and  C_2
REMARK    2  A    between atoms: C_6  and  N_7
REMARK                            x       y       z     vdW  Elec       q    Type
REMARK                         _______ _______ _______ _____ _____    ______ ____
ROOT
ATOM      1  C   UNL     1       4.432   3.753  18.079  0.00  0.00    +0.000 A 
ATOM      2  C   UNL     1       4.493   3.662  16.688  0.00  0.00    +0.000 A 
ATOM      3  C   UNL     1       5.499   4.323  15.971  0.00  0.00    +0.000 A 
ATOM      4 BR   UNL     1       5.486   4.160  14.075  0.00  0.00    +0.000 Br
ATOM      5  C   UNL     1       6.479   5.089  16.623  0.00  0.00    +0.000 A 
ATOM      6  C   UNL     1       6.455   5.096  18.028  0.00  0.00    +0.000 A 
ATOM      7 BR   UNL     1       7.789   6.021  19.024  0.00  0.00    +0.000 Br
ATOM      8  C   UNL     1       5.449   4.435  18.746  0.00  0.00    +0.000 A 
ENDROOT
BRANCH   1   9
ATOM      9  N   UNL     1       3.515   2.978  18.796  0.00  0.00    +0.000 N 
ATOM     10  H   UNL     1       3.829   2.035  19.005  0.00  0.00    +0.000 HD
ATOM     11  H   UNL     1       2.568   2.996  18.428  0.00  0.00    +0.000 HD
ENDBRANCH   1   9
BRANCH   5  12
ATOM     12  N   UNL     1       7.576   5.622  15.914  0.00  0.00    +0.000 N 
ATOM     13  H   UNL     1       8.132   4.915  15.440  0.00  0.00    +0.000 HD
ATOM     14  H   UNL     1       7.331   6.412  15.323  0.00  0.00    +0.000 HD
ENDBRANCH   5  12
TORSDOF 2
ENDMDL
MODEL 9
REMARK VINA RESULT:      -4.5      2.374      3.228
REMARK  Name = 
REMARK  2 active torsions:
REMARK  status: ('A' for Active; 'I' for Inactive)
REMARK    1  A    between atoms: N_1  and  C_2
REMARK    2  A    between atoms: C_6  and  N_7
REMARK                            x       y       z     vdW  Elec       q    Type
REMARK                         _______ _______ _______ _____ _____    ______ ____
ROOT
ATOM      1  C   UNL     1       7.073   5.337  18.816  0.00  0.00    +0.000 A 
ATOM      2  C   UNL     1       5.847   5.217  19.472  0.00  0.00    +0.000 A 
ATOM      3  C   UNL     1       4.705   4.790  18.782  0.00  0.00    +0.000 A 
ATOM      4 BR   UNL     1       3.073   4.681  19.755  0.00  0.00    +0.000 Br
ATOM      5  C   UNL     1       4.754   4.464  17.416  0.00  0.00    +0.000 A 
ATOM      6  C   UNL     1       6.014   4.505  16.794  0.00  0.00    +0.000 A 
ATOM      7 BR   UNL     1       6.221   3.992  14.972  0.00  0.00    +0.000 Br
ATOM      8  C   UNL     1       7.157   4.931  17.484  0.00  0.00    +0.000 A 
ENDROOT
BRANCH   1   9
ATOM      9  N   UNL     1       8.234   5.624  19.540  0.00  0.00    +0.000 N 
ATOM     10  H   UNL     1       8.103   6.274  20.310  0.00  0.00    +0.000 HD
ATOM     11  H   UNL     1       9.040   5.861  18.968  0.00  0.00    +0.000 HD
ENDBRANCH   1   9
BRANCH   5  12
ATOM     12  N   UNL     1       3.642   3.889  16.766  0.00  0.00    +0.000 N 
ATOM     13  H   UNL     1       3.689   2.875  16.707  0.00  0.00    +0.000 HD
ATOM     14  H   UNL     1       2.750   4.237  17.105  0.00  0.00    +0.000 HD
ENDBRANCH   5  12
TORSDOF 2
ENDMDL
