MODEL 1
REMARK VINA RESULT:      -7.5      0.000      0.000
REMARK  Name = 
REMARK  6 active torsions:
REMARK  status: ('A' for Active; 'I' for Inactive)
REMARK    1  A    between atoms: C_2  and  C_3
REMARK    2  A    between atoms: C_3  and  O_4
REMARK    3  A    between atoms: O_4  and  C_5
REMARK    4  A    between atoms: C_8  and  C_9
REMARK    5  A    between atoms: N_16  and  N_17
REMARK    6  A    between atoms: C_18  and  C_20
REMARK                            x       y       z     vdW  Elec       q    Type
REMARK                         _______ _______ _______ _____ _____    ______ ____
ROOT
ATOM      1  C   UNL     1       3.058   1.630  18.721  0.00  0.00    +0.000 C 
ENDROOT
BRANCH   1   3
ATOM      2  O   UNL     1       4.746   2.140  20.402  0.00  0.00    +0.000 OA
ATOM      3  C   UNL     1       4.288   2.362  19.277  0.00  0.00    +0.000 C 
ATOM      4  N   UNL     1       4.864   3.239  18.382  0.00  0.00    +0.000 N 
ATOM      5  H   UNL     1       4.388   3.481  17.509  0.00  0.00    +0.000 HD
BRANCH   4   6
ATOM      6  N   UNL     1       5.962   4.032  18.746  0.00  0.00    +0.000 N 
ATOM      7  C   UNL     1       6.609   4.716  17.729  0.00  0.00    +0.000 C 
ATOM      8  O   UNL     1       6.219   4.646  16.557  0.00  0.00    +0.000 OA
ATOM      9  H   UNL     1       6.424   3.809  19.629  0.00  0.00    +0.000 HD
BRANCH   7  10
ATOM     10  C   UNL     1       7.790   5.589  18.133  0.00  0.00    +0.000 C 
ATOM     11 CL   UNL     1       7.563   7.227  17.485  0.00  0.00    +0.000 Cl
ATOM     12 CL   UNL     1       7.950   5.624  19.897  0.00  0.00    +0.000 Cl
ENDBRANCH   7  10
ENDBRANCH   4   6
ENDBRANCH   1   3
BRANCH   1  13
ATOM     13  O   UNL     1       1.839   2.300  19.046  0.00  0.00    +0.000 OA
BRANCH  13  14
ATOM     14  C   UNL     1       1.892   3.669  19.075  0.00  0.00    +0.000 A 
ATOM     15  C   UNL     1       1.883   4.245  20.345  0.00  0.00    +0.000 A 
ATOM     16  C   UNL     1       1.948   5.636  20.500  0.00  0.00    +0.000 A 
ATOM     17  C   UNL     1       2.054   6.480  19.384  0.00  0.00    +0.000 A 
ATOM     18  C   UNL     1       2.064   5.886  18.110  0.00  0.00    +0.000 A 
ATOM     19  C   UNL     1       1.989   4.495  17.956  0.00  0.00    +0.000 A 
BRANCH  17  20
ATOM     20  C   UNL     1       2.169   7.980  19.572  0.00  0.00    +0.000 C 
ATOM     21  S   UNL     1       1.838   8.900  18.027  0.00  0.00    +0.000 S 
ATOM     22  C   UNL     1       0.392   9.815  18.618  0.00  0.00    +0.000 C 
ATOM     23  C   UNL     1       0.610  10.137  20.082  0.00  0.00    +0.000 C 
ATOM     24  S   UNL     1       1.091   8.600  20.906  0.00  0.00    +0.000 S 
ENDBRANCH  17  20
ENDBRANCH  13  14
ENDBRANCH   1  13
TORSDOF 6
ENDMDL
MODEL 2
REMARK VINA RESULT:      -7.5      7.313      9.464
REMARK  Name = 
REMARK  6 active torsions:
REMARK  status: ('A' for Active; 'I' for Inactive)
REMARK    1  A    between atoms: C_2  and  C_3
REMARK    2  A    between atoms: C_3  and  O_4
REMARK    3  A    between atoms: O_4  and  C_5
REMARK    4  A    between atoms: C_8  and  C_9
REMARK    5  A    between atoms: N_16  and  N_17
REMARK    6  A    between atoms: C_18  and  C_20
REMARK                            x       y       z     vdW  Elec       q    Type
REMARK                         _______ _______ _______ _____ _____    ______ ____
ROOT
ATOM      1  C   UNL     1       8.393   9.432  18.142  0.00  0.00    +0.000 C 
ENDROOT
BRANCH   1   3
ATOM      2  O   UNL     1       8.367   7.141  18.969  0.00  0.00    +0.000 OA
ATOM      3  C   UNL     1       8.143   7.920  18.039  0.00  0.00    +0.000 C 
ATOM      4  N   UNL     1       7.591   7.529  16.837  0.00  0.00    +0.000 N 
ATOM      5  H   UNL     1       7.531   8.185  16.053  0.00  0.00    +0.000 HD
BRANCH   4   6
ATOM      6  N   UNL     1       7.350   6.178  16.553  0.00  0.00    +0.000 N 
ATOM      7  C   UNL     1       6.033   5.750  16.596  0.00  0.00    +0.000 C 
ATOM      8  O   UNL     1       5.110   6.533  16.852  0.00  0.00    +0.000 OA
ATOM      9  H   UNL     1       8.134   5.533  16.665  0.00  0.00    +0.000 HD
BRANCH   7  10
ATOM     10  C   UNL     1       5.776   4.285  16.269  0.00  0.00    +0.000 C 
ATOM     11 CL   UNL     1       4.136   3.842  16.786  0.00  0.00    +0.000 Cl
ATOM     12 CL   UNL     1       5.992   3.999  14.533  0.00  0.00    +0.000 Cl
ENDBRANCH   7  10
ENDBRANCH   4   6
ENDBRANCH   1   3
BRANCH   1  13
ATOM     13  O   UNL     1       9.236   9.765  19.246  0.00  0.00    +0.000 OA
BRANCH  13  14
ATOM     14  C   UNL     1       9.926  10.944  19.142  0.00  0.00    +0.000 A 
ATOM     15  C   UNL     1      10.231  11.351  17.843  0.00  0.00    +0.000 A 
ATOM     16  C   UNL     1      10.922  12.547  17.612  0.00  0.00    +0.000 A 
ATOM     17  C   UNL     1      11.296  13.380  18.678  0.00  0.00    +0.000 A 
ATOM     18  C   UNL     1      10.981  12.959  19.981  0.00  0.00    +0.000 A 
ATOM     19  C   UNL     1      10.300  11.757  20.212  0.00  0.00    +0.000 A 
BRANCH  17  20
ATOM     20  C   UNL     1      12.004  14.693  18.406  0.00  0.00    +0.000 C 
ATOM     21  S   UNL     1      11.148  15.691  17.135  0.00  0.00    +0.000 S 
ATOM     22  C   UNL     1      10.770  17.116  18.187  0.00  0.00    +0.000 C 
ATOM     23  C   UNL     1      11.919  17.295  19.159  0.00  0.00    +0.000 C 
ATOM     24  S   UNL     1      12.239  15.685  19.919  0.00  0.00    +0.000 S 
ENDBRANCH  17  20
ENDBRANCH  13  14
ENDBRANCH   1  13
TORSDOF 6
ENDMDL
MODEL 3
REMARK VINA RESULT:      -7.4      6.922      8.856
REMARK  Name = 
REMARK  6 active torsions:
REMARK  status: ('A' for Active; 'I' for Inactive)
REMARK    1  A    between atoms: C_2  and  C_3
REMARK    2  A    between atoms: C_3  and  O_4
REMARK    3  A    between atoms: O_4  and  C_5
REMARK    4  A    between atoms: C_8  and  C_9
REMARK    5  A    between atoms: N_16  and  N_17
REMARK    6  A    between atoms: C_18  and  C_20
REMARK                            x       y       z     vdW  Elec       q    Type
REMARK                         _______ _______ _______ _____ _____    ______ ____
ROOT
ATOM      1  C   UNL     1       8.086   8.988  17.845  0.00  0.00    +0.000 C 
ENDROOT
BRANCH   1   3
ATOM      2  O   UNL     1       7.857   6.679  18.586  0.00  0.00    +0.000 OA
ATOM      3  C   UNL     1       7.560   7.547  17.760  0.00  0.00    +0.000 C 
ATOM      4  N   UNL     1       6.685   7.335  16.716  0.00  0.00    +0.000 N 
ATOM      5  H   UNL     1       6.559   8.045  15.988  0.00  0.00    +0.000 HD
BRANCH   4   6
ATOM      6  N   UNL     1       6.155   6.063  16.458  0.00  0.00    +0.000 N 
ATOM      7  C   UNL     1       6.790   5.301  15.490  0.00  0.00    +0.000 C 
ATOM      8  O   UNL     1       7.792   5.718  14.897  0.00  0.00    +0.000 OA
ATOM      9  H   UNL     1       5.182   5.902  16.724  0.00  0.00    +0.000 HD
BRANCH   7  10
ATOM     10  C   UNL     1       6.220   3.912  15.228  0.00  0.00    +0.000 C 
ATOM     11 CL   UNL     1       4.862   3.612  16.333  0.00  0.00    +0.000 Cl
ATOM     12 CL   UNL     1       5.705   3.771  13.539  0.00  0.00    +0.000 Cl
ENDBRANCH   7  10
ENDBRANCH   4   6
ENDBRANCH   1   3
BRANCH   1  13
ATOM     13  O   UNL     1       8.953   9.182  18.962  0.00  0.00    +0.000 OA
BRANCH  13  14
ATOM     14  C   UNL     1       9.512  10.427  19.083  0.00  0.00    +0.000 A 
ATOM     15  C   UNL     1       9.568  10.938  20.380  0.00  0.00    +0.000 A 
ATOM     16  C   UNL     1      10.131  12.196  20.629  0.00  0.00    +0.000 A 
ATOM     17  C   UNL     1      10.677  12.959  19.586  0.00  0.00    +0.000 A 
ATOM     18  C   UNL     1      10.616  12.432  18.285  0.00  0.00    +0.000 A 
ATOM     19  C   UNL     1      10.044  11.177  18.035  0.00  0.00    +0.000 A 
BRANCH  17  20
ATOM     20  C   UNL     1      11.323  14.299  19.880  0.00  0.00    +0.000 C 
ATOM     21  S   UNL     1      11.557  15.303  18.370  0.00  0.00    +0.000 S 
ATOM     22  C   UNL     1      10.499  16.689  18.858  0.00  0.00    +0.000 C 
ATOM     23  C   UNL     1      10.638  16.878  20.354  0.00  0.00    +0.000 C 
ATOM     24  S   UNL     1      10.401  15.259  21.127  0.00  0.00    +0.000 S 
ENDBRANCH  17  20
ENDBRANCH  13  14
ENDBRANCH   1  13
TORSDOF 6
ENDMDL
MODEL 4
REMARK VINA RESULT:      -7.4      4.095      5.685
REMARK  Name = 
REMARK  6 active torsions:
REMARK  status: ('A' for Active; 'I' for Inactive)
REMARK    1  A    between atoms: C_2  and  C_3
REMARK    2  A    between atoms: C_3  and  O_4
REMARK    3  A    between atoms: O_4  and  C_5
REMARK    4  A    between atoms: C_8  and  C_9
REMARK    5  A    between atoms: N_16  and  N_17
REMARK    6  A    between atoms: C_18  and  C_20
REMARK                            x       y       z     vdW  Elec       q    Type
REMARK                         _______ _______ _______ _____ _____    ______ ____
ROOT
ATOM      1  C   UNL     1       7.278   6.683  16.887  0.00  0.00    +0.000 C 
ENDROOT
BRANCH   1   3
ATOM      2  O   UNL     1       8.100   6.427  19.165  0.00  0.00    +0.000 OA
ATOM      3  C   UNL     1       7.930   7.165  18.191  0.00  0.00    +0.000 C 
ATOM      4  N   UNL     1       8.360   8.475  18.146  0.00  0.00    +0.000 N 
ATOM      5  H   UNL     1       8.096   9.084  17.367  0.00  0.00    +0.000 HD
BRANCH   4   6
ATOM      6  N   UNL     1       8.927   9.092  19.270  0.00  0.00    +0.000 N 
ATOM      7  C   UNL     1       9.360  10.400  19.118  0.00  0.00    +0.000 C 
ATOM      8  O   UNL     1       9.230  11.000  18.045  0.00  0.00    +0.000 OA
ATOM      9  H   UNL     1       9.294   8.481  20.001  0.00  0.00    +0.000 HD
BRANCH   7  10
ATOM     10  C   UNL     1       9.958  11.071  20.348  0.00  0.00    +0.000 C 
ATOM     11 CL   UNL     1      11.342  12.072  19.861  0.00  0.00    +0.000 Cl
ATOM     12 CL   UNL     1       8.729  12.048  21.170  0.00  0.00    +0.000 Cl
ENDBRANCH   7  10
ENDBRANCH   4   6
ENDBRANCH   1   3
BRANCH   1  13
ATOM     13  O   UNL     1       6.027   7.326  16.638  0.00  0.00    +0.000 OA
BRANCH  13  14
ATOM     14  C   UNL     1       4.931   6.765  17.238  0.00  0.00    +0.000 A 
ATOM     15  C   UNL     1       5.032   5.403  17.523  0.00  0.00    +0.000 A 
ATOM     16  C   UNL     1       3.980   4.722  18.148  0.00  0.00    +0.000 A 
ATOM     17  C   UNL     1       2.811   5.400  18.530  0.00  0.00    +0.000 A 
ATOM     18  C   UNL     1       2.723   6.772  18.239  0.00  0.00    +0.000 A 
ATOM     19  C   UNL     1       3.773   7.449  17.604  0.00  0.00    +0.000 A 
BRANCH  17  20
ATOM     20  C   UNL     1       1.701   4.657  19.246  0.00  0.00    +0.000 C 
ATOM     21  S   UNL     1       1.331   3.044  18.468  0.00  0.00    +0.000 S 
ATOM     22  C   UNL     1       1.755   2.008  19.892  0.00  0.00    +0.000 C 
ATOM     23  C   UNL     1       1.360   2.757  21.148  0.00  0.00    +0.000 C 
ATOM     24  S   UNL     1       2.049   4.425  21.022  0.00  0.00    +0.000 S 
ENDBRANCH  17  20
ENDBRANCH  13  14
ENDBRANCH   1  13
TORSDOF 6
ENDMDL
MODEL 5
REMARK VINA RESULT:      -7.3      0.765      1.277
REMARK  Name = 
REMARK  6 active torsions:
REMARK  status: ('A' for Active; 'I' for Inactive)
REMARK    1  A    between atoms: C_2  and  C_3
REMARK    2  A    between atoms: C_3  and  O_4
REMARK    3  A    between atoms: O_4  and  C_5
REMARK    4  A    between atoms: C_8  and  C_9
REMARK    5  A    between atoms: N_16  and  N_17
REMARK    6  A    between atoms: C_18  and  C_20
REMARK                            x       y       z     vdW  Elec       q    Type
REMARK                         _______ _______ _______ _____ _____    ______ ____
ROOT
ATOM      1  C   UNL     1       2.658   2.173  17.793  0.00  0.00    +0.000 C 
ENDROOT
BRANCH   1   3
ATOM      2  O   UNL     1       4.419   2.438  19.454  0.00  0.00    +0.000 OA
ATOM      3  C   UNL     1       4.023   2.655  18.306  0.00  0.00    +0.000 C 
ATOM      4  N   UNL     1       4.782   3.295  17.349  0.00  0.00    +0.000 N 
ATOM      5  H   UNL     1       4.372   3.558  16.448  0.00  0.00    +0.000 HD
BRANCH   4   6
ATOM      6  N   UNL     1       6.031   3.849  17.662  0.00  0.00    +0.000 N 
ATOM      7  C   UNL     1       6.140   5.229  17.606  0.00  0.00    +0.000 C 
ATOM      8  O   UNL     1       5.171   5.940  17.315  0.00  0.00    +0.000 OA
ATOM      9  H   UNL     1       6.844   3.237  17.580  0.00  0.00    +0.000 HD
BRANCH   7  10
ATOM     10  C   UNL     1       7.495   5.825  17.966  0.00  0.00    +0.000 C 
ATOM     11 CL   UNL     1       7.547   7.525  17.454  0.00  0.00    +0.000 Cl
ATOM     12 CL   UNL     1       7.785   5.679  19.708  0.00  0.00    +0.000 Cl
ENDBRANCH   7  10
ENDBRANCH   4   6
ENDBRANCH   1   3
BRANCH   1  13
ATOM     13  O   UNL     1       1.576   2.689  18.571  0.00  0.00    +0.000 OA
BRANCH  13  14
ATOM     14  C   UNL     1       1.692   3.993  18.974  0.00  0.00    +0.000 A 
ATOM     15  C   UNL     1       1.865   4.926  17.952  0.00  0.00    +0.000 A 
ATOM     16  C   UNL     1       1.981   6.291  18.242  0.00  0.00    +0.000 A 
ATOM     17  C   UNL     1       1.894   6.756  19.564  0.00  0.00    +0.000 A 
ATOM     18  C   UNL     1       1.717   5.806  20.583  0.00  0.00    +0.000 A 
ATOM     19  C   UNL     1       1.612   4.439  20.293  0.00  0.00    +0.000 A 
BRANCH  17  20
ATOM     20  C   UNL     1       1.976   8.242  19.855  0.00  0.00    +0.000 C 
ATOM     21  S   UNL     1       1.511   9.259  18.408  0.00  0.00    +0.000 S 
ATOM     22  C   UNL     1       0.081  10.077  19.162  0.00  0.00    +0.000 C 
ATOM     23  C   UNL     1       0.391  10.300  20.627  0.00  0.00    +0.000 C 
ATOM     24  S   UNL     1       0.975   8.726  21.301  0.00  0.00    +0.000 S 
ENDBRANCH  17  20
ENDBRANCH  13  14
ENDBRANCH   1  13
TORSDOF 6
ENDMDL
MODEL 6
REMARK VINA RESULT:      -7.3      2.990      3.762
REMARK  Name = 
REMARK  6 active torsions:
REMARK  status: ('A' for Active; 'I' for Inactive)
REMARK    1  A    between atoms: C_2  and  C_3
REMARK    2  A    between atoms: C_3  and  O_4
REMARK    3  A    between atoms: O_4  and  C_5
REMARK    4  A    between atoms: C_8  and  C_9
REMARK    5  A    between atoms: N_16  and  N_17
REMARK    6  A    between atoms: C_18  and  C_20
REMARK                            x       y       z     vdW  Elec       q    Type
REMARK                         _______ _______ _______ _____ _____    ______ ____
ROOT
ATOM      1  C   UNL     1       4.728   5.441  19.305  0.00  0.00    +0.000 C 
ENDROOT
BRANCH   1   3
ATOM      2  O   UNL     1       6.688   4.331  18.379  0.00  0.00    +0.000 OA
ATOM      3  C   UNL     1       5.523   4.706  18.217  0.00  0.00    +0.000 C 
ATOM      4  N   UNL     1       4.797   4.453  17.072  0.00  0.00    +0.000 N 
ATOM      5  H   UNL     1       3.878   4.882  16.933  0.00  0.00    +0.000 HD
BRANCH   4   6
ATOM      6  N   UNL     1       5.386   3.840  15.958  0.00  0.00    +0.000 N 
ATOM      7  C   UNL     1       5.787   4.669  14.922  0.00  0.00    +0.000 C 
ATOM      8  O   UNL     1       5.651   5.897  14.991  0.00  0.00    +0.000 OA
ATOM      9  H   UNL     1       5.188   2.849  15.813  0.00  0.00    +0.000 HD
BRANCH   7  10
ATOM     10  C   UNL     1       6.444   3.999  13.722  0.00  0.00    +0.000 C 
ATOM     11 CL   UNL     1       5.188   3.440  12.597  0.00  0.00    +0.000 Cl
ATOM     12 CL   UNL     1       7.553   5.127  12.923  0.00  0.00    +0.000 Cl
ENDBRANCH   7  10
ENDBRANCH   4   6
ENDBRANCH   1   3
BRANCH   1  13
ATOM     13  O   UNL     1       3.328   5.471  19.024  0.00  0.00    +0.000 OA
BRANCH  13  14
ATOM     14  C   UNL     1       2.737   6.707  19.037  0.00  0.00    +0.000 A 
ATOM     15  C   UNL     1       2.822   7.428  17.846  0.00  0.00    +0.000 A 
ATOM     16  C   UNL     1       2.243   8.698  17.735  0.00  0.00    +0.000 A 
ATOM     17  C   UNL     1       1.537   9.263  18.809  0.00  0.00    +0.000 A 
ATOM     18  C   UNL     1       1.456   8.525  20.002  0.00  0.00    +0.000 A 
ATOM     19  C   UNL     1       2.046   7.259  20.115  0.00  0.00    +0.000 A 
BRANCH  17  20
ATOM     20  C   UNL     1       0.877  10.619  18.656  0.00  0.00    +0.000 C 
ATOM     21  S   UNL     1      -0.918  10.485  18.333  0.00  0.00    +0.000 S 
ATOM     22  C   UNL     1      -1.477  11.352  19.821  0.00  0.00    +0.000 C 
ATOM     23  C   UNL     1      -0.478  12.449  20.125  0.00  0.00    +0.000 C 
ATOM     24  S   UNL     1       1.169  11.703  20.094  0.00  0.00    +0.000 S 
ENDBRANCH  17  20
ENDBRANCH  13  14
ENDBRANCH   1  13
TORSDOF 6
ENDMDL
MODEL 7
REMARK VINA RESULT:      -7.2      4.725      6.482
REMARK  Name = 
REMARK  6 active torsions:
REMARK  status: ('A' for Active; 'I' for Inactive)
REMARK    1  A    between atoms: C_2  and  C_3
REMARK    2  A    between atoms: C_3  and  O_4
REMARK    3  A    between atoms: O_4  and  C_5
REMARK    4  A    between atoms: C_8  and  C_9
REMARK    5  A    between atoms: N_16  and  N_17
REMARK    6  A    between atoms: C_18  and  C_20
REMARK                            x       y       z     vdW  Elec       q    Type
REMARK                         _______ _______ _______ _____ _____    ______ ____
ROOT
ATOM      1  C   UNL     1       8.072   6.844  18.463  0.00  0.00    +0.000 C 
ENDROOT
BRANCH   1   3
ATOM      2  O   UNL     1       7.424   8.804  17.170  0.00  0.00    +0.000 OA
ATOM      3  C   UNL     1       8.119   8.328  18.072  0.00  0.00    +0.000 C 
ATOM      4  N   UNL     1       8.962   9.084  18.860  0.00  0.00    +0.000 N 
ATOM      5  H   UNL     1       9.607   8.633  19.516  0.00  0.00    +0.000 HD
BRANCH   4   6
ATOM      6  N   UNL     1       9.168  10.447  18.605  0.00  0.00    +0.000 N 
ATOM      7  C   UNL     1       9.385  11.267  19.701  0.00  0.00    +0.000 C 
ATOM      8  O   UNL     1       9.416  10.810  20.850  0.00  0.00    +0.000 OA
ATOM      9  H   UNL     1       8.824  10.811  17.715  0.00  0.00    +0.000 HD
BRANCH   7  10
ATOM     10  C   UNL     1       9.626  12.744  19.415  0.00  0.00    +0.000 C 
ATOM     11 CL   UNL     1      10.819  13.381  20.566  0.00  0.00    +0.000 Cl
ATOM     12 CL   UNL     1      10.178  12.962  17.746  0.00  0.00    +0.000 Cl
ENDBRANCH   7  10
ENDBRANCH   4   6
ENDBRANCH   1   3
BRANCH   1  13
ATOM     13  O   UNL     1       7.634   6.015  17.386  0.00  0.00    +0.000 OA
BRANCH  13  14
ATOM     14  C   UNL     1       6.559   5.206  17.646  0.00  0.00    +0.000 A 
ATOM     15  C   UNL     1       6.182   5.119  18.986  0.00  0.00    +0.000 A 
ATOM     16  C   UNL     1       5.088   4.333  19.372  0.00  0.00    +0.000 A 
ATOM     17  C   UNL     1       4.328   3.641  18.417  0.00  0.00    +0.000 A 
ATOM     18  C   UNL     1       4.717   3.739  17.070  0.00  0.00    +0.000 A 
ATOM     19  C   UNL     1       5.818   4.517  16.687  0.00  0.00    +0.000 A 
BRANCH  17  20
ATOM     20  C   UNL     1       3.120   2.831  18.847  0.00  0.00    +0.000 C 
ATOM     21  S   UNL     1       3.029   2.634  20.663  0.00  0.00    +0.000 S 
ATOM     22  C   UNL     1       1.450   3.488  20.901  0.00  0.00    +0.000 C 
ATOM     23  C   UNL     1       0.574   3.191  19.702  0.00  0.00    +0.000 C 
ATOM     24  S   UNL     1       1.555   3.526  18.219  0.00  0.00    +0.000 S 
ENDBRANCH  17  20
ENDBRANCH  13  14
ENDBRANCH   1  13
TORSDOF 6
ENDMDL
MODEL 8
REMARK VINA RESULT:      -7.2      4.843      6.731
REMARK  Name = 
REMARK  6 active torsions:
REMARK  status: ('A' for Active; 'I' for Inactive)
REMARK    1  A    between atoms: C_2  and  C_3
REMARK    2  A    between atoms: C_3  and  O_4
REMARK    3  A    between atoms: O_4  and  C_5
REMARK    4  A    between atoms: C_8  and  C_9
REMARK    5  A    between atoms: N_16  and  N_17
REMARK    6  A    between atoms: C_18  and  C_20
REMARK                            x       y       z     vdW  Elec       q    Type
REMARK                         _______ _______ _______ _____ _____    ______ ____
ROOT
ATOM      1  C   UNL     1       8.194   7.018  18.597  0.00  0.00    +0.000 C 
ENDROOT
BRANCH   1   3
ATOM      2  O   UNL     1       7.302   8.686  17.062  0.00  0.00    +0.000 OA
ATOM      3  C   UNL     1       8.062   8.427  18.000  0.00  0.00    +0.000 C 
ATOM      4  N   UNL     1       8.823   9.378  18.646  0.00  0.00    +0.000 N 
ATOM      5  H   UNL     1       9.525   9.102  19.339  0.00  0.00    +0.000 HD
BRANCH   4   6
ATOM      6  N   UNL     1       8.864  10.705  18.195  0.00  0.00    +0.000 N 
ATOM      7  C   UNL     1       9.809  11.537  18.774  0.00  0.00    +0.000 C 
ATOM      8  O   UNL     1      10.594  11.120  19.634  0.00  0.00    +0.000 OA
ATOM      9  H   UNL     1       8.023  11.070  17.745  0.00  0.00    +0.000 HD
BRANCH   7  10
ATOM     10  C   UNL     1       9.861  12.973  18.267  0.00  0.00    +0.000 C 
ATOM     11 CL   UNL     1      11.012  13.082  16.919  0.00  0.00    +0.000 Cl
ATOM     12 CL   UNL     1       8.247  13.503  17.765  0.00  0.00    +0.000 Cl
ENDBRANCH   7  10
ENDBRANCH   4   6
ENDBRANCH   1   3
BRANCH   1  13
ATOM     13  O   UNL     1       7.983   5.996  17.622  0.00  0.00    +0.000 OA
BRANCH  13  14
ATOM     14  C   UNL     1       6.780   5.344  17.682  0.00  0.00    +0.000 A 
ATOM     15  C   UNL     1       6.326   4.806  16.478  0.00  0.00    +0.000 A 
ATOM     16  C   UNL     1       5.114   4.106  16.419  0.00  0.00    +0.000 A 
ATOM     17  C   UNL     1       4.344   3.902  17.574  0.00  0.00    +0.000 A 
ATOM     18  C   UNL     1       4.814   4.446  18.781  0.00  0.00    +0.000 A 
ATOM     19  C   UNL     1       6.021   5.156  18.837  0.00  0.00    +0.000 A 
BRANCH  17  20
ATOM     20  C   UNL     1       3.058   3.102  17.500  0.00  0.00    +0.000 C 
ATOM     21  S   UNL     1       3.115   1.600  18.541  0.00  0.00    +0.000 S 
ATOM     22  C   UNL     1       1.751   2.043  19.646  0.00  0.00    +0.000 C 
ATOM     23  C   UNL     1       0.719   2.797  18.833  0.00  0.00    +0.000 C 
ATOM     24  S   UNL     1       1.591   4.098  17.927  0.00  0.00    +0.000 S 
ENDBRANCH  17  20
ENDBRANCH  13  14
ENDBRANCH   1  13
TORSDOF 6
ENDMDL
MODEL 9
REMARK VINA RESULT:      -7.2      3.705      4.500
REMARK  Name = 
REMARK  6 active torsions:
REMARK  status: ('A' for Active; 'I' for Inactive)
REMARK    1  A    between atoms: C_2  and  C_3
REMARK    2  A    between atoms: C_3  and  O_4
REMARK    3  A    between atoms: O_4  and  C_5
REMARK    4  A    between atoms: C_8  and  C_9
REMARK    5  A    between atoms: N_16  and  N_17
REMARK    6  A    between atoms: C_18  and  C_20
REMARK                            x       y       z     vdW  Elec       q    Type
REMARK                         _______ _______ _______ _____ _____    ______ ____
ROOT
ATOM      1  C   UNL     1       4.831   6.526  17.763  0.00  0.00    +0.000 C 
ENDROOT
BRANCH   1   3
ATOM      2  O   UNL     1       5.015   7.033  15.388  0.00  0.00    +0.000 OA
ATOM      3  C   UNL     1       4.981   6.176  16.275  0.00  0.00    +0.000 C 
ATOM      4  N   UNL     1       5.135   4.826  16.035  0.00  0.00    +0.000 N 
ATOM      5  H   UNL     1       4.983   4.143  16.782  0.00  0.00    +0.000 HD
BRANCH   4   6
ATOM      6  N   UNL     1       5.228   4.327  14.728  0.00  0.00    +0.000 N 
ATOM      7  C   UNL     1       6.495   4.250  14.173  0.00  0.00    +0.000 C 
ATOM      8  O   UNL     1       7.500   4.586  14.812  0.00  0.00    +0.000 OA
ATOM      9  H   UNL     1       4.386   4.370  14.152  0.00  0.00    +0.000 HD
BRANCH   7  10
ATOM     10  C   UNL     1       6.592   3.690  12.759  0.00  0.00    +0.000 C 
ATOM     11 CL   UNL     1       4.959   3.392  12.128  0.00  0.00    +0.000 Cl
ATOM     12 CL   UNL     1       7.479   4.814  11.715  0.00  0.00    +0.000 Cl
ENDBRANCH   7  10
ENDBRANCH   4   6
ENDBRANCH   1   3
BRANCH   1  13
ATOM     13  O   UNL     1       3.532   6.208  18.264  0.00  0.00    +0.000 OA
BRANCH  13  14
ATOM     14  C   UNL     1       2.715   7.273  18.540  0.00  0.00    +0.000 A 
ATOM     15  C   UNL     1       2.206   7.320  19.839  0.00  0.00    +0.000 A 
ATOM     16  C   UNL     1       1.371   8.369  20.242  0.00  0.00    +0.000 A 
ATOM     17  C   UNL     1       1.050   9.413  19.360  0.00  0.00    +0.000 A 
ATOM     18  C   UNL     1       1.571   9.354  18.057  0.00  0.00    +0.000 A 
ATOM     19  C   UNL     1       2.398   8.299  17.651  0.00  0.00    +0.000 A 
BRANCH  17  20
ATOM     20  C   UNL     1       0.181  10.564  19.828  0.00  0.00    +0.000 C 
ATOM     21  S   UNL     1       1.136  12.109  20.047  0.00  0.00    +0.000 S 
ATOM     22  C   UNL     1       0.255  13.092  18.808  0.00  0.00    +0.000 C 
ATOM     23  C   UNL     1      -1.199  12.669  18.824  0.00  0.00    +0.000 C 
ATOM     24  S   UNL     1      -1.237  10.863  18.720  0.00  0.00    +0.000 S 
ENDBRANCH  17  20
ENDBRANCH  13  14
ENDBRANCH   1  13
TORSDOF 6
ENDMDL
