MODEL 1
REMARK VINA RESULT:      -6.2      0.000      0.000
REMARK  Name = 
REMARK  5 active torsions:
REMARK  status: ('A' for Active; 'I' for Inactive)
REMARK    1  A    between atoms: C_1  and  C_2
REMARK    2  A    between atoms: C_2  and  N_3
REMARK    3  A    between atoms: N_6  and  C_7
REMARK    4  A    between atoms: C_17  and  O_18
REMARK    5  A    between atoms: O_18  and  C_19
REMARK                            x       y       z     vdW  Elec       q    Type
REMARK                         _______ _______ _______ _____ _____    ______ ____
ROOT
ATOM      1  N   UNL     1       2.229   4.795  19.469  0.00  0.00    +0.000 N 
ATOM      2  C   UNL     1       3.184   5.343  18.604  0.00  0.00    +0.000 C 
ATOM      3  S   UNL     1       3.208   6.935  18.082  0.00  0.00    +0.000 S 
ATOM      4  N   UNL     1       4.023   4.316  18.196  0.00  0.00    +0.000 N 
ATOM      5  C   UNL     1       3.565   3.104  18.655  0.00  0.00    +0.000 C 
ATOM      6  O   UNL     1       3.986   1.988  18.362  0.00  0.00    +0.000 OA
ATOM      7  C   UNL     1       2.434   3.375  19.668  0.00  0.00    +0.000 C 
ENDROOT
BRANCH   4   8
ATOM      8  C   UNL     1       5.092   4.432  17.279  0.00  0.00    +0.000 A 
ATOM      9  C   UNL     1       4.896   4.021  15.953  0.00  0.00    +0.000 A 
ATOM     10  C   UNL     1       5.904   4.214  15.010  0.00  0.00    +0.000 A 
ATOM     11 CL   UNL     1       5.636   3.764  13.372  0.00  0.00    +0.000 Cl
ATOM     12  C   UNL     1       7.121   4.787  15.378  0.00  0.00    +0.000 A 
ATOM     13  C   UNL     1       7.344   5.146  16.708  0.00  0.00    +0.000 A 
ATOM     14  C   UNL     1       6.337   4.962  17.659  0.00  0.00    +0.000 A 
ATOM     15 CL   UNL     1       6.726   5.298  19.312  0.00  0.00    +0.000 Cl
ENDBRANCH   4   8
BRANCH   1  17
ATOM     16  C   UNL     1       1.429   6.565  20.999  0.00  0.00    +0.000 C 
ATOM     17  C   UNL     1       1.052   5.456  20.029  0.00  0.00    +0.000 C 
ENDBRANCH   1  17
BRANCH   7  18
ATOM     18  O   UNL     1       2.741   3.194  21.032  0.00  0.00    +0.000 OA
ATOM     19  C   UNL     1       1.700   2.561  21.760  0.00  0.00    +0.000 C 
ENDBRANCH   7  18
TORSDOF 3
ENDMDL
MODEL 2
REMARK VINA RESULT:      -6.0      2.278      3.369
REMARK  Name = 
REMARK  5 active torsions:
REMARK  status: ('A' for Active; 'I' for Inactive)
REMARK    1  A    between atoms: C_1  and  C_2
REMARK    2  A    between atoms: C_2  and  N_3
REMARK    3  A    between atoms: N_6  and  C_7
REMARK    4  A    between atoms: C_17  and  O_18
REMARK    5  A    between atoms: O_18  and  C_19
REMARK                            x       y       z     vdW  Elec       q    Type
REMARK                         _______ _______ _______ _____ _____    ______ ____
ROOT
ATOM      1  N   UNL     1       2.313   3.844  18.138  0.00  0.00    +0.000 N 
ATOM      2  C   UNL     1       3.205   4.811  18.616  0.00  0.00    +0.000 C 
ATOM      3  S   UNL     1       2.814   6.034  19.691  0.00  0.00    +0.000 S 
ATOM      4  N   UNL     1       4.418   4.624  17.966  0.00  0.00    +0.000 N 
ATOM      5  C   UNL     1       4.302   3.663  16.990  0.00  0.00    +0.000 C 
ATOM      6  O   UNL     1       5.137   3.357  16.144  0.00  0.00    +0.000 OA
ATOM      7  C   UNL     1       2.934   2.973  17.161  0.00  0.00    +0.000 C 
ENDROOT
BRANCH   4   8
ATOM      8  C   UNL     1       5.575   5.421  18.123  0.00  0.00    +0.000 A 
ATOM      9  C   UNL     1       6.469   5.119  19.160  0.00  0.00    +0.000 A 
ATOM     10  C   UNL     1       7.663   5.831  19.275  0.00  0.00    +0.000 A 
ATOM     11 CL   UNL     1       8.785   5.417  20.511  0.00  0.00    +0.000 Cl
ATOM     12  C   UNL     1       7.964   6.862  18.387  0.00  0.00    +0.000 A 
ATOM     13  C   UNL     1       7.051   7.206  17.388  0.00  0.00    +0.000 A 
ATOM     14  C   UNL     1       5.856   6.494  17.260  0.00  0.00    +0.000 A 
ATOM     15 CL   UNL     1       4.709   7.057  16.093  0.00  0.00    +0.000 Cl
ENDBRANCH   4   8
BRANCH   1  17
ATOM     16  C   UNL     1       0.607   3.074  19.754  0.00  0.00    +0.000 C 
ATOM     17  C   UNL     1       0.882   3.741  18.414  0.00  0.00    +0.000 C 
ENDBRANCH   1  17
BRANCH   7  18
ATOM     18  O   UNL     1       2.937   1.676  17.716  0.00  0.00    +0.000 OA
ATOM     19  C   UNL     1       3.857   1.529  18.786  0.00  0.00    +0.000 C 
ENDBRANCH   7  18
TORSDOF 3
ENDMDL
MODEL 3
REMARK VINA RESULT:      -5.9      2.183      2.787
REMARK  Name = 
REMARK  5 active torsions:
REMARK  status: ('A' for Active; 'I' for Inactive)
REMARK    1  A    between atoms: C_1  and  C_2
REMARK    2  A    between atoms: C_2  and  N_3
REMARK    3  A    between atoms: N_6  and  C_7
REMARK    4  A    between atoms: C_17  and  O_18
REMARK    5  A    between atoms: O_18  and  C_19
REMARK                            x       y       z     vdW  Elec       q    Type
REMARK                         _______ _______ _______ _____ _____    ______ ____
ROOT
ATOM      1  N   UNL     1       3.111   4.822  19.383  0.00  0.00    +0.000 N 
ATOM      2  C   UNL     1       3.788   4.112  18.385  0.00  0.00    +0.000 C 
ATOM      3  S   UNL     1       3.865   2.442  18.276  0.00  0.00    +0.000 S 
ATOM      4  N   UNL     1       4.448   5.034  17.583  0.00  0.00    +0.000 N 
ATOM      5  C   UNL     1       4.334   6.300  18.106  0.00  0.00    +0.000 C 
ATOM      6  O   UNL     1       4.910   7.317  17.730  0.00  0.00    +0.000 OA
ATOM      7  C   UNL     1       3.297   6.253  19.248  0.00  0.00    +0.000 C 
ENDROOT
BRANCH   4   8
ATOM      8  C   UNL     1       5.288   4.731  16.489  0.00  0.00    +0.000 A 
ATOM      9  C   UNL     1       4.704   4.369  15.266  0.00  0.00    +0.000 A 
ATOM     10  C   UNL     1       5.510   4.158  14.148  0.00  0.00    +0.000 A 
ATOM     11 CL   UNL     1       4.785   3.773  12.636  0.00  0.00    +0.000 Cl
ATOM     12  C   UNL     1       6.896   4.274  14.239  0.00  0.00    +0.000 A 
ATOM     13  C   UNL     1       7.488   4.578  15.466  0.00  0.00    +0.000 A 
ATOM     14  C   UNL     1       6.688   4.798  16.591  0.00  0.00    +0.000 A 
ATOM     15 CL   UNL     1       7.487   5.033  18.108  0.00  0.00    +0.000 Cl
ENDBRANCH   4   8
BRANCH   1  17
ATOM     16  C   UNL     1       0.970   3.901  20.210  0.00  0.00    +0.000 C 
ATOM     17  C   UNL     1       2.407   4.277  20.541  0.00  0.00    +0.000 C 
ENDBRANCH   1  17
BRANCH   7  18
ATOM     18  O   UNL     1       2.027   6.805  18.981  0.00  0.00    +0.000 OA
ATOM     19  C   UNL     1       1.765   7.985  19.724  0.00  0.00    +0.000 C 
ENDBRANCH   7  18
TORSDOF 3
ENDMDL
MODEL 4
REMARK VINA RESULT:      -5.9      1.052      1.304
REMARK  Name = 
REMARK  5 active torsions:
REMARK  status: ('A' for Active; 'I' for Inactive)
REMARK    1  A    between atoms: C_1  and  C_2
REMARK    2  A    between atoms: C_2  and  N_3
REMARK    3  A    between atoms: N_6  and  C_7
REMARK    4  A    between atoms: C_17  and  O_18
REMARK    5  A    between atoms: O_18  and  C_19
REMARK                            x       y       z     vdW  Elec       q    Type
REMARK                         _______ _______ _______ _____ _____    ______ ____
ROOT
ATOM      1  N   UNL     1       2.873   4.403  19.269  0.00  0.00    +0.000 N 
ATOM      2  C   UNL     1       3.694   4.999  18.305  0.00  0.00    +0.000 C 
ATOM      3  S   UNL     1       3.742   6.639  17.963  0.00  0.00    +0.000 S 
ATOM      4  N   UNL     1       4.368   3.986  17.638  0.00  0.00    +0.000 N 
ATOM      5  C   UNL     1       3.912   2.753  18.040  0.00  0.00    +0.000 C 
ATOM      6  O   UNL     1       4.189   1.661  17.554  0.00  0.00    +0.000 OA
ATOM      7  C   UNL     1       3.004   2.960  19.271  0.00  0.00    +0.000 C 
ENDROOT
BRANCH   4   8
ATOM      8  C   UNL     1       5.261   4.155  16.556  0.00  0.00    +0.000 A 
ATOM      9  C   UNL     1       4.821   3.844  15.261  0.00  0.00    +0.000 A 
ATOM     10  C   UNL     1       5.652   4.093  14.168  0.00  0.00    +0.000 A 
ATOM     11 CL   UNL     1       5.086   3.766  12.577  0.00  0.00    +0.000 Cl
ATOM     12  C   UNL     1       6.928   4.621  14.352  0.00  0.00    +0.000 A 
ATOM     13  C   UNL     1       7.393   4.879  15.642  0.00  0.00    +0.000 A 
ATOM     14  C   UNL     1       6.566   4.639  16.743  0.00  0.00    +0.000 A 
ATOM     15 CL   UNL     1       7.250   4.849  18.319  0.00  0.00    +0.000 Cl
ENDBRANCH   4   8
BRANCH   1  17
ATOM     16  C   UNL     1       0.701   4.128  20.419  0.00  0.00    +0.000 C 
ATOM     17  C   UNL     1       1.868   5.053  20.107  0.00  0.00    +0.000 C 
ENDBRANCH   1  17
BRANCH   7  18
ATOM     18  O   UNL     1       3.537   2.601  20.525  0.00  0.00    +0.000 OA
ATOM     19  C   UNL     1       4.786   1.934  20.430  0.00  0.00    +0.000 C 
ENDBRANCH   7  18
TORSDOF 3
ENDMDL
MODEL 5
REMARK VINA RESULT:      -5.6      3.259      5.794
REMARK  Name = 
REMARK  5 active torsions:
REMARK  status: ('A' for Active; 'I' for Inactive)
REMARK    1  A    between atoms: C_1  and  C_2
REMARK    2  A    between atoms: C_2  and  N_3
REMARK    3  A    between atoms: N_6  and  C_7
REMARK    4  A    between atoms: C_17  and  O_18
REMARK    5  A    between atoms: O_18  and  C_19
REMARK                            x       y       z     vdW  Elec       q    Type
REMARK                         _______ _______ _______ _____ _____    ______ ____
ROOT
ATOM      1  N   UNL     1       5.677   4.359  15.821  0.00  0.00    +0.000 N 
ATOM      2  C   UNL     1       4.541   4.606  16.600  0.00  0.00    +0.000 C 
ATOM      3  S   UNL     1       3.163   3.653  16.620  0.00  0.00    +0.000 S 
ATOM      4  N   UNL     1       4.732   5.814  17.257  0.00  0.00    +0.000 N 
ATOM      5  C   UNL     1       5.888   6.421  16.827  0.00  0.00    +0.000 C 
ATOM      6  O   UNL     1       6.278   7.554  17.095  0.00  0.00    +0.000 OA
ATOM      7  C   UNL     1       6.667   5.407  15.965  0.00  0.00    +0.000 C 
ENDROOT
BRANCH   4   8
ATOM      8  C   UNL     1       3.801   6.453  18.106  0.00  0.00    +0.000 A 
ATOM      9  C   UNL     1       3.223   7.661  17.688  0.00  0.00    +0.000 A 
ATOM     10  C   UNL     1       2.232   8.261  18.466  0.00  0.00    +0.000 A 
ATOM     11 CL   UNL     1       1.482   9.709  17.920  0.00  0.00    +0.000 Cl
ATOM     12  C   UNL     1       1.831   7.687  19.671  0.00  0.00    +0.000 A 
ATOM     13  C   UNL     1       2.444   6.517  20.121  0.00  0.00    +0.000 A 
ATOM     14  C   UNL     1       3.432   5.904  19.345  0.00  0.00    +0.000 A 
ATOM     15 CL   UNL     1       4.248   4.536  20.022  0.00  0.00    +0.000 Cl
ENDBRANCH   4   8
BRANCH   1  17
ATOM     16  C   UNL     1       6.023   3.832  13.430  0.00  0.00    +0.000 C 
ATOM     17  C   UNL     1       5.871   3.290  14.844  0.00  0.00    +0.000 C 
ENDBRANCH   1  17
BRANCH   7  18
ATOM     18  O   UNL     1       7.806   4.814  16.549  0.00  0.00    +0.000 OA
ATOM     19  C   UNL     1       7.699   4.670  17.957  0.00  0.00    +0.000 C 
ENDBRANCH   7  18
TORSDOF 3
ENDMDL
MODEL 6
REMARK VINA RESULT:      -5.6      1.939      2.506
REMARK  Name = 
REMARK  5 active torsions:
REMARK  status: ('A' for Active; 'I' for Inactive)
REMARK    1  A    between atoms: C_1  and  C_2
REMARK    2  A    between atoms: C_2  and  N_3
REMARK    3  A    between atoms: N_6  and  C_7
REMARK    4  A    between atoms: C_17  and  O_18
REMARK    5  A    between atoms: O_18  and  C_19
REMARK                            x       y       z     vdW  Elec       q    Type
REMARK                         _______ _______ _______ _____ _____    ______ ____
ROOT
ATOM      1  N   UNL     1       2.899   4.081  20.376  0.00  0.00    +0.000 N 
ATOM      2  C   UNL     1       4.001   3.650  19.628  0.00  0.00    +0.000 C 
ATOM      3  S   UNL     1       4.935   2.303  19.978  0.00  0.00    +0.000 S 
ATOM      4  N   UNL     1       4.224   4.585  18.627  0.00  0.00    +0.000 N 
ATOM      5  C   UNL     1       3.395   5.671  18.784  0.00  0.00    +0.000 C 
ATOM      6  O   UNL     1       3.428   6.729  18.163  0.00  0.00    +0.000 OA
ATOM      7  C   UNL     1       2.351   5.320  19.864  0.00  0.00    +0.000 C 
ENDROOT
BRANCH   4   8
ATOM      8  C   UNL     1       5.274   4.554  17.681  0.00  0.00    +0.000 A 
ATOM      9  C   UNL     1       5.011   4.062  16.394  0.00  0.00    +0.000 A 
ATOM     10  C   UNL     1       6.004   4.109  15.417  0.00  0.00    +0.000 A 
ATOM     11 CL   UNL     1       5.659   3.560  13.824  0.00  0.00    +0.000 Cl
ATOM     12  C   UNL     1       7.269   4.615  15.714  0.00  0.00    +0.000 A 
ATOM     13  C   UNL     1       7.555   5.054  17.007  0.00  0.00    +0.000 A 
ATOM     14  C   UNL     1       6.564   5.016  17.992  0.00  0.00    +0.000 A 
ATOM     15 CL   UNL     1       7.021   5.444  19.606  0.00  0.00    +0.000 Cl
ENDBRANCH   4   8
BRANCH   1  17
ATOM     16  C   UNL     1       1.312   2.460  21.359  0.00  0.00    +0.000 C 
ATOM     17  C   UNL     1       2.386   3.505  21.617  0.00  0.00    +0.000 C 
ENDBRANCH   1  17
BRANCH   7  18
ATOM     18  O   UNL     1       1.044   5.035  19.419  0.00  0.00    +0.000 OA
ATOM     19  C   UNL     1       1.015   4.268  18.226  0.00  0.00    +0.000 C 
ENDBRANCH   7  18
TORSDOF 3
ENDMDL
MODEL 7
REMARK VINA RESULT:      -5.5      3.426      4.529
REMARK  Name = 
REMARK  5 active torsions:
REMARK  status: ('A' for Active; 'I' for Inactive)
REMARK    1  A    between atoms: C_1  and  C_2
REMARK    2  A    between atoms: C_2  and  N_3
REMARK    3  A    between atoms: N_6  and  C_7
REMARK    4  A    between atoms: C_17  and  O_18
REMARK    5  A    between atoms: O_18  and  C_19
REMARK                            x       y       z     vdW  Elec       q    Type
REMARK                         _______ _______ _______ _____ _____    ______ ____
ROOT
ATOM      1  N   UNL     1       1.672   8.047  20.134  0.00  0.00    +0.000 N 
ATOM      2  C   UNL     1       2.222   6.784  19.886  0.00  0.00    +0.000 C 
ATOM      3  S   UNL     1       2.303   5.535  21.000  0.00  0.00    +0.000 S 
ATOM      4  N   UNL     1       2.762   6.801  18.607  0.00  0.00    +0.000 N 
ATOM      5  C   UNL     1       2.702   8.066  18.073  0.00  0.00    +0.000 C 
ATOM      6  O   UNL     1       3.214   8.459  17.028  0.00  0.00    +0.000 OA
ATOM      7  C   UNL     1       1.822   8.933  18.997  0.00  0.00    +0.000 C 
ENDROOT
BRANCH   4   8
ATOM      8  C   UNL     1       3.457   5.740  17.986  0.00  0.00    +0.000 A 
ATOM      9  C   UNL     1       4.846   5.845  17.821  0.00  0.00    +0.000 A 
ATOM     10  C   UNL     1       5.565   4.771  17.297  0.00  0.00    +0.000 A 
ATOM     11 CL   UNL     1       7.276   4.882  17.153  0.00  0.00    +0.000 Cl
ATOM     12  C   UNL     1       4.914   3.603  16.907  0.00  0.00    +0.000 A 
ATOM     13  C   UNL     1       3.525   3.513  17.014  0.00  0.00    +0.000 A 
ATOM     14  C   UNL     1       2.796   4.581  17.544  0.00  0.00    +0.000 A 
ATOM     15 CL   UNL     1       1.070   4.461  17.523  0.00  0.00    +0.000 Cl
ENDBRANCH   4   8
BRANCH   1  17
ATOM     16  C   UNL     1      -0.358   8.261  21.530  0.00  0.00    +0.000 C 
ATOM     17  C   UNL     1       1.129   8.550  21.394  0.00  0.00    +0.000 C 
ENDBRANCH   1  17
BRANCH   7  18
ATOM     18  O   UNL     1       0.523   9.236  18.542  0.00  0.00    +0.000 OA
ATOM     19  C   UNL     1       0.224  10.623  18.591  0.00  0.00    +0.000 C 
ENDBRANCH   7  18
TORSDOF 3
ENDMDL
MODEL 8
REMARK VINA RESULT:      -5.4      2.533      3.191
REMARK  Name = 
REMARK  5 active torsions:
REMARK  status: ('A' for Active; 'I' for Inactive)
REMARK    1  A    between atoms: C_1  and  C_2
REMARK    2  A    between atoms: C_2  and  N_3
REMARK    3  A    between atoms: N_6  and  C_7
REMARK    4  A    between atoms: C_17  and  O_18
REMARK    5  A    between atoms: O_18  and  C_19
REMARK                            x       y       z     vdW  Elec       q    Type
REMARK                         _______ _______ _______ _____ _____    ______ ____
ROOT
ATOM      1  N   UNL     1       2.403   6.372  19.355  0.00  0.00    +0.000 N 
ATOM      2  C   UNL     1       3.261   5.376  18.874  0.00  0.00    +0.000 C 
ATOM      3  S   UNL     1       3.353   3.814  19.472  0.00  0.00    +0.000 S 
ATOM      4  N   UNL     1       4.067   5.948  17.899  0.00  0.00    +0.000 N 
ATOM      5  C   UNL     1       3.856   7.304  17.829  0.00  0.00    +0.000 C 
ATOM      6  O   UNL     1       4.498   8.126  17.181  0.00  0.00    +0.000 OA
ATOM      7  C   UNL     1       2.616   7.638  18.684  0.00  0.00    +0.000 C 
ENDROOT
BRANCH   4   8
ATOM      8  C   UNL     1       5.105   5.297  17.194  0.00  0.00    +0.000 A 
ATOM      9  C   UNL     1       4.853   4.833  15.895  0.00  0.00    +0.000 A 
ATOM     10  C   UNL     1       5.888   4.273  15.146  0.00  0.00    +0.000 A 
ATOM     11 CL   UNL     1       5.589   3.761  13.531  0.00  0.00    +0.000 Cl
ATOM     12  C   UNL     1       7.166   4.143  15.686  0.00  0.00    +0.000 A 
ATOM     13  C   UNL     1       7.409   4.550  16.999  0.00  0.00    +0.000 A 
ATOM     14  C   UNL     1       6.380   5.118  17.755  0.00  0.00    +0.000 A 
ATOM     15 CL   UNL     1       6.710   5.474  19.417  0.00  0.00    +0.000 Cl
ENDBRANCH   4   8
BRANCH   1  17
ATOM     16  C   UNL     1       1.282   7.632  21.164  0.00  0.00    +0.000 C 
ATOM     17  C   UNL     1       1.484   6.284  20.488  0.00  0.00    +0.000 C 
ENDBRANCH   1  17
BRANCH   7  18
ATOM     18  O   UNL     1       1.425   7.937  17.991  0.00  0.00    +0.000 OA
ATOM     19  C   UNL     1       1.189   9.331  17.864  0.00  0.00    +0.000 C 
ENDBRANCH   7  18
TORSDOF 3
ENDMDL
MODEL 9
REMARK VINA RESULT:      -5.1      2.741      5.534
REMARK  Name = 
REMARK  5 active torsions:
REMARK  status: ('A' for Active; 'I' for Inactive)
REMARK    1  A    between atoms: C_1  and  C_2
REMARK    2  A    between atoms: C_2  and  N_3
REMARK    3  A    between atoms: N_6  and  C_7
REMARK    4  A    between atoms: C_17  and  O_18
REMARK    5  A    between atoms: O_18  and  C_19
REMARK                            x       y       z     vdW  Elec       q    Type
REMARK                         _______ _______ _______ _____ _____    ______ ____
ROOT
ATOM      1  N   UNL     1       6.135   7.071  17.404  0.00  0.00    +0.000 N 
ATOM      2  C   UNL     1       4.853   6.597  17.707  0.00  0.00    +0.000 C 
ATOM      3  S   UNL     1       3.475   7.544  17.801  0.00  0.00    +0.000 S 
ATOM      4  N   UNL     1       4.962   5.245  18.003  0.00  0.00    +0.000 N 
ATOM      5  C   UNL     1       6.281   4.861  18.037  0.00  0.00    +0.000 C 
ATOM      6  O   UNL     1       6.733   3.780  18.404  0.00  0.00    +0.000 OA
ATOM      7  C   UNL     1       7.130   6.021  17.477  0.00  0.00    +0.000 C 
ENDROOT
BRANCH   4   8
ATOM      8  C   UNL     1       3.907   4.397  18.409  0.00  0.00    +0.000 A 
ATOM      9  C   UNL     1       3.587   4.319  19.773  0.00  0.00    +0.000 A 
ATOM     10  C   UNL     1       2.491   3.564  20.186  0.00  0.00    +0.000 A 
ATOM     11 CL   UNL     1       2.066   3.520  21.852  0.00  0.00    +0.000 Cl
ATOM     12  C   UNL     1       1.724   2.859  19.259  0.00  0.00    +0.000 A 
ATOM     13  C   UNL     1       2.071   2.885  17.908  0.00  0.00    +0.000 A 
ATOM     14  C   UNL     1       3.165   3.645  17.483  0.00  0.00    +0.000 A 
ATOM     15 CL   UNL     1       3.625   3.526  15.819  0.00  0.00    +0.000 Cl
ENDBRANCH   4   8
BRANCH   1  17
ATOM     16  C   UNL     1       7.909   8.754  17.776  0.00  0.00    +0.000 C 
ATOM     17  C   UNL     1       6.541   8.457  17.180  0.00  0.00    +0.000 C 
ENDBRANCH   1  17
BRANCH   7  18
ATOM     18  O   UNL     1       7.651   5.862  16.177  0.00  0.00    +0.000 OA
ATOM     19  C   UNL     1       7.040   4.802  15.457  0.00  0.00    +0.000 C 
ENDBRANCH   7  18
TORSDOF 3
ENDMDL
