MODEL 1
REMARK VINA RESULT:      -8.9      0.000      0.000
REMARK  Name = 
REMARK  8 active torsions:
REMARK  status: ('A' for Active; 'I' for Inactive)
REMARK    1  A    between atoms: C_2  and  O_3
REMARK    2  A    between atoms: C_2  and  C_4
REMARK    3  A    between atoms: C_9  and  C_10
REMARK    4  A    between atoms: C_10  and  N_11
REMARK    5  A    between atoms: C_14  and  C_15
REMARK    6  A    between atoms: C_19  and  O_20
REMARK    7  A    between atoms: O_20  and  C_21
REMARK    8  A    between atoms: C_21  and  C_22
REMARK                            x       y       z     vdW  Elec       q    Type
REMARK                         _______ _______ _______ _____ _____    ______ ____
ROOT
ATOM      1  C   UNL     1       0.773   9.283  20.553  0.00  0.00    +0.000 A 
ATOM      2  C   UNL     1       0.328   8.504  21.629  0.00  0.00    +0.000 A 
ATOM      3  C   UNL     1      -0.422   9.092  22.653  0.00  0.00    +0.000 A 
ATOM      4  C   UNL     1      -0.744  10.457  22.594  0.00  0.00    +0.000 A 
ATOM      5  C   UNL     1      -0.331  11.240  21.518  0.00  0.00    +0.000 A 
ATOM      6  C   UNL     1       0.441  10.648  20.518  0.00  0.00    +0.000 A 
ENDROOT
BRANCH   1  10
ATOM      7  N   UNL     1       2.801   7.570  18.263  0.00  0.00    +0.000 N 
ATOM      8  N   UNL     1       2.271   8.471  17.417  0.00  0.00    +0.000 NA
ATOM      9  N   UNL     1       1.483   9.220  18.175  0.00  0.00    +0.000 NA
ATOM     10  C   UNL     1       1.554   8.720  19.462  0.00  0.00    +0.000 A 
ATOM     11  N   UNL     1       2.409   7.682  19.557  0.00  0.00    +0.000 NA
BRANCH   7  12
ATOM     12  C   UNL     1       3.707   6.523  17.804  0.00  0.00    +0.000 C 
BRANCH  12  18
ATOM     13  C   UNL     1       4.078   4.018  18.148  0.00  0.00    +0.000 A 
ATOM     14  C   UNL     1       3.597   2.696  18.208  0.00  0.00    +0.000 A 
ATOM     15  C   UNL     1       2.233   2.438  18.142  0.00  0.00    +0.000 A 
ATOM     16  C   UNL     1       1.339   3.490  17.994  0.00  0.00    +0.000 A 
ATOM     17  C   UNL     1       1.807   4.802  17.888  0.00  0.00    +0.000 A 
ATOM     18  C   UNL     1       3.182   5.100  17.953  0.00  0.00    +0.000 A 
BRANCH  13  20
ATOM     19  O   UNL     1       6.099   4.545  19.305  0.00  0.00    +0.000 OA
ATOM     20  C   UNL     1       5.549   4.246  18.261  0.00  0.00    +0.000 C 
BRANCH  20  21
ATOM     21  O   UNL     1       6.223   4.037  17.111  0.00  0.00    +0.000 OA
ATOM     22  H   UNL     1       6.954   4.654  16.927  0.00  0.00    +0.000 HD
ENDBRANCH  20  21
ENDBRANCH  13  20
ENDBRANCH  12  18
ENDBRANCH   7  12
ENDBRANCH   1  10
BRANCH   5  23
ATOM     23  O   UNL     1      -0.698  12.564  21.547  0.00  0.00    +0.000 OA
BRANCH  23  24
ATOM     24  C   UNL     1      -1.253  13.105  20.330  0.00  0.00    +0.000 C 
BRANCH  24  25
ATOM     25  C   UNL     1      -0.356  14.142  19.667  0.00  0.00    +0.000 A 
ATOM     26  C   UNL     1      -0.691  15.489  19.702  0.00  0.00    +0.000 A 
ATOM     27  C   UNL     1       0.154  16.409  19.100  0.00  0.00    +0.000 A 
ATOM     28  C   UNL     1       1.389  15.997  18.601  0.00  0.00    +0.000 A 
ATOM     29  C   UNL     1       2.309  16.942  18.120  0.00  0.00    +0.000 A 
ATOM     30  C   UNL     1       3.608  16.553  17.816  0.00  0.00    +0.000 A 
ATOM     31  C   UNL     1       3.957  15.213  17.937  0.00  0.00    +0.000 A 
ATOM     32 CL   UNL     1       5.593  14.747  17.670  0.00  0.00    +0.000 Cl
ATOM     33  C   UNL     1       3.011  14.259  18.325  0.00  0.00    +0.000 A 
ATOM     34  C   UNL     1       1.717  14.628  18.683  0.00  0.00    +0.000 A 
ATOM     35  N   UNL     1       0.839  13.715  19.160  0.00  0.00    +0.000 NA
ENDBRANCH  24  25
ENDBRANCH  23  24
ENDBRANCH   5  23
TORSDOF 8
ENDMDL
MODEL 2
REMARK VINA RESULT:      -8.8      3.715      5.408
REMARK  Name = 
REMARK  8 active torsions:
REMARK  status: ('A' for Active; 'I' for Inactive)
REMARK    1  A    between atoms: C_2  and  O_3
REMARK    2  A    between atoms: C_2  and  C_4
REMARK    3  A    between atoms: C_9  and  C_10
REMARK    4  A    between atoms: C_10  and  N_11
REMARK    5  A    between atoms: C_14  and  C_15
REMARK    6  A    between atoms: C_19  and  O_20
REMARK    7  A    between atoms: O_20  and  C_21
REMARK    8  A    between atoms: C_21  and  C_22
REMARK                            x       y       z     vdW  Elec       q    Type
REMARK                         _______ _______ _______ _____ _____    ______ ____
ROOT
ATOM      1  C   UNL     1       0.545   9.522  21.193  0.00  0.00    +0.000 A 
ATOM      2  C   UNL     1      -0.031   9.121  22.405  0.00  0.00    +0.000 A 
ATOM      3  C   UNL     1      -0.796  10.025  23.148  0.00  0.00    +0.000 A 
ATOM      4  C   UNL     1      -1.003  11.328  22.671  0.00  0.00    +0.000 A 
ATOM      5  C   UNL     1      -0.461  11.736  21.455  0.00  0.00    +0.000 A 
ATOM      6  C   UNL     1       0.325  10.834  20.737  0.00  0.00    +0.000 A 
ENDROOT
BRANCH   1  10
ATOM      7  N   UNL     1       2.535   7.073  19.667  0.00  0.00    +0.000 N 
ATOM      8  N   UNL     1       2.234   7.789  18.570  0.00  0.00    +0.000 NA
ATOM      9  N   UNL     1       1.486   8.787  19.017  0.00  0.00    +0.000 NA
ATOM     10  C   UNL     1       1.347   8.620  20.382  0.00  0.00    +0.000 A 
ATOM     11  N   UNL     1       2.029   7.548  20.833  0.00  0.00    +0.000 NA
BRANCH   7  12
ATOM     12  C   UNL     1       3.325   5.848  19.595  0.00  0.00    +0.000 C 
BRANCH  12  18
ATOM     13  C   UNL     1       2.960   3.679  18.294  0.00  0.00    +0.000 A 
ATOM     14  C   UNL     1       2.184   2.549  17.972  0.00  0.00    +0.000 A 
ATOM     15  C   UNL     1       1.021   2.267  18.678  0.00  0.00    +0.000 A 
ATOM     16  C   UNL     1       0.610   3.117  19.696  0.00  0.00    +0.000 A 
ATOM     17  C   UNL     1       1.347   4.266  19.996  0.00  0.00    +0.000 A 
ATOM     18  C   UNL     1       2.531   4.581  19.301  0.00  0.00    +0.000 A 
BRANCH  13  20
ATOM     19  O   UNL     1       4.266   4.581  16.512  0.00  0.00    +0.000 OA
ATOM     20  C   UNL     1       4.220   3.918  17.531  0.00  0.00    +0.000 C 
BRANCH  20  21
ATOM     21  O   UNL     1       5.315   3.376  18.103  0.00  0.00    +0.000 OA
ATOM     22  H   UNL     1       5.190   2.506  18.524  0.00  0.00    +0.000 HD
ENDBRANCH  20  21
ENDBRANCH  13  20
ENDBRANCH  12  18
ENDBRANCH   7  12
ENDBRANCH   1  10
BRANCH   5  23
ATOM     23  O   UNL     1      -0.721  13.029  21.069  0.00  0.00    +0.000 OA
BRANCH  23  24
ATOM     24  C   UNL     1      -1.432  13.199  19.825  0.00  0.00    +0.000 C 
BRANCH  24  25
ATOM     25  C   UNL     1      -2.918  12.883  19.931  0.00  0.00    +0.000 A 
ATOM     26  C   UNL     1      -3.524  12.031  19.018  0.00  0.00    +0.000 A 
ATOM     27  C   UNL     1      -4.876  11.754  19.152  0.00  0.00    +0.000 A 
ATOM     28  C   UNL     1      -5.574  12.208  20.270  0.00  0.00    +0.000 A 
ATOM     29  C   UNL     1      -6.904  11.814  20.483  0.00  0.00    +0.000 A 
ATOM     30  C   UNL     1      -7.526  12.099  21.693  0.00  0.00    +0.000 A 
ATOM     31  C   UNL     1      -6.834  12.830  22.652  0.00  0.00    +0.000 A 
ATOM     32 CL   UNL     1      -7.560  13.088  24.192  0.00  0.00    +0.000 Cl
ATOM     33  C   UNL     1      -5.543  13.304  22.398  0.00  0.00    +0.000 A 
ATOM     34  C   UNL     1      -4.878  12.990  21.215  0.00  0.00    +0.000 A 
ATOM     35  N   UNL     1      -3.591  13.361  21.021  0.00  0.00    +0.000 NA
ENDBRANCH  24  25
ENDBRANCH  23  24
ENDBRANCH   5  23
TORSDOF 8
ENDMDL
MODEL 3
REMARK VINA RESULT:      -8.8      3.562      5.250
REMARK  Name = 
REMARK  8 active torsions:
REMARK  status: ('A' for Active; 'I' for Inactive)
REMARK    1  A    between atoms: C_2  and  O_3
REMARK    2  A    between atoms: C_2  and  C_4
REMARK    3  A    between atoms: C_9  and  C_10
REMARK    4  A    between atoms: C_10  and  N_11
REMARK    5  A    between atoms: C_14  and  C_15
REMARK    6  A    between atoms: C_19  and  O_20
REMARK    7  A    between atoms: O_20  and  C_21
REMARK    8  A    between atoms: C_21  and  C_22
REMARK                            x       y       z     vdW  Elec       q    Type
REMARK                         _______ _______ _______ _____ _____    ______ ____
ROOT
ATOM      1  C   UNL     1       0.732   9.270  21.037  0.00  0.00    +0.000 A 
ATOM      2  C   UNL     1       0.109   8.783  22.193  0.00  0.00    +0.000 A 
ATOM      3  C   UNL     1      -0.612   9.653  23.017  0.00  0.00    +0.000 A 
ATOM      4  C   UNL     1      -0.727  11.010  22.675  0.00  0.00    +0.000 A 
ATOM      5  C   UNL     1      -0.136  11.505  21.515  0.00  0.00    +0.000 A 
ATOM      6  C   UNL     1       0.605  10.633  20.718  0.00  0.00    +0.000 A 
ENDROOT
BRANCH   1  10
ATOM      7  N   UNL     1       2.597   6.869  19.290  0.00  0.00    +0.000 N 
ATOM      8  N   UNL     1       2.351   7.706  18.267  0.00  0.00    +0.000 NA
ATOM      9  N   UNL     1       1.656   8.698  18.805  0.00  0.00    +0.000 NA
ATOM     10  C   UNL     1       1.491   8.406  20.146  0.00  0.00    +0.000 A 
ATOM     11  N   UNL     1       2.104   7.257  20.493  0.00  0.00    +0.000 NA
BRANCH   7  12
ATOM     12  C   UNL     1       3.315   5.613  19.102  0.00  0.00    +0.000 C 
BRANCH  12  18
ATOM     13  C   UNL     1       4.148   4.326  17.058  0.00  0.00    +0.000 A 
ATOM     14  C   UNL     1       4.966   4.217  15.917  0.00  0.00    +0.000 A 
ATOM     15  C   UNL     1       5.724   5.299  15.486  0.00  0.00    +0.000 A 
ATOM     16  C   UNL     1       5.689   6.491  16.199  0.00  0.00    +0.000 A 
ATOM     17  C   UNL     1       4.916   6.598  17.357  0.00  0.00    +0.000 A 
ATOM     18  C   UNL     1       4.135   5.521  17.821  0.00  0.00    +0.000 A 
BRANCH  13  20
ATOM     19  O   UNL     1       2.152   3.019  17.157  0.00  0.00    +0.000 OA
ATOM     20  C   UNL     1       3.325   3.146  17.458  0.00  0.00    +0.000 C 
BRANCH  20  21
ATOM     21  O   UNL     1       4.014   2.207  18.140  0.00  0.00    +0.000 OA
ATOM     22  H   UNL     1       4.555   1.601  17.602  0.00  0.00    +0.000 HD
ENDBRANCH  20  21
ENDBRANCH  13  20
ENDBRANCH  12  18
ENDBRANCH   7  12
ENDBRANCH   1  10
BRANCH   5  23
ATOM     23  O   UNL     1      -0.307  12.845  21.264  0.00  0.00    +0.000 OA
BRANCH  23  24
ATOM     24  C   UNL     1      -0.558  13.216  19.892  0.00  0.00    +0.000 C 
BRANCH  24  25
ATOM     25  C   UNL     1      -1.879  12.683  19.355  0.00  0.00    +0.000 A 
ATOM     26  C   UNL     1      -1.906  11.871  18.230  0.00  0.00    +0.000 A 
ATOM     27  C   UNL     1      -3.126  11.391  17.775  0.00  0.00    +0.000 A 
ATOM     28  C   UNL     1      -4.281  11.604  18.524  0.00  0.00    +0.000 A 
ATOM     29  C   UNL     1      -5.492  11.003  18.145  0.00  0.00    +0.000 A 
ATOM     30  C   UNL     1      -6.586  11.048  19.001  0.00  0.00    +0.000 A 
ATOM     31  C   UNL     1      -6.479  11.747  20.198  0.00  0.00    +0.000 A 
ATOM     32 CL   UNL     1      -7.794  11.711  21.309  0.00  0.00    +0.000 Cl
ATOM     33  C   UNL     1      -5.302  12.425  20.528  0.00  0.00    +0.000 A 
ATOM     34  C   UNL     1      -4.175  12.355  19.713  0.00  0.00    +0.000 A 
ATOM     35  N   UNL     1      -3.006  12.925  20.091  0.00  0.00    +0.000 NA
ENDBRANCH  24  25
ENDBRANCH  23  24
ENDBRANCH   5  23
TORSDOF 8
ENDMDL
MODEL 4
REMARK VINA RESULT:      -8.7      3.747      5.321
REMARK  Name = 
REMARK  8 active torsions:
REMARK  status: ('A' for Active; 'I' for Inactive)
REMARK    1  A    between atoms: C_2  and  O_3
REMARK    2  A    between atoms: C_2  and  C_4
REMARK    3  A    between atoms: C_9  and  C_10
REMARK    4  A    between atoms: C_10  and  N_11
REMARK    5  A    between atoms: C_14  and  C_15
REMARK    6  A    between atoms: C_19  and  O_20
REMARK    7  A    between atoms: O_20  and  C_21
REMARK    8  A    between atoms: C_21  and  C_22
REMARK                            x       y       z     vdW  Elec       q    Type
REMARK                         _______ _______ _______ _____ _____    ______ ____
ROOT
ATOM      1  C   UNL     1       2.208   6.474  19.175  0.00  0.00    +0.000 A 
ATOM      2  C   UNL     1       1.700   6.293  20.467  0.00  0.00    +0.000 A 
ATOM      3  C   UNL     1       1.233   7.393  21.194  0.00  0.00    +0.000 A 
ATOM      4  C   UNL     1       1.255   8.674  20.622  0.00  0.00    +0.000 A 
ATOM      5  C   UNL     1       1.731   8.868  19.327  0.00  0.00    +0.000 A 
ATOM      6  C   UNL     1       2.222   7.767  18.624  0.00  0.00    +0.000 A 
ENDROOT
BRANCH   1  10
ATOM      7  N   UNL     1       3.869   3.941  17.409  0.00  0.00    +0.000 N 
ATOM      8  N   UNL     1       2.605   3.567  17.143  0.00  0.00    +0.000 NA
ATOM      9  N   UNL     1       1.852   4.475  17.745  0.00  0.00    +0.000 NA
ATOM     10  C   UNL     1       2.703   5.363  18.376  0.00  0.00    +0.000 A 
ATOM     11  N   UNL     1       4.000   5.066  18.158  0.00  0.00    +0.000 NA
BRANCH   7  12
ATOM     12  C   UNL     1       5.016   3.165  16.949  0.00  0.00    +0.000 C 
BRANCH  12  18
ATOM     13  C   UNL     1       6.920   4.545  15.950  0.00  0.00    +0.000 A 
ATOM     14  C   UNL     1       7.561   5.151  14.853  0.00  0.00    +0.000 A 
ATOM     15  C   UNL     1       7.105   4.930  13.558  0.00  0.00    +0.000 A 
ATOM     16  C   UNL     1       5.995   4.121  13.348  0.00  0.00    +0.000 A 
ATOM     17  C   UNL     1       5.323   3.551  14.432  0.00  0.00    +0.000 A 
ATOM     18  C   UNL     1       5.760   3.753  15.756  0.00  0.00    +0.000 A 
BRANCH  13  20
ATOM     19  O   UNL     1       8.344   4.097  17.813  0.00  0.00    +0.000 OA
ATOM     20  C   UNL     1       7.471   4.785  17.317  0.00  0.00    +0.000 C 
BRANCH  20  21
ATOM     21  O   UNL     1       6.951   5.868  17.932  0.00  0.00    +0.000 OA
ATOM     22  H   UNL     1       7.188   6.731  17.548  0.00  0.00    +0.000 HD
ENDBRANCH  20  21
ENDBRANCH  13  20
ENDBRANCH  12  18
ENDBRANCH   7  12
ENDBRANCH   1  10
BRANCH   5  23
ATOM     23  O   UNL     1       1.709  10.157  18.852  0.00  0.00    +0.000 OA
BRANCH  23  24
ATOM     24  C   UNL     1       0.940  11.111  19.613  0.00  0.00    +0.000 C 
BRANCH  24  25
ATOM     25  C   UNL     1      -0.512  11.211  19.164  0.00  0.00    +0.000 A 
ATOM     26  C   UNL     1      -1.405  12.028  19.844  0.00  0.00    +0.000 A 
ATOM     27  C   UNL     1      -2.717  12.106  19.401  0.00  0.00    +0.000 A 
ATOM     28  C   UNL     1      -3.087  11.488  18.207  0.00  0.00    +0.000 A 
ATOM     29  C   UNL     1      -4.373  11.680  17.680  0.00  0.00    +0.000 A 
ATOM     30  C   UNL     1      -4.671  11.234  16.398  0.00  0.00    +0.000 A 
ATOM     31  C   UNL     1      -3.699  10.547  15.679  0.00  0.00    +0.000 A 
ATOM     32 CL   UNL     1      -4.026  10.093  14.051  0.00  0.00    +0.000 Cl
ATOM     33  C   UNL     1      -2.449  10.274  16.245  0.00  0.00    +0.000 A 
ATOM     34  C   UNL     1      -2.108  10.752  17.508  0.00  0.00    +0.000 A 
ATOM     35  N   UNL     1      -0.862  10.576  18.005  0.00  0.00    +0.000 NA
ENDBRANCH  24  25
ENDBRANCH  23  24
ENDBRANCH   5  23
TORSDOF 8
ENDMDL
MODEL 5
REMARK VINA RESULT:      -8.7      5.002      9.526
REMARK  Name = 
REMARK  8 active torsions:
REMARK  status: ('A' for Active; 'I' for Inactive)
REMARK    1  A    between atoms: C_2  and  O_3
REMARK    2  A    between atoms: C_2  and  C_4
REMARK    3  A    between atoms: C_9  and  C_10
REMARK    4  A    between atoms: C_10  and  N_11
REMARK    5  A    between atoms: C_14  and  C_15
REMARK    6  A    between atoms: C_19  and  O_20
REMARK    7  A    between atoms: O_20  and  C_21
REMARK    8  A    between atoms: C_21  and  C_22
REMARK                            x       y       z     vdW  Elec       q    Type
REMARK                         _______ _______ _______ _____ _____    ______ ____
ROOT
ATOM      1  C   UNL     1       7.342   6.707  17.469  0.00  0.00    +0.000 A 
ATOM      2  C   UNL     1       7.337   6.341  16.117  0.00  0.00    +0.000 A 
ATOM      3  C   UNL     1       6.762   5.129  15.724  0.00  0.00    +0.000 A 
ATOM      4  C   UNL     1       6.173   4.288  16.681  0.00  0.00    +0.000 A 
ATOM      5  C   UNL     1       6.145   4.648  18.026  0.00  0.00    +0.000 A 
ATOM      6  C   UNL     1       6.749   5.846  18.409  0.00  0.00    +0.000 A 
ENDROOT
BRANCH   1  10
ATOM      7  N   UNL     1       8.445   9.947  18.232  0.00  0.00    +0.000 N 
ATOM      8  N   UNL     1       9.113   9.283  19.191  0.00  0.00    +0.000 NA
ATOM      9  N   UNL     1       8.800   8.010  18.999  0.00  0.00    +0.000 NA
ATOM     10  C   UNL     1       7.926   7.958  17.929  0.00  0.00    +0.000 A 
ATOM     11  N   UNL     1       7.700   9.176  17.399  0.00  0.00    +0.000 NA
BRANCH   7  12
ATOM     12  C   UNL     1       8.494  11.401  18.123  0.00  0.00    +0.000 C 
BRANCH  12  18
ATOM     13  C   UNL     1      10.157  12.485  19.732  0.00  0.00    +0.000 A 
ATOM     14  C   UNL     1      11.380  13.132  19.991  0.00  0.00    +0.000 A 
ATOM     15  C   UNL     1      12.329  13.277  18.987  0.00  0.00    +0.000 A 
ATOM     16  C   UNL     1      12.061  12.796  17.712  0.00  0.00    +0.000 A 
ATOM     17  C   UNL     1      10.834  12.191  17.430  0.00  0.00    +0.000 A 
ATOM     18  C   UNL     1       9.850  12.028  18.425  0.00  0.00    +0.000 A 
BRANCH  13  20
ATOM     19  O   UNL     1       8.337  13.151  21.126  0.00  0.00    +0.000 OA
ATOM     20  C   UNL     1       9.186  12.322  20.854  0.00  0.00    +0.000 C 
BRANCH  20  21
ATOM     21  O   UNL     1       9.300  11.147  21.508  0.00  0.00    +0.000 OA
ATOM     22  H   UNL     1       8.498  10.595  21.535  0.00  0.00    +0.000 HD
ENDBRANCH  20  21
ENDBRANCH  13  20
ENDBRANCH  12  18
ENDBRANCH   7  12
ENDBRANCH   1  10
BRANCH   5  23
ATOM     23  O   UNL     1       5.544   3.762  18.886  0.00  0.00    +0.000 OA
BRANCH  23  24
ATOM     24  C   UNL     1       4.136   3.519  18.680  0.00  0.00    +0.000 C 
BRANCH  24  25
ATOM     25  C   UNL     1       3.247   4.638  19.205  0.00  0.00    +0.000 A 
ATOM     26  C   UNL     1       2.710   4.571  20.482  0.00  0.00    +0.000 A 
ATOM     27  C   UNL     1       1.915   5.614  20.934  0.00  0.00    +0.000 A 
ATOM     28  C   UNL     1       1.784   6.772  20.169  0.00  0.00    +0.000 A 
ATOM     29  C   UNL     1       1.100   7.885  20.681  0.00  0.00    +0.000 A 
ATOM     30  C   UNL     1       1.147   9.099  20.006  0.00  0.00    +0.000 A 
ATOM     31  C   UNL     1       1.826   9.172  18.795  0.00  0.00    +0.000 A 
ATOM     32 CL   UNL     1       1.982  10.699  18.013  0.00  0.00    +0.000 Cl
ATOM     33  C   UNL     1       2.426   8.037  18.241  0.00  0.00    +0.000 A 
ATOM     34  C   UNL     1       2.436   6.821  18.920  0.00  0.00    +0.000 A 
ATOM     35  N   UNL     1       3.110   5.755  18.428  0.00  0.00    +0.000 NA
ENDBRANCH  24  25
ENDBRANCH  23  24
ENDBRANCH   5  23
TORSDOF 8
ENDMDL
MODEL 6
REMARK VINA RESULT:      -8.6      3.851      5.606
REMARK  Name = 
REMARK  8 active torsions:
REMARK  status: ('A' for Active; 'I' for Inactive)
REMARK    1  A    between atoms: C_2  and  O_3
REMARK    2  A    between atoms: C_2  and  C_4
REMARK    3  A    between atoms: C_9  and  C_10
REMARK    4  A    between atoms: C_10  and  N_11
REMARK    5  A    between atoms: C_14  and  C_15
REMARK    6  A    between atoms: C_19  and  O_20
REMARK    7  A    between atoms: O_20  and  C_21
REMARK    8  A    between atoms: C_21  and  C_22
REMARK                            x       y       z     vdW  Elec       q    Type
REMARK                         _______ _______ _______ _____ _____    ______ ____
ROOT
ATOM      1  C   UNL     1       1.177   8.430  20.757  0.00  0.00    +0.000 A 
ATOM      2  C   UNL     1       0.952   8.499  22.137  0.00  0.00    +0.000 A 
ATOM      3  C   UNL     1       0.420   9.663  22.700  0.00  0.00    +0.000 A 
ATOM      4  C   UNL     1       0.095  10.755  21.880  0.00  0.00    +0.000 A 
ATOM      5  C   UNL     1       0.288  10.694  20.502  0.00  0.00    +0.000 A 
ATOM      6  C   UNL     1       0.847   9.538  19.957  0.00  0.00    +0.000 A 
ENDROOT
BRANCH   1  10
ATOM      7  N   UNL     1       2.714   5.890  18.890  0.00  0.00    +0.000 N 
ATOM      8  N   UNL     1       2.215   5.129  19.880  0.00  0.00    +0.000 NA
ATOM      9  N   UNL     1       1.571   5.980  20.666  0.00  0.00    +0.000 NA
ATOM     10  C   UNL     1       1.726   7.242  20.121  0.00  0.00    +0.000 A 
ATOM     11  N   UNL     1       2.428   7.215  18.971  0.00  0.00    +0.000 NA
BRANCH   7  12
ATOM     12  C   UNL     1       3.535   5.327  17.824  0.00  0.00    +0.000 C 
BRANCH  12  18
ATOM     13  C   UNL     1       5.901   5.635  16.910  0.00  0.00    +0.000 A 
ATOM     14  C   UNL     1       7.296   5.685  17.090  0.00  0.00    +0.000 A 
ATOM     15  C   UNL     1       7.846   5.631  18.365  0.00  0.00    +0.000 A 
ATOM     16  C   UNL     1       7.013   5.507  19.469  0.00  0.00    +0.000 A 
ATOM     17  C   UNL     1       5.630   5.411  19.302  0.00  0.00    +0.000 A 
ATOM     18  C   UNL     1       5.039   5.464  18.023  0.00  0.00    +0.000 A 
BRANCH  13  20
ATOM     19  O   UNL     1       5.178   4.766  14.808  0.00  0.00    +0.000 OA
ATOM     20  C   UNL     1       5.358   5.734  15.523  0.00  0.00    +0.000 C 
BRANCH  20  21
ATOM     21  O   UNL     1       5.034   6.990  15.152  0.00  0.00    +0.000 OA
ATOM     22  H   UNL     1       4.148   7.105  14.764  0.00  0.00    +0.000 HD
ENDBRANCH  20  21
ENDBRANCH  13  20
ENDBRANCH  12  18
ENDBRANCH   7  12
ENDBRANCH   1  10
BRANCH   5  23
ATOM     23  O   UNL     1      -0.063  11.810  19.783  0.00  0.00    +0.000 OA
BRANCH  23  24
ATOM     24  C   UNL     1      -0.463  11.595  18.413  0.00  0.00    +0.000 C 
BRANCH  24  25
ATOM     25  C   UNL     1      -1.972  11.489  18.235  0.00  0.00    +0.000 A 
ATOM     26  C   UNL     1      -2.509  10.647  17.272  0.00  0.00    +0.000 A 
ATOM     27  C   UNL     1      -3.888  10.564  17.144  0.00  0.00    +0.000 A 
ATOM     28  C   UNL     1      -4.713  11.204  18.068  0.00  0.00    +0.000 A 
ATOM     29  C   UNL     1      -6.102  11.010  18.030  0.00  0.00    +0.000 A 
ATOM     30  C   UNL     1      -6.897  11.482  19.069  0.00  0.00    +0.000 A 
ATOM     31  C   UNL     1      -6.302  12.197  20.103  0.00  0.00    +0.000 A 
ATOM     32 CL   UNL     1      -7.265  12.684  21.445  0.00  0.00    +0.000 Cl
ATOM     33  C   UNL     1      -4.931  12.471  20.088  0.00  0.00    +0.000 A 
ATOM     34  C   UNL     1      -4.105  11.968  19.086  0.00  0.00    +0.000 A 
ATOM     35  N   UNL     1      -2.764  12.147  19.135  0.00  0.00    +0.000 NA
ENDBRANCH  24  25
ENDBRANCH  23  24
ENDBRANCH   5  23
TORSDOF 8
ENDMDL
MODEL 7
REMARK VINA RESULT:      -8.5      3.835      5.725
REMARK  Name = 
REMARK  8 active torsions:
REMARK  status: ('A' for Active; 'I' for Inactive)
REMARK    1  A    between atoms: C_2  and  O_3
REMARK    2  A    between atoms: C_2  and  C_4
REMARK    3  A    between atoms: C_9  and  C_10
REMARK    4  A    between atoms: C_10  and  N_11
REMARK    5  A    between atoms: C_14  and  C_15
REMARK    6  A    between atoms: C_19  and  O_20
REMARK    7  A    between atoms: O_20  and  C_21
REMARK    8  A    between atoms: C_21  and  C_22
REMARK                            x       y       z     vdW  Elec       q    Type
REMARK                         _______ _______ _______ _____ _____    ______ ____
ROOT
ATOM      1  C   UNL     1       1.026   9.232  20.419  0.00  0.00    +0.000 A 
ATOM      2  C   UNL     1       0.897   8.582  21.653  0.00  0.00    +0.000 A 
ATOM      3  C   UNL     1       0.194   9.196  22.694  0.00  0.00    +0.000 A 
ATOM      4  C   UNL     1      -0.399  10.453  22.497  0.00  0.00    +0.000 A 
ATOM      5  C   UNL     1      -0.303  11.101  21.268  0.00  0.00    +0.000 A 
ATOM      6  C   UNL     1       0.427  10.491  20.247  0.00  0.00    +0.000 A 
ENDROOT
BRANCH   1  10
ATOM      7  N   UNL     1       2.787   7.375  18.022  0.00  0.00    +0.000 N 
ATOM      8  N   UNL     1       2.565   8.479  17.288  0.00  0.00    +0.000 NA
ATOM      9  N   UNL     1       1.912   9.297  18.100  0.00  0.00    +0.000 NA
ATOM     10  C   UNL     1       1.746   8.636  19.304  0.00  0.00    +0.000 A 
ATOM     11  N   UNL     1       2.319   7.416  19.295  0.00  0.00    +0.000 NA
BRANCH   7  12
ATOM     12  C   UNL     1       3.457   6.203  17.469  0.00  0.00    +0.000 C 
BRANCH  12  18
ATOM     13  C   UNL     1       5.498   5.000  18.427  0.00  0.00    +0.000 A 
ATOM     14  C   UNL     1       6.867   4.960  18.752  0.00  0.00    +0.000 A 
ATOM     15  C   UNL     1       7.716   5.986  18.356  0.00  0.00    +0.000 A 
ATOM     16  C   UNL     1       7.206   7.069  17.652  0.00  0.00    +0.000 A 
ATOM     17  C   UNL     1       5.842   7.143  17.363  0.00  0.00    +0.000 A 
ATOM     18  C   UNL     1       4.953   6.119  17.748  0.00  0.00    +0.000 A 
BRANCH  13  20
ATOM     19  O   UNL     1       4.029   3.827  19.899  0.00  0.00    +0.000 OA
ATOM     20  C   UNL     1       4.634   3.855  18.843  0.00  0.00    +0.000 C 
BRANCH  20  21
ATOM     21  O   UNL     1       4.542   2.877  17.918  0.00  0.00    +0.000 OA
ATOM     22  H   UNL     1       3.807   2.248  18.034  0.00  0.00    +0.000 HD
ENDBRANCH  20  21
ENDBRANCH  13  20
ENDBRANCH  12  18
ENDBRANCH   7  12
ENDBRANCH   1  10
BRANCH   5  23
ATOM     23  O   UNL     1      -0.918  12.325  21.170  0.00  0.00    +0.000 OA
BRANCH  23  24
ATOM     24  C   UNL     1      -1.496  12.655  19.889  0.00  0.00    +0.000 C 
BRANCH  24  25
ATOM     25  C   UNL     1      -3.015  12.548  19.867  0.00  0.00    +0.000 A 
ATOM     26  C   UNL     1      -3.656  11.835  18.864  0.00  0.00    +0.000 A 
ATOM     27  C   UNL     1      -5.040  11.746  18.881  0.00  0.00    +0.000 A 
ATOM     28  C   UNL     1      -5.757  12.241  19.969  0.00  0.00    +0.000 A 
ATOM     29  C   UNL     1      -7.141  12.030  20.060  0.00  0.00    +0.000 A 
ATOM     30  C   UNL     1      -7.814  12.342  21.235  0.00  0.00    +0.000 A 
ATOM     31  C   UNL     1      -7.109  12.920  22.284  0.00  0.00    +0.000 A 
ATOM     32 CL   UNL     1      -7.915  13.205  23.779  0.00  0.00    +0.000 Cl
ATOM     33  C   UNL     1      -5.748  13.218  22.154  0.00  0.00    +0.000 A 
ATOM     34  C   UNL     1      -5.039  12.870  21.008  0.00  0.00    +0.000 A 
ATOM     35  N   UNL     1      -3.702  13.064  20.931  0.00  0.00    +0.000 NA
ENDBRANCH  24  25
ENDBRANCH  23  24
ENDBRANCH   5  23
TORSDOF 8
ENDMDL
MODEL 8
REMARK VINA RESULT:      -8.5      1.553      2.166
REMARK  Name = 
REMARK  8 active torsions:
REMARK  status: ('A' for Active; 'I' for Inactive)
REMARK    1  A    between atoms: C_2  and  O_3
REMARK    2  A    between atoms: C_2  and  C_4
REMARK    3  A    between atoms: C_9  and  C_10
REMARK    4  A    between atoms: C_10  and  N_11
REMARK    5  A    between atoms: C_14  and  C_15
REMARK    6  A    between atoms: C_19  and  O_20
REMARK    7  A    between atoms: O_20  and  C_21
REMARK    8  A    between atoms: C_21  and  C_22
REMARK                            x       y       z     vdW  Elec       q    Type
REMARK                         _______ _______ _______ _____ _____    ______ ____
ROOT
ATOM      1  C   UNL     1       0.584   9.224  21.094  0.00  0.00    +0.000 A 
ATOM      2  C   UNL     1       0.327   9.165  22.469  0.00  0.00    +0.000 A 
ATOM      3  C   UNL     1      -0.450  10.156  23.077  0.00  0.00    +0.000 A 
ATOM      4  C   UNL     1      -0.987  11.199  22.307  0.00  0.00    +0.000 A 
ATOM      5  C   UNL     1      -0.764  11.258  20.933  0.00  0.00    +0.000 A 
ATOM      6  C   UNL     1       0.037  10.279  20.344  0.00  0.00    +0.000 A 
ENDROOT
BRANCH   1  10
ATOM      7  N   UNL     1       2.428   6.505  19.868  0.00  0.00    +0.000 N 
ATOM      8  N   UNL     1       2.491   7.290  18.779  0.00  0.00    +0.000 NA
ATOM      9  N   UNL     1       1.839   8.391  19.120  0.00  0.00    +0.000 NA
ATOM     10  C   UNL     1       1.383   8.217  20.413  0.00  0.00    +0.000 A 
ATOM     11  N   UNL     1       1.767   7.032  20.930  0.00  0.00    +0.000 NA
BRANCH   7  12
ATOM     12  C   UNL     1       3.004   5.165  19.887  0.00  0.00    +0.000 C 
BRANCH  12  18
ATOM     13  C   UNL     1       3.543   4.014  17.670  0.00  0.00    +0.000 A 
ATOM     14  C   UNL     1       4.448   3.664  16.650  0.00  0.00    +0.000 A 
ATOM     15  C   UNL     1       5.736   4.185  16.639  0.00  0.00    +0.000 A 
ATOM     16  C   UNL     1       6.141   5.042  17.655  0.00  0.00    +0.000 A 
ATOM     17  C   UNL     1       5.267   5.361  18.697  0.00  0.00    +0.000 A 
ATOM     18  C   UNL     1       3.955   4.852  18.738  0.00  0.00    +0.000 A 
BRANCH  13  20
ATOM     19  O   UNL     1       1.193   4.107  17.267  0.00  0.00    +0.000 OA
ATOM     20  C   UNL     1       2.160   3.456  17.616  0.00  0.00    +0.000 C 
BRANCH  20  21
ATOM     21  O   UNL     1       2.086   2.148  17.939  0.00  0.00    +0.000 OA
ATOM     22  H   UNL     1       1.347   1.652  17.543  0.00  0.00    +0.000 HD
ENDBRANCH  20  21
ENDBRANCH  13  20
ENDBRANCH  12  18
ENDBRANCH   7  12
ENDBRANCH   1  10
BRANCH   5  23
ATOM     23  O   UNL     1      -1.334  12.313  20.263  0.00  0.00    +0.000 OA
BRANCH  23  24
ATOM     24  C   UNL     1      -0.891  12.530  18.907  0.00  0.00    +0.000 C 
BRANCH  24  25
ATOM     25  C   UNL     1       0.067  13.706  18.766  0.00  0.00    +0.000 A 
ATOM     26  C   UNL     1      -0.319  14.979  19.161  0.00  0.00    +0.000 A 
ATOM     27  C   UNL     1       0.582  16.026  19.031  0.00  0.00    +0.000 A 
ATOM     28  C   UNL     1       1.898  15.769  18.650  0.00  0.00    +0.000 A 
ATOM     29  C   UNL     1       2.851  16.800  18.654  0.00  0.00    +0.000 A 
ATOM     30  C   UNL     1       4.196  16.501  18.474  0.00  0.00    +0.000 A 
ATOM     31  C   UNL     1       4.569  15.184  18.230  0.00  0.00    +0.000 A 
ATOM     32 CL   UNL     1       6.243  14.795  18.118  0.00  0.00    +0.000 Cl
ATOM     33  C   UNL     1       3.607  14.174  18.131  0.00  0.00    +0.000 A 
ATOM     34  C   UNL     1       2.258  14.437  18.357  0.00  0.00    +0.000 A 
ATOM     35  N   UNL     1       1.346  13.437  18.365  0.00  0.00    +0.000 NA
ENDBRANCH  24  25
ENDBRANCH  23  24
ENDBRANCH   5  23
TORSDOF 8
ENDMDL
MODEL 9
REMARK VINA RESULT:      -8.5      1.445      1.667
REMARK  Name = 
REMARK  8 active torsions:
REMARK  status: ('A' for Active; 'I' for Inactive)
REMARK    1  A    between atoms: C_2  and  O_3
REMARK    2  A    between atoms: C_2  and  C_4
REMARK    3  A    between atoms: C_9  and  C_10
REMARK    4  A    between atoms: C_10  and  N_11
REMARK    5  A    between atoms: C_14  and  C_15
REMARK    6  A    between atoms: C_19  and  O_20
REMARK    7  A    between atoms: O_20  and  C_21
REMARK    8  A    between atoms: C_21  and  C_22
REMARK                            x       y       z     vdW  Elec       q    Type
REMARK                         _______ _______ _______ _____ _____    ______ ____
ROOT
ATOM      1  C   UNL     1       0.911   9.241  20.521  0.00  0.00    +0.000 A 
ATOM      2  C   UNL     1       0.871   8.631  21.781  0.00  0.00    +0.000 A 
ATOM      3  C   UNL     1       0.138   9.218  22.817  0.00  0.00    +0.000 A 
ATOM      4  C   UNL     1      -0.573  10.407  22.589  0.00  0.00    +0.000 A 
ATOM      5  C   UNL     1      -0.566  11.012  21.335  0.00  0.00    +0.000 A 
ATOM      6  C   UNL     1       0.194  10.433  20.318  0.00  0.00    +0.000 A 
ENDROOT
BRANCH   1  10
ATOM      7  N   UNL     1       2.812   7.478  18.161  0.00  0.00    +0.000 N 
ATOM      8  N   UNL     1       2.392   8.477  17.365  0.00  0.00    +0.000 NA
ATOM      9  N   UNL     1       1.665   9.252  18.155  0.00  0.00    +0.000 NA
ATOM     10  C   UNL     1       1.657   8.671  19.409  0.00  0.00    +0.000 A 
ATOM     11  N   UNL     1       2.404   7.550  19.453  0.00  0.00    +0.000 NA
BRANCH   7  12
ATOM     12  C   UNL     1       3.621   6.375  17.652  0.00  0.00    +0.000 C 
BRANCH  12  18
ATOM     13  C   UNL     1       4.063   4.019  18.534  0.00  0.00    +0.000 A 
ATOM     14  C   UNL     1       3.634   2.710  18.828  0.00  0.00    +0.000 A 
ATOM     15  C   UNL     1       2.293   2.364  18.708  0.00  0.00    +0.000 A 
ATOM     16  C   UNL     1       1.374   3.310  18.276  0.00  0.00    +0.000 A 
ATOM     17  C   UNL     1       1.794   4.599  17.938  0.00  0.00    +0.000 A 
ATOM     18  C   UNL     1       3.144   4.984  18.049  0.00  0.00    +0.000 A 
BRANCH  13  20
ATOM     19  O   UNL     1       5.953   4.863  19.724  0.00  0.00    +0.000 OA
ATOM     20  C   UNL     1       5.508   4.350  18.714  0.00  0.00    +0.000 C 
BRANCH  20  21
ATOM     21  O   UNL     1       6.285   3.981  17.674  0.00  0.00    +0.000 OA
ATOM     22  H   UNL     1       5.830   3.527  16.942  0.00  0.00    +0.000 HD
ENDBRANCH  20  21
ENDBRANCH  13  20
ENDBRANCH  12  18
ENDBRANCH   7  12
ENDBRANCH   1  10
BRANCH   5  23
ATOM     23  O   UNL     1      -1.294  12.170  21.209  0.00  0.00    +0.000 OA
BRANCH  23  24
ATOM     24  C   UNL     1      -0.648  13.388  21.638  0.00  0.00    +0.000 C 
BRANCH  24  25
ATOM     25  C   UNL     1       0.613  13.712  20.849  0.00  0.00    +0.000 A 
ATOM     26  C   UNL     1       0.531  14.108  19.522  0.00  0.00    +0.000 A 
ATOM     27  C   UNL     1       1.699  14.409  18.836  0.00  0.00    +0.000 A 
ATOM     28  C   UNL     1       2.915  14.453  19.516  0.00  0.00    +0.000 A 
ATOM     29  C   UNL     1       4.076  14.894  18.863  0.00  0.00    +0.000 A 
ATOM     30  C   UNL     1       5.235  15.131  19.593  0.00  0.00    +0.000 A 
ATOM     31  C   UNL     1       5.239  14.866  20.957  0.00  0.00    +0.000 A 
ATOM     32 CL   UNL     1       6.636  15.265  21.883  0.00  0.00    +0.000 Cl
ATOM     33  C   UNL     1       4.109  14.337  21.588  0.00  0.00    +0.000 A 
ATOM     34  C   UNL     1       2.920  14.136  20.891  0.00  0.00    +0.000 A 
ATOM     35  N   UNL     1       1.800  13.724  21.529  0.00  0.00    +0.000 NA
ENDBRANCH  24  25
ENDBRANCH  23  24
ENDBRANCH   5  23
TORSDOF 8
ENDMDL
