MODEL 1
REMARK VINA RESULT:      -8.6      0.000      0.000
REMARK  Name = 
REMARK  3 active torsions:
REMARK  status: ('A' for Active; 'I' for Inactive)
REMARK    1  A    between atoms: C_5  and  C_6
REMARK    2  A    between atoms: N_10  and  N_11
REMARK    3  A    between atoms: C_12  and  C_13
REMARK                            x       y       z     vdW  Elec       q    Type
REMARK                         _______ _______ _______ _____ _____    ______ ____
ROOT
ATOM      1  C   UNL     1       2.948   5.879  19.368  0.00  0.00    +0.000 A 
ATOM      2  C   UNL     1       2.318   4.749  19.849  0.00  0.00    +0.000 A 
ATOM      3  S   UNL     1       3.378   3.406  19.753  0.00  0.00    +0.000 S 
ATOM      4  C   UNL     1       4.611   4.429  19.112  0.00  0.00    +0.000 A 
ATOM      5  N   UNL     1       5.827   3.904  18.804  0.00  0.00    +0.000 N 
ATOM      6  N   UNL     1       4.248   5.680  18.941  0.00  0.00    +0.000 NA
ATOM      7  H   UNL     1       5.947   2.925  19.057  0.00  0.00    +0.000 HD
ENDROOT
BRANCH   1  12
ATOM      8 CL   UNL     1       0.329  11.248  19.059  0.00  0.00    +0.000 Cl
ATOM      9  C   UNL     1       1.091   9.708  19.143  0.00  0.00    +0.000 A 
ATOM     10  C   UNL     1       1.703   9.176  18.009  0.00  0.00    +0.000 A 
ATOM     11  C   UNL     1       2.320   7.922  18.073  0.00  0.00    +0.000 A 
ATOM     12  C   UNL     1       2.327   7.194  19.271  0.00  0.00    +0.000 A 
ATOM     13  C   UNL     1       1.699   7.741  20.401  0.00  0.00    +0.000 A 
ATOM     14  C   UNL     1       1.086   8.997  20.340  0.00  0.00    +0.000 A 
ENDBRANCH   1  12
BRANCH   5  15
ATOM     15  N   UNL     1       6.965   4.662  18.805  0.00  0.00    +0.000 NA
ATOM     16  C   UNL     1       7.527   4.913  17.659  0.00  0.00    +0.000 C 
BRANCH  16  17
ATOM     17  C   UNL     1       7.017   4.624  16.345  0.00  0.00    +0.000 A 
ATOM     18  C   UNL     1       6.028   3.778  15.876  0.00  0.00    +0.000 A 
ATOM     19  C   UNL     1       5.972   3.950  14.473  0.00  0.00    +0.000 A 
ATOM     20  C   UNL     1       6.919   4.897  14.168  0.00  0.00    +0.000 A 
ATOM     21  O   UNL     1       7.546   5.325  15.294  0.00  0.00    +0.000 OA
ENDBRANCH  16  17
ENDBRANCH   5  15
TORSDOF 3
ENDMDL
MODEL 2
REMARK VINA RESULT:      -8.4      0.599      1.265
REMARK  Name = 
REMARK  3 active torsions:
REMARK  status: ('A' for Active; 'I' for Inactive)
REMARK    1  A    between atoms: C_5  and  C_6
REMARK    2  A    between atoms: N_10  and  N_11
REMARK    3  A    between atoms: C_12  and  C_13
REMARK                            x       y       z     vdW  Elec       q    Type
REMARK                         _______ _______ _______ _____ _____    ______ ____
ROOT
ATOM      1  C   UNL     1       2.912   5.885  19.537  0.00  0.00    +0.000 A 
ATOM      2  C   UNL     1       2.291   4.722  19.946  0.00  0.00    +0.000 A 
ATOM      3  S   UNL     1       3.397   3.414  19.866  0.00  0.00    +0.000 S 
ATOM      4  C   UNL     1       4.631   4.493  19.328  0.00  0.00    +0.000 A 
ATOM      5  N   UNL     1       5.877   4.015  19.072  0.00  0.00    +0.000 N 
ATOM      6  N   UNL     1       4.239   5.739  19.177  0.00  0.00    +0.000 NA
ATOM      7  H   UNL     1       6.014   3.032  19.299  0.00  0.00    +0.000 HD
ENDROOT
BRANCH   1  12
ATOM      8 CL   UNL     1       0.292  11.242  19.078  0.00  0.00    +0.000 Cl
ATOM      9  C   UNL     1       1.037   9.698  19.215  0.00  0.00    +0.000 A 
ATOM     10  C   UNL     1       1.024   9.030  20.438  0.00  0.00    +0.000 A 
ATOM     11  C   UNL     1       1.632   7.775  20.554  0.00  0.00    +0.000 A 
ATOM     12  C   UNL     1       2.257   7.184  19.448  0.00  0.00    +0.000 A 
ATOM     13  C   UNL     1       2.267   7.874  18.225  0.00  0.00    +0.000 A 
ATOM     14  C   UNL     1       1.655   9.126  18.107  0.00  0.00    +0.000 A 
ENDBRANCH   1  12
BRANCH   5  15
ATOM     15  N   UNL     1       6.990   4.805  19.161  0.00  0.00    +0.000 NA
ATOM     16  C   UNL     1       7.498   5.263  18.054  0.00  0.00    +0.000 C 
BRANCH  16  17
ATOM     17  C   UNL     1       6.946   5.176  16.728  0.00  0.00    +0.000 A 
ATOM     18  C   UNL     1       5.845   5.749  16.120  0.00  0.00    +0.000 A 
ATOM     19  C   UNL     1       5.834   5.295  14.780  0.00  0.00    +0.000 A 
ATOM     20  C   UNL     1       6.932   4.483  14.645  0.00  0.00    +0.000 A 
ATOM     21  O   UNL     1       7.623   4.417  15.812  0.00  0.00    +0.000 OA
ENDBRANCH  16  17
ENDBRANCH   5  15
TORSDOF 3
ENDMDL
MODEL 3
REMARK VINA RESULT:      -7.9      3.067      4.524
REMARK  Name = 
REMARK  3 active torsions:
REMARK  status: ('A' for Active; 'I' for Inactive)
REMARK    1  A    between atoms: C_5  and  C_6
REMARK    2  A    between atoms: N_10  and  N_11
REMARK    3  A    between atoms: C_12  and  C_13
REMARK                            x       y       z     vdW  Elec       q    Type
REMARK                         _______ _______ _______ _____ _____    ______ ____
ROOT
ATOM      1  C   UNL     1       3.067   6.888  18.067  0.00  0.00    +0.000 A 
ATOM      2  C   UNL     1       4.348   7.041  17.577  0.00  0.00    +0.000 A 
ATOM      3  S   UNL     1       4.970   5.520  17.090  0.00  0.00    +0.000 S 
ATOM      4  C   UNL     1       3.480   4.772  17.532  0.00  0.00    +0.000 A 
ATOM      5  N   UNL     1       3.323   3.433  17.360  0.00  0.00    +0.000 N 
ATOM      6  N   UNL     1       2.590   5.590  18.047  0.00  0.00    +0.000 NA
ATOM      7  H   UNL     1       4.100   2.967  16.894  0.00  0.00    +0.000 HD
ENDROOT
BRANCH   1  12
ATOM      8 CL   UNL     1      -0.322  11.260  20.342  0.00  0.00    +0.000 Cl
ATOM      9  C   UNL     1       0.659  10.011  19.684  0.00  0.00    +0.000 A 
ATOM     10  C   UNL     1       1.056  10.073  18.349  0.00  0.00    +0.000 A 
ATOM     11  C   UNL     1       1.851   9.056  17.809  0.00  0.00    +0.000 A 
ATOM     12  C   UNL     1       2.251   7.971  18.601  0.00  0.00    +0.000 A 
ATOM     13  C   UNL     1       1.836   7.920  19.942  0.00  0.00    +0.000 A 
ATOM     14  C   UNL     1       1.046   8.939  20.483  0.00  0.00    +0.000 A 
ENDBRANCH   1  12
BRANCH   5  15
ATOM     15  N   UNL     1       2.094   2.863  17.177  0.00  0.00    +0.000 NA
ATOM     16  C   UNL     1       1.460   2.437  18.230  0.00  0.00    +0.000 C 
BRANCH  16  17
ATOM     17  C   UNL     1       1.818   2.626  19.611  0.00  0.00    +0.000 A 
ATOM     18  C   UNL     1       1.124   3.082  20.716  0.00  0.00    +0.000 A 
ATOM     19  C   UNL     1       2.014   3.019  21.814  0.00  0.00    +0.000 A 
ATOM     20  C   UNL     1       3.194   2.518  21.319  0.00  0.00    +0.000 A 
ATOM     21  O   UNL     1       3.082   2.260  19.991  0.00  0.00    +0.000 OA
ENDBRANCH  16  17
ENDBRANCH   5  15
TORSDOF 3
ENDMDL
MODEL 4
REMARK VINA RESULT:      -7.9      3.072      4.635
REMARK  Name = 
REMARK  3 active torsions:
REMARK  status: ('A' for Active; 'I' for Inactive)
REMARK    1  A    between atoms: C_5  and  C_6
REMARK    2  A    between atoms: N_10  and  N_11
REMARK    3  A    between atoms: C_12  and  C_13
REMARK                            x       y       z     vdW  Elec       q    Type
REMARK                         _______ _______ _______ _____ _____    ______ ____
ROOT
ATOM      1  C   UNL     1       3.040   6.869  18.099  0.00  0.00    +0.000 A 
ATOM      2  C   UNL     1       4.315   7.038  17.597  0.00  0.00    +0.000 A 
ATOM      3  S   UNL     1       4.944   5.527  17.088  0.00  0.00    +0.000 S 
ATOM      4  C   UNL     1       3.464   4.762  17.537  0.00  0.00    +0.000 A 
ATOM      5  N   UNL     1       3.316   3.423  17.353  0.00  0.00    +0.000 N 
ATOM      6  N   UNL     1       2.573   5.568  18.070  0.00  0.00    +0.000 NA
ATOM      7  H   UNL     1       4.092   2.969  16.874  0.00  0.00    +0.000 HD
ENDROOT
BRANCH   1  12
ATOM      8 CL   UNL     1      -0.280  11.337  20.289  0.00  0.00    +0.000 Cl
ATOM      9  C   UNL     1       0.668  10.045  19.664  0.00  0.00    +0.000 A 
ATOM     10  C   UNL     1       1.039   8.992  20.499  0.00  0.00    +0.000 A 
ATOM     11  C   UNL     1       1.814   7.942  19.994  0.00  0.00    +0.000 A 
ATOM     12  C   UNL     1       2.221   7.940  18.653  0.00  0.00    +0.000 A 
ATOM     13  C   UNL     1       1.844   9.012  17.828  0.00  0.00    +0.000 A 
ATOM     14  C   UNL     1       1.066  10.060  18.330  0.00  0.00    +0.000 A 
ENDBRANCH   1  12
BRANCH   5  15
ATOM     15  N   UNL     1       2.089   2.846  17.176  0.00  0.00    +0.000 NA
ATOM     16  C   UNL     1       1.460   2.424  18.234  0.00  0.00    +0.000 C 
BRANCH  16  17
ATOM     17  C   UNL     1       1.820   2.624  19.613  0.00  0.00    +0.000 A 
ATOM     18  C   UNL     1       1.130   3.099  20.713  0.00  0.00    +0.000 A 
ATOM     19  C   UNL     1       2.020   3.040  21.812  0.00  0.00    +0.000 A 
ATOM     20  C   UNL     1       3.194   2.523  21.322  0.00  0.00    +0.000 A 
ATOM     21  O   UNL     1       3.080   2.251  19.997  0.00  0.00    +0.000 OA
ENDBRANCH  16  17
ENDBRANCH   5  15
TORSDOF 3
ENDMDL
MODEL 5
REMARK VINA RESULT:      -7.7      1.785      2.403
REMARK  Name = 
REMARK  3 active torsions:
REMARK  status: ('A' for Active; 'I' for Inactive)
REMARK    1  A    between atoms: C_5  and  C_6
REMARK    2  A    between atoms: N_10  and  N_11
REMARK    3  A    between atoms: C_12  and  C_13
REMARK                            x       y       z     vdW  Elec       q    Type
REMARK                         _______ _______ _______ _____ _____    ______ ____
ROOT
ATOM      1  C   UNL     1       3.246   5.328  18.336  0.00  0.00    +0.000 A 
ATOM      2  C   UNL     1       2.890   4.079  18.804  0.00  0.00    +0.000 A 
ATOM      3  S   UNL     1       3.834   2.876  18.030  0.00  0.00    +0.000 S 
ATOM      4  C   UNL     1       4.675   4.103  17.155  0.00  0.00    +0.000 A 
ATOM      5  N   UNL     1       5.660   3.753  16.286  0.00  0.00    +0.000 N 
ATOM      6  N   UNL     1       4.255   5.326  17.389  0.00  0.00    +0.000 NA
ATOM      7  H   UNL     1       5.889   2.761  16.275  0.00  0.00    +0.000 HD
ENDROOT
BRANCH   1  12
ATOM      8 CL   UNL     1       0.740  10.509  19.963  0.00  0.00    +0.000 Cl
ATOM      9  C   UNL     1       1.452   9.014  19.499  0.00  0.00    +0.000 A 
ATOM     10  C   UNL     1       1.569   7.985  20.432  0.00  0.00    +0.000 A 
ATOM     11  C   UNL     1       2.152   6.768  20.060  0.00  0.00    +0.000 A 
ATOM     12  C   UNL     1       2.621   6.577  18.753  0.00  0.00    +0.000 A 
ATOM     13  C   UNL     1       2.502   7.626  17.828  0.00  0.00    +0.000 A 
ATOM     14  C   UNL     1       1.916   8.841  18.199  0.00  0.00    +0.000 A 
ENDBRANCH   1  12
BRANCH   5  15
ATOM     15  N   UNL     1       6.685   4.602  15.972  0.00  0.00    +0.000 NA
ATOM     16  C   UNL     1       7.052   4.674  14.726  0.00  0.00    +0.000 C 
BRANCH  16  17
ATOM     17  C   UNL     1       6.409   4.083  13.582  0.00  0.00    +0.000 A 
ATOM     18  C   UNL     1       6.887   3.466  12.440  0.00  0.00    +0.000 A 
ATOM     19  C   UNL     1       5.758   3.067  11.687  0.00  0.00    +0.000 A 
ATOM     20  C   UNL     1       4.659   3.453  12.415  0.00  0.00    +0.000 A 
ATOM     21  O   UNL     1       5.040   4.052  13.572  0.00  0.00    +0.000 OA
ENDBRANCH  16  17
ENDBRANCH   5  15
TORSDOF 3
ENDMDL
MODEL 6
REMARK VINA RESULT:      -7.6      1.705      2.070
REMARK  Name = 
REMARK  3 active torsions:
REMARK  status: ('A' for Active; 'I' for Inactive)
REMARK    1  A    between atoms: C_5  and  C_6
REMARK    2  A    between atoms: N_10  and  N_11
REMARK    3  A    between atoms: C_12  and  C_13
REMARK                            x       y       z     vdW  Elec       q    Type
REMARK                         _______ _______ _______ _____ _____    ______ ____
ROOT
ATOM      1  C   UNL     1       3.317   5.491  18.355  0.00  0.00    +0.000 A 
ATOM      2  C   UNL     1       2.977   4.263  18.885  0.00  0.00    +0.000 A 
ATOM      3  S   UNL     1       3.944   3.037  18.177  0.00  0.00    +0.000 S 
ATOM      4  C   UNL     1       4.770   4.230  17.244  0.00  0.00    +0.000 A 
ATOM      5  N   UNL     1       5.765   3.852  16.398  0.00  0.00    +0.000 N 
ATOM      6  N   UNL     1       4.330   5.457  17.414  0.00  0.00    +0.000 NA
ATOM      7  H   UNL     1       6.009   2.864  16.439  0.00  0.00    +0.000 HD
ENDROOT
BRANCH   1  12
ATOM      8 CL   UNL     1       0.607  10.601  19.879  0.00  0.00    +0.000 Cl
ATOM      9  C   UNL     1       1.394   9.137  19.437  0.00  0.00    +0.000 A 
ATOM     10  C   UNL     1       1.889   8.982  18.143  0.00  0.00    +0.000 A 
ATOM     11  C   UNL     1       2.527   7.791  17.779  0.00  0.00    +0.000 A 
ATOM     12  C   UNL     1       2.671   6.750  18.706  0.00  0.00    +0.000 A 
ATOM     13  C   UNL     1       2.159   6.920  20.002  0.00  0.00    +0.000 A 
ATOM     14  C   UNL     1       1.526   8.112  20.369  0.00  0.00    +0.000 A 
ENDBRANCH   1  12
BRANCH   5  15
ATOM     15  N   UNL     1       6.778   4.700  16.046  0.00  0.00    +0.000 NA
ATOM     16  C   UNL     1       7.111   4.755  14.789  0.00  0.00    +0.000 C 
BRANCH  16  17
ATOM     17  C   UNL     1       6.441   4.145  13.671  0.00  0.00    +0.000 A 
ATOM     18  C   UNL     1       6.891   3.516  12.525  0.00  0.00    +0.000 A 
ATOM     19  C   UNL     1       5.744   3.102  11.808  0.00  0.00    +0.000 A 
ATOM     20  C   UNL     1       4.663   3.492  12.561  0.00  0.00    +0.000 A 
ATOM     21  O   UNL     1       5.073   4.108  13.699  0.00  0.00    +0.000 OA
ENDBRANCH  16  17
ENDBRANCH   5  15
TORSDOF 3
ENDMDL
MODEL 7
REMARK VINA RESULT:      -7.6      1.445      2.277
REMARK  Name = 
REMARK  3 active torsions:
REMARK  status: ('A' for Active; 'I' for Inactive)
REMARK    1  A    between atoms: C_5  and  C_6
REMARK    2  A    between atoms: N_10  and  N_11
REMARK    3  A    between atoms: C_12  and  C_13
REMARK                            x       y       z     vdW  Elec       q    Type
REMARK                         _______ _______ _______ _____ _____    ______ ____
ROOT
ATOM      1  C   UNL     1       3.211   5.976  18.765  0.00  0.00    +0.000 A 
ATOM      2  C   UNL     1       3.472   5.131  19.824  0.00  0.00    +0.000 A 
ATOM      3  S   UNL     1       4.314   3.745  19.268  0.00  0.00    +0.000 S 
ATOM      4  C   UNL     1       4.303   4.384  17.665  0.00  0.00    +0.000 A 
ATOM      5  N   UNL     1       4.886   3.682  16.658  0.00  0.00    +0.000 N 
ATOM      6  N   UNL     1       3.678   5.533  17.541  0.00  0.00    +0.000 NA
ATOM      7  H   UNL     1       5.373   2.837  16.950  0.00  0.00    +0.000 HD
ENDROOT
BRANCH   1  12
ATOM      8 CL   UNL     1       0.151  11.088  19.291  0.00  0.00    +0.000 Cl
ATOM      9  C   UNL     1       1.038   9.624  19.135  0.00  0.00    +0.000 A 
ATOM     10  C   UNL     1       1.590   9.277  17.902  0.00  0.00    +0.000 A 
ATOM     11  C   UNL     1       2.309   8.084  17.771  0.00  0.00    +0.000 A 
ATOM     12  C   UNL     1       2.479   7.232  18.871  0.00  0.00    +0.000 A 
ATOM     13  C   UNL     1       1.911   7.593  20.103  0.00  0.00    +0.000 A 
ATOM     14  C   UNL     1       1.196   8.787  20.236  0.00  0.00    +0.000 A 
ENDBRANCH   1  12
BRANCH   5  15
ATOM     15  N   UNL     1       5.381   4.294  15.540  0.00  0.00    +0.000 NA
ATOM     16  C   UNL     1       6.299   5.202  15.703  0.00  0.00    +0.000 C 
BRANCH  16  17
ATOM     17  C   UNL     1       6.990   5.550  16.916  0.00  0.00    +0.000 A 
ATOM     18  C   UNL     1       7.205   6.746  17.575  0.00  0.00    +0.000 A 
ATOM     19  C   UNL     1       7.945   6.445  18.742  0.00  0.00    +0.000 A 
ATOM     20  C   UNL     1       8.130   5.084  18.734  0.00  0.00    +0.000 A 
ATOM     21  O   UNL     1       7.541   4.529  17.643  0.00  0.00    +0.000 OA
ENDBRANCH  16  17
ENDBRANCH   5  15
TORSDOF 3
ENDMDL
MODEL 8
REMARK VINA RESULT:      -7.5      1.439      2.514
REMARK  Name = 
REMARK  3 active torsions:
REMARK  status: ('A' for Active; 'I' for Inactive)
REMARK    1  A    between atoms: C_5  and  C_6
REMARK    2  A    between atoms: N_10  and  N_11
REMARK    3  A    between atoms: C_12  and  C_13
REMARK                            x       y       z     vdW  Elec       q    Type
REMARK                         _______ _______ _______ _____ _____    ______ ____
ROOT
ATOM      1  C   UNL     1       3.186   5.968  18.796  0.00  0.00    +0.000 A 
ATOM      2  C   UNL     1       3.458   5.117  19.848  0.00  0.00    +0.000 A 
ATOM      3  S   UNL     1       4.302   3.739  19.277  0.00  0.00    +0.000 S 
ATOM      4  C   UNL     1       4.278   4.388  17.679  0.00  0.00    +0.000 A 
ATOM      5  N   UNL     1       4.858   3.697  16.664  0.00  0.00    +0.000 N 
ATOM      6  N   UNL     1       3.647   5.536  17.566  0.00  0.00    +0.000 NA
ATOM      7  H   UNL     1       5.350   2.851  16.947  0.00  0.00    +0.000 HD
ENDROOT
BRANCH   1  12
ATOM      8 CL   UNL     1       0.226  11.150  19.193  0.00  0.00    +0.000 Cl
ATOM      9  C   UNL     1       1.068   9.656  19.084  0.00  0.00    +0.000 A 
ATOM     10  C   UNL     1       1.180   8.840  20.209  0.00  0.00    +0.000 A 
ATOM     11  C   UNL     1       1.869   7.625  20.125  0.00  0.00    +0.000 A 
ATOM     12  C   UNL     1       2.449   7.221  18.915  0.00  0.00    +0.000 A 
ATOM     13  C   UNL     1       2.334   8.057  17.793  0.00  0.00    +0.000 A 
ATOM     14  C   UNL     1       1.642   9.269  17.876  0.00  0.00    +0.000 A 
ENDBRANCH   1  12
BRANCH   5  15
ATOM     15  N   UNL     1       5.343   4.318  15.546  0.00  0.00    +0.000 NA
ATOM     16  C   UNL     1       6.265   5.222  15.709  0.00  0.00    +0.000 C 
BRANCH  16  17
ATOM     17  C   UNL     1       6.970   5.556  16.918  0.00  0.00    +0.000 A 
ATOM     18  C   UNL     1       7.191   6.745  17.588  0.00  0.00    +0.000 A 
ATOM     19  C   UNL     1       7.944   6.430  18.744  0.00  0.00    +0.000 A 
ATOM     20  C   UNL     1       8.129   5.070  18.719  0.00  0.00    +0.000 A 
ATOM     21  O   UNL     1       7.529   4.527  17.628  0.00  0.00    +0.000 OA
ENDBRANCH  16  17
ENDBRANCH   5  15
TORSDOF 3
ENDMDL
MODEL 9
REMARK VINA RESULT:      -7.5      3.435      4.821
REMARK  Name = 
REMARK  3 active torsions:
REMARK  status: ('A' for Active; 'I' for Inactive)
REMARK    1  A    between atoms: C_5  and  C_6
REMARK    2  A    between atoms: N_10  and  N_11
REMARK    3  A    between atoms: C_12  and  C_13
REMARK                            x       y       z     vdW  Elec       q    Type
REMARK                         _______ _______ _______ _____ _____    ______ ____
ROOT
ATOM      1  C   UNL     1       0.967   8.982  20.287  0.00  0.00    +0.000 A 
ATOM      2  C   UNL     1       1.379   9.175  18.984  0.00  0.00    +0.000 A 
ATOM      3  S   UNL     1       2.364   7.864  18.486  0.00  0.00    +0.000 S 
ATOM      4  C   UNL     1       2.143   7.116  20.025  0.00  0.00    +0.000 A 
ATOM      5  N   UNL     1       2.729   5.916  20.279  0.00  0.00    +0.000 N 
ATOM      6  N   UNL     1       1.418   7.813  20.871  0.00  0.00    +0.000 NA
ATOM      7  H   UNL     1       3.208   5.496  19.485  0.00  0.00    +0.000 HD
ENDROOT
BRANCH   1  12
ATOM      8 CL   UNL     1      -2.442  12.740  23.454  0.00  0.00    +0.000 Cl
ATOM      9  C   UNL     1      -1.456  11.668  22.541  0.00  0.00    +0.000 A 
ATOM     10  C   UNL     1      -1.159  11.965  21.211  0.00  0.00    +0.000 A 
ATOM     11  C   UNL     1      -0.360  11.093  20.464  0.00  0.00    +0.000 A 
ATOM     12  C   UNL     1       0.144   9.919  21.042  0.00  0.00    +0.000 A 
ATOM     13  C   UNL     1      -0.171   9.632  22.380  0.00  0.00    +0.000 A 
ATOM     14  C   UNL     1      -0.966  10.506  23.129  0.00  0.00    +0.000 A 
ENDBRANCH   1  12
BRANCH   5  15
ATOM     15  N   UNL     1       2.216   5.038  21.193  0.00  0.00    +0.000 NA
ATOM     16  C   UNL     1       1.981   3.821  20.798  0.00  0.00    +0.000 C 
BRANCH  16  17
ATOM     17  C   UNL     1       2.337   3.217  19.541  0.00  0.00    +0.000 A 
ATOM     18  C   UNL     1       1.630   2.482  18.609  0.00  0.00    +0.000 A 
ATOM     19  C   UNL     1       2.527   2.180  17.557  0.00  0.00    +0.000 A 
ATOM     20  C   UNL     1       3.725   2.757  17.903  0.00  0.00    +0.000 A 
ATOM     21  O   UNL     1       3.618   3.402  19.093  0.00  0.00    +0.000 OA
ENDBRANCH  16  17
ENDBRANCH   5  15
TORSDOF 3
ENDMDL
