MODEL 1
REMARK VINA RESULT:      -7.7      0.000      0.000
REMARK  Name = 
REMARK  11 active torsions:
REMARK  status: ('A' for Active; 'I' for Inactive)
REMARK    1  A    between atoms: C_1  and  N_2
REMARK    2  A    between atoms: N_2  and  C_3
REMARK    3  A    between atoms: C_7  and  N_8
REMARK    4  A    between atoms: N_11  and  C_12
REMARK    5  A    between atoms: C_14  and  C_15
REMARK    6  A    between atoms: N_27  and  C_28
REMARK    7  A    between atoms: C_28  and  C_29
REMARK    8  A    between atoms: C_29  and  C_31
REMARK    9  A    between atoms: C_31  and  C_32
REMARK   10  A    between atoms: C_31  and  C_33
REMARK   11  A    between atoms: C_31  and  C_34
REMARK                            x       y       z     vdW  Elec       q    Type
REMARK                         _______ _______ _______ _____ _____    ______ ____
ROOT
ATOM      1  C   UNL     1      -1.789  11.505  21.373  0.00  0.00    +0.000 C 
ATOM      2  N   UNL     1      -2.708  12.549  20.948  0.00  0.00    +0.000 NA
ATOM      3  C   UNL     1      -3.429  13.142  21.874  0.00  0.00    +0.000 C 
ATOM      4  C   UNL     1      -2.899  13.895  23.100  0.00  0.00    +0.000 A 
ATOM      5  C   UNL     1      -3.717  14.462  24.087  0.00  0.00    +0.000 A 
ATOM      6  C   UNL     1      -3.200  15.393  25.006  0.00  0.00    +0.000 A 
ATOM      7  C   UNL     1      -1.866  15.791  24.937  0.00  0.00    +0.000 A 
ATOM      8  C   UNL     1      -1.018  15.179  24.021  0.00  0.00    +0.000 A 
ATOM      9  C   UNL     1      -1.525  14.192  23.163  0.00  0.00    +0.000 A 
ATOM     10  N   UNL     1      -0.603  13.340  22.520  0.00  0.00    +0.000 N 
ATOM     11  C   UNL     1      -0.962  11.995  22.556  0.00  0.00    +0.000 C 
ATOM     12  O   UNL     1      -0.621  11.236  23.466  0.00  0.00    +0.000 OA
ENDROOT
BRANCH   1  16
ATOM     13  N   UNL     1       0.763   9.776  19.370  0.00  0.00    +0.000 N 
ATOM     14  C   UNL     1      -0.218   9.762  20.366  0.00  0.00    +0.000 C 
ATOM     15  O   UNL     1      -0.504   8.833  21.098  0.00  0.00    +0.000 OA
ATOM     16  N   UNL     1      -0.832  11.008  20.402  0.00  0.00    +0.000 N 
ATOM     17  H   UNL     1       0.816  10.636  18.837  0.00  0.00    +0.000 HD
ATOM     18  H   UNL     1      -0.161  11.730  20.183  0.00  0.00    +0.000 HD
BRANCH  13  23
ATOM     19  C   UNL     1       2.718   6.591  19.518  0.00  0.00    +0.000 A 
ATOM     20  C   UNL     1       3.442   6.681  18.328  0.00  0.00    +0.000 A 
ATOM     21  C   UNL     1       3.236   7.753  17.440  0.00  0.00    +0.000 A 
ATOM     22  C   UNL     1       2.334   8.770  17.753  0.00  0.00    +0.000 A 
ATOM     23  C   UNL     1       1.653   8.756  18.961  0.00  0.00    +0.000 A 
ATOM     24  C   UNL     1       1.861   7.666  19.839  0.00  0.00    +0.000 A 
BRANCH  19  26
ATOM     25  C   UNL     1       1.792   4.714  20.819  0.00  0.00    +0.000 C 
ATOM     26  N   UNL     1       2.920   5.561  20.452  0.00  0.00    +0.000 N 
ATOM     27  H   UNL     1       3.441   5.881  21.264  0.00  0.00    +0.000 HD
ENDBRANCH  19  26
ENDBRANCH  13  23
ENDBRANCH   1  16
BRANCH   3  28
ATOM     28  C   UNL     1      -4.891  13.148  21.561  0.00  0.00    +0.000 A 
ATOM     29  C   UNL     1      -5.341  14.176  20.732  0.00  0.00    +0.000 A 
ATOM     30  C   UNL     1      -6.697  14.433  20.679  0.00  0.00    +0.000 A 
ATOM     31  C   UNL     1      -7.557  13.621  21.405  0.00  0.00    +0.000 A 
ATOM     32  C   UNL     1      -7.025  12.553  22.117  0.00  0.00    +0.000 A 
ATOM     33  N   UNL     1      -5.705  12.292  22.214  0.00  0.00    +0.000 NA
ENDBRANCH   3  28
BRANCH  10  34
ATOM     34  C   UNL     1       0.196  13.872  21.430  0.00  0.00    +0.000 C 
BRANCH  34  35
ATOM     35  C   UNL     1       1.442  13.213  20.801  0.00  0.00    +0.000 C 
ATOM     36  O   UNL     1       1.978  12.199  21.247  0.00  0.00    +0.000 OA
BRANCH  35  37
ATOM     37  C   UNL     1       2.027  13.953  19.551  0.00  0.00    +0.000 C 
ATOM     38  C   UNL     1       2.288  12.942  18.425  0.00  0.00    +0.000 C 
ATOM     39  C   UNL     1       1.045  15.031  19.076  0.00  0.00    +0.000 C 
ATOM     40  C   UNL     1       3.356  14.656  19.887  0.00  0.00    +0.000 C 
ENDBRANCH  35  37
ENDBRANCH  34  35
ENDBRANCH  10  34
TORSDOF 7
ENDMDL
MODEL 2
REMARK VINA RESULT:      -7.4      1.492      1.724
REMARK  Name = 
REMARK  11 active torsions:
REMARK  status: ('A' for Active; 'I' for Inactive)
REMARK    1  A    between atoms: C_1  and  N_2
REMARK    2  A    between atoms: N_2  and  C_3
REMARK    3  A    between atoms: C_7  and  N_8
REMARK    4  A    between atoms: N_11  and  C_12
REMARK    5  A    between atoms: C_14  and  C_15
REMARK    6  A    between atoms: N_27  and  C_28
REMARK    7  A    between atoms: C_28  and  C_29
REMARK    8  A    between atoms: C_29  and  C_31
REMARK    9  A    between atoms: C_31  and  C_32
REMARK   10  A    between atoms: C_31  and  C_33
REMARK   11  A    between atoms: C_31  and  C_34
REMARK                            x       y       z     vdW  Elec       q    Type
REMARK                         _______ _______ _______ _____ _____    ______ ____
ROOT
ATOM      1  C   UNL     1      -1.559  11.878  20.566  0.00  0.00    +0.000 C 
ATOM      2  N   UNL     1      -2.745  12.459  19.957  0.00  0.00    +0.000 NA
ATOM      3  C   UNL     1      -3.457  13.293  20.682  0.00  0.00    +0.000 C 
ATOM      4  C   UNL     1      -2.962  14.594  21.327  0.00  0.00    +0.000 A 
ATOM      5  C   UNL     1      -3.754  15.418  22.138  0.00  0.00    +0.000 A 
ATOM      6  C   UNL     1      -3.354  16.732  22.440  0.00  0.00    +0.000 A 
ATOM      7  C   UNL     1      -2.171  17.252  21.916  0.00  0.00    +0.000 A 
ATOM      8  C   UNL     1      -1.331  16.425  21.179  0.00  0.00    +0.000 A 
ATOM      9  C   UNL     1      -1.700  15.091  20.951  0.00  0.00    +0.000 A 
ATOM     10  N   UNL     1      -0.697  14.190  20.540  0.00  0.00    +0.000 N 
ATOM     11  C   UNL     1      -0.722  12.972  21.216  0.00  0.00    +0.000 C 
ATOM     12  O   UNL     1      -0.097  12.775  22.260  0.00  0.00    +0.000 OA
ENDROOT
BRANCH   1  16
ATOM     13  N   UNL     1       0.908   9.683  18.949  0.00  0.00    +0.000 N 
ATOM     14  C   UNL     1      -0.019   9.931  19.966  0.00  0.00    +0.000 C 
ATOM     15  O   UNL     1      -0.254   9.226  20.930  0.00  0.00    +0.000 OA
ATOM     16  N   UNL     1      -0.647  11.143  19.708  0.00  0.00    +0.000 N 
ATOM     17  H   UNL     1       0.922  10.373  18.208  0.00  0.00    +0.000 HD
ATOM     18  H   UNL     1       0.002  11.782  19.272  0.00  0.00    +0.000 HD
BRANCH  13  23
ATOM     19  C   UNL     1       2.628   6.442  19.672  0.00  0.00    +0.000 A 
ATOM     20  C   UNL     1       3.530   6.388  18.608  0.00  0.00    +0.000 A 
ATOM     21  C   UNL     1       3.525   7.382  17.611  0.00  0.00    +0.000 A 
ATOM     22  C   UNL     1       2.647   8.462  17.691  0.00  0.00    +0.000 A 
ATOM     23  C   UNL     1       1.789   8.590  18.773  0.00  0.00    +0.000 A 
ATOM     24  C   UNL     1       1.796   7.579  19.762  0.00  0.00    +0.000 A 
BRANCH  19  26
ATOM     25  C   UNL     1       1.524   4.543  20.790  0.00  0.00    +0.000 C 
ATOM     26  N   UNL     1       2.624   5.495  20.711  0.00  0.00    +0.000 N 
ATOM     27  H   UNL     1       2.833   5.918  21.612  0.00  0.00    +0.000 HD
ENDBRANCH  19  26
ENDBRANCH  13  23
ENDBRANCH   1  16
BRANCH   3  28
ATOM     28  C   UNL     1      -4.907  12.935  20.729  0.00  0.00    +0.000 A 
ATOM     29  C   UNL     1      -5.693  13.399  19.673  0.00  0.00    +0.000 A 
ATOM     30  C   UNL     1      -7.066  13.393  19.823  0.00  0.00    +0.000 A 
ATOM     31  C   UNL     1      -7.606  12.873  20.990  0.00  0.00    +0.000 A 
ATOM     32  C   UNL     1      -6.748  12.333  21.940  0.00  0.00    +0.000 A 
ATOM     33  N   UNL     1      -5.402  12.349  21.839  0.00  0.00    +0.000 NA
ENDBRANCH   3  28
BRANCH  10  34
ATOM     34  C   UNL     1      -0.194  14.278  19.180  0.00  0.00    +0.000 C 
BRANCH  34  35
ATOM     35  C   UNL     1       1.241  13.958  18.710  0.00  0.00    +0.000 C 
ATOM     36  O   UNL     1       1.595  12.852  18.303  0.00  0.00    +0.000 OA
BRANCH  35  37
ATOM     37  C   UNL     1       2.258  15.143  18.822  0.00  0.00    +0.000 C 
ATOM     38  C   UNL     1       1.546  16.469  18.516  0.00  0.00    +0.000 C 
ATOM     39  C   UNL     1       2.863  15.180  20.231  0.00  0.00    +0.000 C 
ATOM     40  C   UNL     1       3.421  14.977  17.824  0.00  0.00    +0.000 C 
ENDBRANCH  35  37
ENDBRANCH  34  35
ENDBRANCH  10  34
TORSDOF 7
ENDMDL
MODEL 3
REMARK VINA RESULT:      -7.4      2.576      3.803
REMARK  Name = 
REMARK  11 active torsions:
REMARK  status: ('A' for Active; 'I' for Inactive)
REMARK    1  A    between atoms: C_1  and  N_2
REMARK    2  A    between atoms: N_2  and  C_3
REMARK    3  A    between atoms: C_7  and  N_8
REMARK    4  A    between atoms: N_11  and  C_12
REMARK    5  A    between atoms: C_14  and  C_15
REMARK    6  A    between atoms: N_27  and  C_28
REMARK    7  A    between atoms: C_28  and  C_29
REMARK    8  A    between atoms: C_29  and  C_31
REMARK    9  A    between atoms: C_31  and  C_32
REMARK   10  A    between atoms: C_31  and  C_33
REMARK   11  A    between atoms: C_31  and  C_34
REMARK                            x       y       z     vdW  Elec       q    Type
REMARK                         _______ _______ _______ _____ _____    ______ ____
ROOT
ATOM      1  C   UNL     1      -0.018   9.494  19.910  0.00  0.00    +0.000 C 
ATOM      2  N   UNL     1      -0.449  10.308  18.785  0.00  0.00    +0.000 NA
ATOM      3  C   UNL     1      -1.524  11.049  18.944  0.00  0.00    +0.000 C 
ATOM      4  C   UNL     1      -1.735  12.133  20.007  0.00  0.00    +0.000 A 
ATOM      5  C   UNL     1      -2.926  12.856  20.165  0.00  0.00    +0.000 A 
ATOM      6  C   UNL     1      -2.960  14.032  20.935  0.00  0.00    +0.000 A 
ATOM      7  C   UNL     1      -1.801  14.519  21.538  0.00  0.00    +0.000 A 
ATOM      8  C   UNL     1      -0.630  13.774  21.464  0.00  0.00    +0.000 A 
ATOM      9  C   UNL     1      -0.626  12.560  20.761  0.00  0.00    +0.000 A 
ATOM     10  N   UNL     1       0.431  11.659  21.005  0.00  0.00    +0.000 N 
ATOM     11  C   UNL     1       0.019  10.340  21.177  0.00  0.00    +0.000 C 
ATOM     12  O   UNL     1      -0.279   9.871  22.277  0.00  0.00    +0.000 OA
ENDROOT
BRANCH   1  16
ATOM     13  N   UNL     1       3.001   7.517  19.208  0.00  0.00    +0.000 N 
ATOM     14  C   UNL     1       1.789   8.076  18.793  0.00  0.00    +0.000 C 
ATOM     15  O   UNL     1       1.241   7.921  17.717  0.00  0.00    +0.000 OA
ATOM     16  N   UNL     1       1.283   8.855  19.826  0.00  0.00    +0.000 N 
ATOM     17  H   UNL     1       3.311   7.806  20.127  0.00  0.00    +0.000 HD
ATOM     18  H   UNL     1       1.519   8.442  20.717  0.00  0.00    +0.000 HD
BRANCH  13  23
ATOM     19  C   UNL     1       5.085   4.489  18.518  0.00  0.00    +0.000 A 
ATOM     20  C   UNL     1       5.676   4.856  17.308  0.00  0.00    +0.000 A 
ATOM     21  C   UNL     1       5.335   6.069  16.680  0.00  0.00    +0.000 A 
ATOM     22  C   UNL     1       4.432   6.947  17.278  0.00  0.00    +0.000 A 
ATOM     23  C   UNL     1       3.883   6.653  18.517  0.00  0.00    +0.000 A 
ATOM     24  C   UNL     1       4.225   5.425  19.131  0.00  0.00    +0.000 A 
BRANCH  19  26
ATOM     25  C   UNL     1       4.357   2.465  19.720  0.00  0.00    +0.000 C 
ATOM     26  N   UNL     1       5.426   3.309  19.201  0.00  0.00    +0.000 N 
ATOM     27  H   UNL     1       6.162   3.463  19.885  0.00  0.00    +0.000 HD
ENDBRANCH  19  26
ENDBRANCH  13  23
ENDBRANCH   1  16
BRANCH   3  28
ATOM     28  C   UNL     1      -2.539  10.843  17.866  0.00  0.00    +0.000 A 
ATOM     29  C   UNL     1      -2.183   9.966  16.841  0.00  0.00    +0.000 A 
ATOM     30  C   UNL     1      -2.915   9.990  15.670  0.00  0.00    +0.000 A 
ATOM     31  C   UNL     1      -4.007  10.842  15.585  0.00  0.00    +0.000 A 
ATOM     32  C   UNL     1      -4.350  11.601  16.698  0.00  0.00    +0.000 A 
ATOM     33  N   UNL     1      -3.640  11.623  17.845  0.00  0.00    +0.000 NA
ENDBRANCH   3  28
BRANCH  10  34
ATOM     34  C   UNL     1       1.747  11.967  20.471  0.00  0.00    +0.000 C 
BRANCH  34  35
ATOM     35  C   UNL     1       2.455  13.337  20.513  0.00  0.00    +0.000 C 
ATOM     36  O   UNL     1       2.889  13.852  21.543  0.00  0.00    +0.000 OA
BRANCH  35  37
ATOM     37  C   UNL     1       2.558  14.076  19.136  0.00  0.00    +0.000 C 
ATOM     38  C   UNL     1       3.987  14.602  18.935  0.00  0.00    +0.000 C 
ATOM     39  C   UNL     1       2.183  13.116  18.000  0.00  0.00    +0.000 C 
ATOM     40  C   UNL     1       1.589  15.272  19.068  0.00  0.00    +0.000 C 
ENDBRANCH  35  37
ENDBRANCH  34  35
ENDBRANCH  10  34
TORSDOF 7
ENDMDL
MODEL 4
REMARK VINA RESULT:      -7.3      1.027      1.196
REMARK  Name = 
REMARK  11 active torsions:
REMARK  status: ('A' for Active; 'I' for Inactive)
REMARK    1  A    between atoms: C_1  and  N_2
REMARK    2  A    between atoms: N_2  and  C_3
REMARK    3  A    between atoms: C_7  and  N_8
REMARK    4  A    between atoms: N_11  and  C_12
REMARK    5  A    between atoms: C_14  and  C_15
REMARK    6  A    between atoms: N_27  and  C_28
REMARK    7  A    between atoms: C_28  and  C_29
REMARK    8  A    between atoms: C_29  and  C_31
REMARK    9  A    between atoms: C_31  and  C_32
REMARK   10  A    between atoms: C_31  and  C_33
REMARK   11  A    between atoms: C_31  and  C_34
REMARK                            x       y       z     vdW  Elec       q    Type
REMARK                         _______ _______ _______ _____ _____    ______ ____
ROOT
ATOM      1  C   UNL     1      -1.647  11.420  21.322  0.00  0.00    +0.000 C 
ATOM      2  N   UNL     1      -2.514  12.503  20.885  0.00  0.00    +0.000 NA
ATOM      3  C   UNL     1      -3.251  13.100  21.795  0.00  0.00    +0.000 C 
ATOM      4  C   UNL     1      -2.744  13.809  23.056  0.00  0.00    +0.000 A 
ATOM      5  C   UNL     1      -3.581  14.384  24.023  0.00  0.00    +0.000 A 
ATOM      6  C   UNL     1      -3.070  15.277  24.981  0.00  0.00    +0.000 A 
ATOM      7  C   UNL     1      -1.722  15.631  24.973  0.00  0.00    +0.000 A 
ATOM      8  C   UNL     1      -0.860  15.011  24.077  0.00  0.00    +0.000 A 
ATOM      9  C   UNL     1      -1.365  14.059  23.178  0.00  0.00    +0.000 A 
ATOM     10  N   UNL     1      -0.447  13.190  22.553  0.00  0.00    +0.000 N 
ATOM     11  C   UNL     1      -0.851  11.857  22.545  0.00  0.00    +0.000 C 
ATOM     12  O   UNL     1      -0.572  11.068  23.451  0.00  0.00    +0.000 OA
ENDROOT
BRANCH   1  16
ATOM     13  N   UNL     1       0.921   9.645  19.379  0.00  0.00    +0.000 N 
ATOM     14  C   UNL     1      -0.100   9.644  20.334  0.00  0.00    +0.000 C 
ATOM     15  O   UNL     1      -0.451   8.709  21.030  0.00  0.00    +0.000 OA
ATOM     16  N   UNL     1      -0.669  10.910  20.377  0.00  0.00    +0.000 N 
ATOM     17  H   UNL     1       1.028  10.515  18.871  0.00  0.00    +0.000 HD
ATOM     18  H   UNL     1       0.036  11.612  20.204  0.00  0.00    +0.000 HD
BRANCH  13  23
ATOM     19  C   UNL     1       2.788   6.409  19.547  0.00  0.00    +0.000 A 
ATOM     20  C   UNL     1       3.530   6.481  18.367  0.00  0.00    +0.000 A 
ATOM     21  C   UNL     1       3.365   7.561  17.478  0.00  0.00    +0.000 A 
ATOM     22  C   UNL     1       2.487   8.600  17.782  0.00  0.00    +0.000 A 
ATOM     23  C   UNL     1       1.789   8.602  18.980  0.00  0.00    +0.000 A 
ATOM     24  C   UNL     1       1.955   7.506  19.858  0.00  0.00    +0.000 A 
BRANCH  19  26
ATOM     25  C   UNL     1       3.236   4.028  19.997  0.00  0.00    +0.000 C 
ATOM     26  N   UNL     1       2.950   5.373  20.481  0.00  0.00    +0.000 N 
ATOM     27  H   UNL     1       2.219   5.379  21.188  0.00  0.00    +0.000 HD
ENDBRANCH  19  26
ENDBRANCH  13  23
ENDBRANCH   1  16
BRANCH   3  28
ATOM     28  C   UNL     1      -4.698  13.163  21.426  0.00  0.00    +0.000 A 
ATOM     29  C   UNL     1      -5.102  14.281  20.696  0.00  0.00    +0.000 A 
ATOM     30  C   UNL     1      -6.452  14.562  20.617  0.00  0.00    +0.000 A 
ATOM     31  C   UNL     1      -7.350  13.690  21.215  0.00  0.00    +0.000 A 
ATOM     32  C   UNL     1      -6.860  12.543  21.827  0.00  0.00    +0.000 A 
ATOM     33  N   UNL     1      -5.547  12.253  21.948  0.00  0.00    +0.000 NA
ENDBRANCH   3  28
BRANCH  10  34
ATOM     34  C   UNL     1       0.411  13.716  21.506  0.00  0.00    +0.000 C 
BRANCH  34  35
ATOM     35  C   UNL     1       1.466  14.832  21.661  0.00  0.00    +0.000 C 
ATOM     36  O   UNL     1       2.432  14.760  22.421  0.00  0.00    +0.000 OA
BRANCH  35  37
ATOM     37  C   UNL     1       1.209  16.116  20.801  0.00  0.00    +0.000 C 
ATOM     38  C   UNL     1       2.107  16.093  19.555  0.00  0.00    +0.000 C 
ATOM     39  C   UNL     1      -0.267  16.180  20.388  0.00  0.00    +0.000 C 
ATOM     40  C   UNL     1       1.522  17.396  21.599  0.00  0.00    +0.000 C 
ENDBRANCH  35  37
ENDBRANCH  34  35
ENDBRANCH  10  34
TORSDOF 7
ENDMDL
MODEL 5
REMARK VINA RESULT:      -7.3      2.544      3.476
REMARK  Name = 
REMARK  11 active torsions:
REMARK  status: ('A' for Active; 'I' for Inactive)
REMARK    1  A    between atoms: C_1  and  N_2
REMARK    2  A    between atoms: N_2  and  C_3
REMARK    3  A    between atoms: C_7  and  N_8
REMARK    4  A    between atoms: N_11  and  C_12
REMARK    5  A    between atoms: C_14  and  C_15
REMARK    6  A    between atoms: N_27  and  C_28
REMARK    7  A    between atoms: C_28  and  C_29
REMARK    8  A    between atoms: C_29  and  C_31
REMARK    9  A    between atoms: C_31  and  C_32
REMARK   10  A    between atoms: C_31  and  C_33
REMARK   11  A    between atoms: C_31  and  C_34
REMARK                            x       y       z     vdW  Elec       q    Type
REMARK                         _______ _______ _______ _____ _____    ______ ____
ROOT
ATOM      1  C   UNL     1      -0.119   9.945  19.976  0.00  0.00    +0.000 C 
ATOM      2  N   UNL     1      -0.516  10.860  18.917  0.00  0.00    +0.000 NA
ATOM      3  C   UNL     1      -1.473  11.722  19.181  0.00  0.00    +0.000 C 
ATOM      4  C   UNL     1      -1.471  12.772  20.298  0.00  0.00    +0.000 A 
ATOM      5  C   UNL     1      -2.546  13.631  20.569  0.00  0.00    +0.000 A 
ATOM      6  C   UNL     1      -2.376  14.764  21.384  0.00  0.00    +0.000 A 
ATOM      7  C   UNL     1      -1.127  15.072  21.919  0.00  0.00    +0.000 A 
ATOM      8  C   UNL     1      -0.069  14.191  21.732  0.00  0.00    +0.000 A 
ATOM      9  C   UNL     1      -0.269  13.020  20.985  0.00  0.00    +0.000 A 
ATOM     10  N   UNL     1       0.678  11.983  21.117  0.00  0.00    +0.000 N 
ATOM     11  C   UNL     1       0.111  10.720  21.268  0.00  0.00    +0.000 C 
ATOM     12  O   UNL     1      -0.170  10.240  22.368  0.00  0.00    +0.000 OA
ENDROOT
BRANCH   1  16
ATOM     13  N   UNL     1       2.618   7.737  18.902  0.00  0.00    +0.000 N 
ATOM     14  C   UNL     1       1.518   8.547  18.603  0.00  0.00    +0.000 C 
ATOM     15  O   UNL     1       1.005   8.710  17.511  0.00  0.00    +0.000 OA
ATOM     16  N   UNL     1       1.080   9.153  19.773  0.00  0.00    +0.000 N 
ATOM     17  H   UNL     1       2.922   7.773  19.868  0.00  0.00    +0.000 HD
ATOM     18  H   UNL     1       1.213   8.528  20.556  0.00  0.00    +0.000 HD
BRANCH  13  23
ATOM     19  C   UNL     1       3.919   4.621  17.295  0.00  0.00    +0.000 A 
ATOM     20  C   UNL     1       4.920   5.154  16.480  0.00  0.00    +0.000 A 
ATOM     21  C   UNL     1       5.120   6.545  16.403  0.00  0.00    +0.000 A 
ATOM     22  C   UNL     1       4.350   7.415  17.173  0.00  0.00    +0.000 A 
ATOM     23  C   UNL     1       3.399   6.920  18.052  0.00  0.00    +0.000 A 
ATOM     24  C   UNL     1       3.200   5.521  18.112  0.00  0.00    +0.000 A 
BRANCH  19  26
ATOM     25  C   UNL     1       2.362   2.755  17.702  0.00  0.00    +0.000 C 
ATOM     26  N   UNL     1       3.711   3.239  17.435  0.00  0.00    +0.000 N 
ATOM     27  H   UNL     1       4.401   2.809  18.044  0.00  0.00    +0.000 HD
ENDBRANCH  19  26
ENDBRANCH  13  23
ENDBRANCH   1  16
BRANCH   3  28
ATOM     28  C   UNL     1      -2.576  11.697  18.172  0.00  0.00    +0.000 A 
ATOM     29  C   UNL     1      -3.876  11.701  18.678  0.00  0.00    +0.000 A 
ATOM     30  C   UNL     1      -4.911  11.345  17.835  0.00  0.00    +0.000 A 
ATOM     31  C   UNL     1      -4.621  11.057  16.509  0.00  0.00    +0.000 A 
ATOM     32  C   UNL     1      -3.309  11.186  16.070  0.00  0.00    +0.000 A 
ATOM     33  N   UNL     1      -2.271  11.502  16.873  0.00  0.00    +0.000 NA
ENDBRANCH   3  28
BRANCH  10  34
ATOM     34  C   UNL     1       1.983  12.148  20.502  0.00  0.00    +0.000 C 
BRANCH  34  35
ATOM     35  C   UNL     1       2.279  12.819  19.144  0.00  0.00    +0.000 C 
ATOM     36  O   UNL     1       2.102  12.270  18.057  0.00  0.00    +0.000 OA
BRANCH  35  37
ATOM     37  C   UNL     1       2.870  14.266  19.231  0.00  0.00    +0.000 C 
ATOM     38  C   UNL     1       1.790  15.292  18.857  0.00  0.00    +0.000 C 
ATOM     39  C   UNL     1       3.385  14.535  20.651  0.00  0.00    +0.000 C 
ATOM     40  C   UNL     1       4.060  14.444  18.267  0.00  0.00    +0.000 C 
ENDBRANCH  35  37
ENDBRANCH  34  35
ENDBRANCH  10  34
TORSDOF 7
ENDMDL
MODEL 6
REMARK VINA RESULT:      -7.3      2.336      2.951
REMARK  Name = 
REMARK  11 active torsions:
REMARK  status: ('A' for Active; 'I' for Inactive)
REMARK    1  A    between atoms: C_1  and  N_2
REMARK    2  A    between atoms: N_2  and  C_3
REMARK    3  A    between atoms: C_7  and  N_8
REMARK    4  A    between atoms: N_11  and  C_12
REMARK    5  A    between atoms: C_14  and  C_15
REMARK    6  A    between atoms: N_27  and  C_28
REMARK    7  A    between atoms: C_28  and  C_29
REMARK    8  A    between atoms: C_29  and  C_31
REMARK    9  A    between atoms: C_31  and  C_32
REMARK   10  A    between atoms: C_31  and  C_33
REMARK   11  A    between atoms: C_31  and  C_34
REMARK                            x       y       z     vdW  Elec       q    Type
REMARK                         _______ _______ _______ _____ _____    ______ ____
ROOT
ATOM      1  C   UNL     1      -0.514  10.342  20.595  0.00  0.00    +0.000 C 
ATOM      2  N   UNL     1      -0.954  11.123  19.450  0.00  0.00    +0.000 NA
ATOM      3  C   UNL     1      -1.816  12.092  19.666  0.00  0.00    +0.000 C 
ATOM      4  C   UNL     1      -1.625  13.290  20.603  0.00  0.00    +0.000 A 
ATOM      5  C   UNL     1      -2.603  14.267  20.837  0.00  0.00    +0.000 A 
ATOM      6  C   UNL     1      -2.271  15.488  21.449  0.00  0.00    +0.000 A 
ATOM      7  C   UNL     1      -0.954  15.764  21.813  0.00  0.00    +0.000 A 
ATOM      8  C   UNL     1       0.015  14.778  21.667  0.00  0.00    +0.000 A 
ATOM      9  C   UNL     1      -0.343  13.533  21.130  0.00  0.00    +0.000 A 
ATOM     10  N   UNL     1       0.538  12.449  21.331  0.00  0.00    +0.000 N 
ATOM     11  C   UNL     1      -0.097  11.274  21.726  0.00  0.00    +0.000 C 
ATOM     12  O   UNL     1      -0.296  10.986  22.909  0.00  0.00    +0.000 OA
ENDROOT
BRANCH   1  16
ATOM     13  N   UNL     1       2.055   7.949  19.506  0.00  0.00    +0.000 N 
ATOM     14  C   UNL     1       1.104   8.931  19.213  0.00  0.00    +0.000 C 
ATOM     15  O   UNL     1       0.753   9.304  18.109  0.00  0.00    +0.000 OA
ATOM     16  N   UNL     1       0.599   9.430  20.407  0.00  0.00    +0.000 N 
ATOM     17  H   UNL     1       2.240   7.816  20.493  0.00  0.00    +0.000 HD
ATOM     18  H   UNL     1       0.559   8.695  21.099  0.00  0.00    +0.000 HD
BRANCH  13  23
ATOM     19  C   UNL     1       3.496   4.868  17.950  0.00  0.00    +0.000 A 
ATOM     20  C   UNL     1       4.373   5.436  17.024  0.00  0.00    +0.000 A 
ATOM     21  C   UNL     1       4.439   6.832  16.859  0.00  0.00    +0.000 A 
ATOM     22  C   UNL     1       3.660   7.677  17.649  0.00  0.00    +0.000 A 
ATOM     23  C   UNL     1       2.834   7.154  18.633  0.00  0.00    +0.000 A 
ATOM     24  C   UNL     1       2.768   5.748  18.780  0.00  0.00    +0.000 A 
BRANCH  19  26
ATOM     25  C   UNL     1       4.056   2.934  19.370  0.00  0.00    +0.000 C 
ATOM     26  N   UNL     1       3.426   3.483  18.176  0.00  0.00    +0.000 N 
ATOM     27  H   UNL     1       3.651   2.949  17.341  0.00  0.00    +0.000 HD
ENDBRANCH  19  26
ENDBRANCH  13  23
ENDBRANCH   1  16
BRANCH   3  28
ATOM     28  C   UNL     1      -3.017  12.013  18.779  0.00  0.00    +0.000 A 
ATOM     29  C   UNL     1      -4.257  12.160  19.403  0.00  0.00    +0.000 A 
ATOM     30  C   UNL     1      -5.389  11.769  18.716  0.00  0.00    +0.000 A 
ATOM     31  C   UNL     1      -5.252  11.305  17.415  0.00  0.00    +0.000 A 
ATOM     32  C   UNL     1      -3.988  11.298  16.839  0.00  0.00    +0.000 A 
ATOM     33  N   UNL     1      -2.858  11.644  17.492  0.00  0.00    +0.000 NA
ENDBRANCH   3  28
BRANCH  10  34
ATOM     34  C   UNL     1       1.780  12.411  20.581  0.00  0.00    +0.000 C 
BRANCH  34  35
ATOM     35  C   UNL     1       2.043  13.071  19.210  0.00  0.00    +0.000 C 
ATOM     36  O   UNL     1       1.647  12.608  18.141  0.00  0.00    +0.000 OA
BRANCH  35  37
ATOM     37  C   UNL     1       2.903  14.379  19.255  0.00  0.00    +0.000 C 
ATOM     38  C   UNL     1       3.516  14.550  20.653  0.00  0.00    +0.000 C 
ATOM     39  C   UNL     1       4.012  14.312  18.197  0.00  0.00    +0.000 C 
ATOM     40  C   UNL     1       2.046  15.623  18.948  0.00  0.00    +0.000 C 
ENDBRANCH  35  37
ENDBRANCH  34  35
ENDBRANCH  10  34
TORSDOF 7
ENDMDL
MODEL 7
REMARK VINA RESULT:      -7.3      2.673      3.903
REMARK  Name = 
REMARK  11 active torsions:
REMARK  status: ('A' for Active; 'I' for Inactive)
REMARK    1  A    between atoms: C_1  and  N_2
REMARK    2  A    between atoms: N_2  and  C_3
REMARK    3  A    between atoms: C_7  and  N_8
REMARK    4  A    between atoms: N_11  and  C_12
REMARK    5  A    between atoms: C_14  and  C_15
REMARK    6  A    between atoms: N_27  and  C_28
REMARK    7  A    between atoms: C_28  and  C_29
REMARK    8  A    between atoms: C_29  and  C_31
REMARK    9  A    between atoms: C_31  and  C_32
REMARK   10  A    between atoms: C_31  and  C_33
REMARK   11  A    between atoms: C_31  and  C_34
REMARK                            x       y       z     vdW  Elec       q    Type
REMARK                         _______ _______ _______ _____ _____    ______ ____
ROOT
ATOM      1  C   UNL     1       0.558   9.560  19.084  0.00  0.00    +0.000 C 
ATOM      2  N   UNL     1      -0.204  10.535  18.321  0.00  0.00    +0.000 NA
ATOM      3  C   UNL     1      -1.249  11.084  18.902  0.00  0.00    +0.000 C 
ATOM      4  C   UNL     1      -1.250  11.880  20.212  0.00  0.00    +0.000 A 
ATOM      5  C   UNL     1      -2.405  12.398  20.814  0.00  0.00    +0.000 A 
ATOM      6  C   UNL     1      -2.317  13.369  21.827  0.00  0.00    +0.000 A 
ATOM      7  C   UNL     1      -1.078  13.857  22.236  0.00  0.00    +0.000 A 
ATOM      8  C   UNL     1       0.082  13.299  21.712  0.00  0.00    +0.000 A 
ATOM      9  C   UNL     1      -0.015  12.273  20.760  0.00  0.00    +0.000 A 
ATOM     10  N   UNL     1       1.129  11.481  20.524  0.00  0.00    +0.000 N 
ATOM     11  C   UNL     1       0.865  10.115  20.470  0.00  0.00    +0.000 C 
ATOM     12  O   UNL     1       0.896   9.388  21.466  0.00  0.00    +0.000 OA
ENDROOT
BRANCH   1  16
ATOM     13  N   UNL     1       3.568   7.839  17.861  0.00  0.00    +0.000 N 
ATOM     14  C   UNL     1       2.198   7.845  18.140  0.00  0.00    +0.000 C 
ATOM     15  O   UNL     1       1.430   6.904  18.059  0.00  0.00    +0.000 OA
ATOM     16  N   UNL     1       1.833   9.123  18.545  0.00  0.00    +0.000 N 
ATOM     17  H   UNL     1       4.024   8.739  17.947  0.00  0.00    +0.000 HD
ATOM     18  H   UNL     1       2.588   9.550  19.062  0.00  0.00    +0.000 HD
BRANCH  13  23
ATOM     19  C   UNL     1       5.432   4.599  17.976  0.00  0.00    +0.000 A 
ATOM     20  C   UNL     1       6.080   4.634  16.739  0.00  0.00    +0.000 A 
ATOM     21  C   UNL     1       5.849   5.687  15.836  0.00  0.00    +0.000 A 
ATOM     22  C   UNL     1       5.000   6.740  16.176  0.00  0.00    +0.000 A 
ATOM     23  C   UNL     1       4.398   6.780  17.425  0.00  0.00    +0.000 A 
ATOM     24  C   UNL     1       4.630   5.709  18.319  0.00  0.00    +0.000 A 
BRANCH  19  26
ATOM     25  C   UNL     1       4.521   2.927  19.539  0.00  0.00    +0.000 C 
ATOM     26  N   UNL     1       5.664   3.589  18.925  0.00  0.00    +0.000 N 
ATOM     27  H   UNL     1       6.364   3.864  19.610  0.00  0.00    +0.000 HD
ENDBRANCH  19  26
ENDBRANCH  13  23
ENDBRANCH   1  16
BRANCH   3  28
ATOM     28  C   UNL     1      -2.493  10.987  18.078  0.00  0.00    +0.000 A 
ATOM     29  C   UNL     1      -2.352  10.421  16.811  0.00  0.00    +0.000 A 
ATOM     30  C   UNL     1      -3.366  10.606  15.891  0.00  0.00    +0.000 A 
ATOM     31  C   UNL     1      -4.504  11.295  16.285  0.00  0.00    +0.000 A 
ATOM     32  C   UNL     1      -4.600  11.728  17.602  0.00  0.00    +0.000 A 
ATOM     33  N   UNL     1      -3.617  11.590  18.516  0.00  0.00    +0.000 NA
ENDBRANCH   3  28
BRANCH  10  34
ATOM     34  C   UNL     1       2.236  12.059  19.783  0.00  0.00    +0.000 C 
BRANCH  34  35
ATOM     35  C   UNL     1       2.179  13.302  18.870  0.00  0.00    +0.000 C 
ATOM     36  O   UNL     1       1.615  13.322  17.777  0.00  0.00    +0.000 OA
BRANCH  35  37
ATOM     37  C   UNL     1       2.938  14.561  19.411  0.00  0.00    +0.000 C 
ATOM     38  C   UNL     1       4.054  14.954  18.433  0.00  0.00    +0.000 C 
ATOM     39  C   UNL     1       1.955  15.726  19.588  0.00  0.00    +0.000 C 
ATOM     40  C   UNL     1       3.575  14.282  20.786  0.00  0.00    +0.000 C 
ENDBRANCH  35  37
ENDBRANCH  34  35
ENDBRANCH  10  34
TORSDOF 7
ENDMDL
MODEL 8
REMARK VINA RESULT:      -7.3      1.066      1.355
REMARK  Name = 
REMARK  11 active torsions:
REMARK  status: ('A' for Active; 'I' for Inactive)
REMARK    1  A    between atoms: C_1  and  N_2
REMARK    2  A    between atoms: N_2  and  C_3
REMARK    3  A    between atoms: C_7  and  N_8
REMARK    4  A    between atoms: N_11  and  C_12
REMARK    5  A    between atoms: C_14  and  C_15
REMARK    6  A    between atoms: N_27  and  C_28
REMARK    7  A    between atoms: C_28  and  C_29
REMARK    8  A    between atoms: C_29  and  C_31
REMARK    9  A    between atoms: C_31  and  C_32
REMARK   10  A    between atoms: C_31  and  C_33
REMARK   11  A    between atoms: C_31  and  C_34
REMARK                            x       y       z     vdW  Elec       q    Type
REMARK                         _______ _______ _______ _____ _____    ______ ____
ROOT
ATOM      1  C   UNL     1      -1.763  11.648  21.283  0.00  0.00    +0.000 C 
ATOM      2  N   UNL     1      -2.523  12.810  20.850  0.00  0.00    +0.000 NA
ATOM      3  C   UNL     1      -3.303  13.393  21.732  0.00  0.00    +0.000 C 
ATOM      4  C   UNL     1      -2.873  13.984  23.080  0.00  0.00    +0.000 A 
ATOM      5  C   UNL     1      -3.760  14.547  24.009  0.00  0.00    +0.000 A 
ATOM      6  C   UNL     1      -3.288  15.342  25.068  0.00  0.00    +0.000 A 
ATOM      7  C   UNL     1      -1.926  15.609  25.202  0.00  0.00    +0.000 A 
ATOM      8  C   UNL     1      -1.023  14.994  24.343  0.00  0.00    +0.000 A 
ATOM      9  C   UNL     1      -1.498  14.137  23.338  0.00  0.00    +0.000 A 
ATOM     10  N   UNL     1      -0.580  13.254  22.735  0.00  0.00    +0.000 N 
ATOM     11  C   UNL     1      -1.058  11.952  22.598  0.00  0.00    +0.000 C 
ATOM     12  O   UNL     1      -0.908  11.090  23.467  0.00  0.00    +0.000 OA
ENDROOT
BRANCH   1  16
ATOM     13  N   UNL     1       0.860   9.841  19.447  0.00  0.00    +0.000 N 
ATOM     14  C   UNL     1      -0.245   9.843  20.304  0.00  0.00    +0.000 C 
ATOM     15  O   UNL     1      -0.717   8.888  20.891  0.00  0.00    +0.000 OA
ATOM     16  N   UNL     1      -0.735  11.140  20.393  0.00  0.00    +0.000 N 
ATOM     17  H   UNL     1       1.068  10.735  19.018  0.00  0.00    +0.000 HD
ATOM     18  H   UNL     1       0.027  11.802  20.338  0.00  0.00    +0.000 HD
BRANCH  13  23
ATOM     19  C   UNL     1       2.653   6.564  19.631  0.00  0.00    +0.000 A 
ATOM     20  C   UNL     1       3.372   6.599  18.435  0.00  0.00    +0.000 A 
ATOM     21  C   UNL     1       3.213   7.667  17.531  0.00  0.00    +0.000 A 
ATOM     22  C   UNL     1       2.366   8.731  17.835  0.00  0.00    +0.000 A 
ATOM     23  C   UNL     1       1.694   8.771  19.047  0.00  0.00    +0.000 A 
ATOM     24  C   UNL     1       1.854   7.686  19.941  0.00  0.00    +0.000 A 
BRANCH  19  26
ATOM     25  C   UNL     1       1.736   4.571  20.752  0.00  0.00    +0.000 C 
ATOM     26  N   UNL     1       2.811   5.540  20.580  0.00  0.00    +0.000 N 
ATOM     27  H   UNL     1       3.155   5.894  21.469  0.00  0.00    +0.000 HD
ENDBRANCH  19  26
ENDBRANCH  13  23
ENDBRANCH   1  16
BRANCH   3  28
ATOM     28  C   UNL     1      -4.705  13.572  21.245  0.00  0.00    +0.000 A 
ATOM     29  C   UNL     1      -5.566  12.490  21.429  0.00  0.00    +0.000 A 
ATOM     30  C   UNL     1      -6.749  12.461  20.716  0.00  0.00    +0.000 A 
ATOM     31  C   UNL     1      -7.057  13.536  19.894  0.00  0.00    +0.000 A 
ATOM     32  C   UNL     1      -6.188  14.619  19.858  0.00  0.00    +0.000 A 
ATOM     33  N   UNL     1      -5.011  14.667  20.518  0.00  0.00    +0.000 NA
ENDBRANCH   3  28
BRANCH  10  34
ATOM     34  C   UNL     1       0.399  13.791  21.807  0.00  0.00    +0.000 C 
BRANCH  34  35
ATOM     35  C   UNL     1       0.144  14.862  20.724  0.00  0.00    +0.000 C 
ATOM     36  O   UNL     1      -0.557  15.858  20.899  0.00  0.00    +0.000 OA
BRANCH  35  37
ATOM     37  C   UNL     1       0.817  14.580  19.338  0.00  0.00    +0.000 C 
ATOM     38  C   UNL     1      -0.208  13.948  18.384  0.00  0.00    +0.000 C 
ATOM     39  C   UNL     1       1.356  15.887  18.744  0.00  0.00    +0.000 C 
ATOM     40  C   UNL     1       2.007  13.611  19.480  0.00  0.00    +0.000 C 
ENDBRANCH  35  37
ENDBRANCH  34  35
ENDBRANCH  10  34
TORSDOF 7
ENDMDL
MODEL 9
REMARK VINA RESULT:      -7.3      2.675      3.879
REMARK  Name = 
REMARK  11 active torsions:
REMARK  status: ('A' for Active; 'I' for Inactive)
REMARK    1  A    between atoms: C_1  and  N_2
REMARK    2  A    between atoms: N_2  and  C_3
REMARK    3  A    between atoms: C_7  and  N_8
REMARK    4  A    between atoms: N_11  and  C_12
REMARK    5  A    between atoms: C_14  and  C_15
REMARK    6  A    between atoms: N_27  and  C_28
REMARK    7  A    between atoms: C_28  and  C_29
REMARK    8  A    between atoms: C_29  and  C_31
REMARK    9  A    between atoms: C_31  and  C_32
REMARK   10  A    between atoms: C_31  and  C_33
REMARK   11  A    between atoms: C_31  and  C_34
REMARK                            x       y       z     vdW  Elec       q    Type
REMARK                         _______ _______ _______ _____ _____    ______ ____
ROOT
ATOM      1  C   UNL     1       0.415   9.729  19.057  0.00  0.00    +0.000 C 
ATOM      2  N   UNL     1      -0.187  10.825  18.314  0.00  0.00    +0.000 NA
ATOM      3  C   UNL     1      -1.264  11.385  18.818  0.00  0.00    +0.000 C 
ATOM      4  C   UNL     1      -1.388  12.048  20.195  0.00  0.00    +0.000 A 
ATOM      5  C   UNL     1      -2.580  12.583  20.703  0.00  0.00    +0.000 A 
ATOM      6  C   UNL     1      -2.568  13.442  21.817  0.00  0.00    +0.000 A 
ATOM      7  C   UNL     1      -1.366  13.801  22.423  0.00  0.00    +0.000 A 
ATOM      8  C   UNL     1      -0.182  13.217  21.988  0.00  0.00    +0.000 A 
ATOM      9  C   UNL     1      -0.213  12.298  20.928  0.00  0.00    +0.000 A 
ATOM     10  N   UNL     1       0.904  11.456  20.751  0.00  0.00    +0.000 N 
ATOM     11  C   UNL     1       0.573  10.123  20.521  0.00  0.00    +0.000 C 
ATOM     12  O   UNL     1       0.434   9.302  21.430  0.00  0.00    +0.000 OA
ENDROOT
BRANCH   1  16
ATOM     13  N   UNL     1       3.442   7.935  17.990  0.00  0.00    +0.000 N 
ATOM     14  C   UNL     1       2.049   8.031  18.074  0.00  0.00    +0.000 C 
ATOM     15  O   UNL     1       1.236   7.195  17.727  0.00  0.00    +0.000 OA
ATOM     16  N   UNL     1       1.722   9.259  18.634  0.00  0.00    +0.000 N 
ATOM     17  H   UNL     1       3.944   8.762  18.290  0.00  0.00    +0.000 HD
ATOM     18  H   UNL     1       2.418   9.524  19.316  0.00  0.00    +0.000 HD
BRANCH  13  23
ATOM     19  C   UNL     1       5.254   4.664  17.949  0.00  0.00    +0.000 A 
ATOM     20  C   UNL     1       5.885   4.737  16.706  0.00  0.00    +0.000 A 
ATOM     21  C   UNL     1       5.659   5.830  15.849  0.00  0.00    +0.000 A 
ATOM     22  C   UNL     1       4.832   6.881  16.243  0.00  0.00    +0.000 A 
ATOM     23  C   UNL     1       4.249   6.881  17.501  0.00  0.00    +0.000 A 
ATOM     24  C   UNL     1       4.475   5.772  18.349  0.00  0.00    +0.000 A 
BRANCH  19  26
ATOM     25  C   UNL     1       4.345   3.029  19.553  0.00  0.00    +0.000 C 
ATOM     26  N   UNL     1       5.482   3.614  18.854  0.00  0.00    +0.000 N 
ATOM     27  H   UNL     1       6.258   3.813  19.481  0.00  0.00    +0.000 HD
ENDBRANCH  19  26
ENDBRANCH  13  23
ENDBRANCH   1  16
BRANCH   3  28
ATOM     28  C   UNL     1      -2.395  11.456  17.843  0.00  0.00    +0.000 A 
ATOM     29  C   UNL     1      -3.677  11.535  18.389  0.00  0.00    +0.000 A 
ATOM     30  C   UNL     1      -4.758  11.268  17.571  0.00  0.00    +0.000 A 
ATOM     31  C   UNL     1      -4.526  10.991  16.231  0.00  0.00    +0.000 A 
ATOM     32  C   UNL     1      -3.222  11.042  15.755  0.00  0.00    +0.000 A 
ATOM     33  N   UNL     1      -2.142  11.271  16.531  0.00  0.00    +0.000 NA
ENDBRANCH   3  28
BRANCH  10  34
ATOM     34  C   UNL     1       2.128  12.025  20.216  0.00  0.00    +0.000 C 
BRANCH  34  35
ATOM     35  C   UNL     1       2.271  12.824  18.903  0.00  0.00    +0.000 C 
ATOM     36  O   UNL     1       2.460  12.304  17.803  0.00  0.00    +0.000 OA
BRANCH  35  37
ATOM     37  C   UNL     1       2.199  14.380  19.060  0.00  0.00    +0.000 C 
ATOM     38  C   UNL     1       2.697  14.785  20.455  0.00  0.00    +0.000 C 
ATOM     39  C   UNL     1       3.051  15.054  17.977  0.00  0.00    +0.000 C 
ATOM     40  C   UNL     1       0.755  14.893  18.895  0.00  0.00    +0.000 C 
ENDBRANCH  35  37
ENDBRANCH  34  35
ENDBRANCH  10  34
TORSDOF 7
ENDMDL
