MODEL 1
REMARK VINA RESULT:      -7.0      0.000      0.000
REMARK  Name = 
REMARK  6 active torsions:
REMARK  status: ('A' for Active; 'I' for Inactive)
REMARK    1  A    between atoms: C_1  and  C_2
REMARK    2  A    between atoms: C_2  and  N_3
REMARK    3  A    between atoms: C_5  and  C_6
REMARK    4  A    between atoms: C_6  and  O_8
REMARK    5  A    between atoms: C_13  and  N_14
REMARK    6  A    between atoms: N_19  and  C_20
REMARK                            x       y       z     vdW  Elec       q    Type
REMARK                         _______ _______ _______ _____ _____    ______ ____
ROOT
ATOM      1  N   UNL     1       3.569   6.320  17.821  0.00  0.00    +0.000 N 
ATOM      2  C   UNL     1       3.916   5.012  18.137  0.00  0.00    +0.000 A 
ATOM      3  C   UNL     1       3.537   4.336  19.231  0.00  0.00    +0.000 A 
ATOM      4  C   UNL     1       2.681   5.066  20.182  0.00  0.00    +0.000 A 
ATOM      5  O   UNL     1       2.321   4.522  21.225  0.00  0.00    +0.000 OA
ATOM      6  C   UNL     1       2.271   6.443  19.853  0.00  0.00    +0.000 A 
ATOM      7  C   UNL     1       1.452   7.119  20.747  0.00  0.00    +0.000 A 
ATOM      8  C   UNL     1       1.057   8.419  20.462  0.00  0.00    +0.000 A 
ATOM      9  C   UNL     1       1.548   9.025  19.274  0.00  0.00    +0.000 A 
ATOM     10  N   UNL     1       1.231  10.370  19.061  0.00  0.00    +0.000 N 
ATOM     11  C   UNL     1       2.171  11.172  18.269  0.00  0.00    +0.000 C 
ATOM     12  C   UNL     1       1.946  12.661  18.650  0.00  0.00    +0.000 C 
ATOM     13  N   UNL     1       0.550  13.114  18.414  0.00  0.00    +0.000 NA
ATOM     14  C   UNL     1       0.374  14.489  18.878  0.00  0.00    +0.000 C 
ATOM     15  C   UNL     1      -0.398  12.204  19.102  0.00  0.00    +0.000 C 
ATOM     16  C   UNL     1      -0.168  10.709  18.742  0.00  0.00    +0.000 C 
ATOM     17  N   UNL     1       2.368   8.356  18.410  0.00  0.00    +0.000 NA
ATOM     18  C   UNL     1       2.724   7.071  18.687  0.00  0.00    +0.000 A 
ENDROOT
BRANCH   8  19
ATOM     19  N   UNL     1       0.431   9.148  21.493  0.00  0.00    +0.000 N 
ATOM     20  H   UNL     1       0.478  10.155  21.389  0.00  0.00    +0.000 HD
ATOM     21  H   UNL     1       0.679   8.808  22.416  0.00  0.00    +0.000 HD
ENDBRANCH   8  19
BRANCH   1  23
ATOM     22  C   UNL     1       5.264   6.205  16.037  0.00  0.00    +0.000 C 
ATOM     23  C   UNL     1       4.151   7.026  16.672  0.00  0.00    +0.000 C 
ENDBRANCH   1  23
BRANCH   3  24
ATOM     24  C   UNL     1       3.976   2.944  19.446  0.00  0.00    +0.000 C 
ATOM     25  O   UNL     1       3.215   1.990  19.377  0.00  0.00    +0.000 OA
BRANCH  24  26
ATOM     26  O   UNL     1       5.288   2.801  19.731  0.00  0.00    +0.000 OA
ATOM     27  H   UNL     1       5.892   3.240  19.079  0.00  0.00    +0.000 HD
ENDBRANCH  24  26
ENDBRANCH   3  24
TORSDOF 4
ENDMDL
MODEL 2
REMARK VINA RESULT:      -6.2      2.131      3.359
REMARK  Name = 
REMARK  6 active torsions:
REMARK  status: ('A' for Active; 'I' for Inactive)
REMARK    1  A    between atoms: C_1  and  C_2
REMARK    2  A    between atoms: C_2  and  N_3
REMARK    3  A    between atoms: C_5  and  C_6
REMARK    4  A    between atoms: C_6  and  O_8
REMARK    5  A    between atoms: C_13  and  N_14
REMARK    6  A    between atoms: N_19  and  C_20
REMARK                            x       y       z     vdW  Elec       q    Type
REMARK                         _______ _______ _______ _____ _____    ______ ____
ROOT
ATOM      1  N   UNL     1       2.613   5.607  19.836  0.00  0.00    +0.000 N 
ATOM      2  C   UNL     1       3.400   4.691  19.150  0.00  0.00    +0.000 A 
ATOM      3  C   UNL     1       4.064   4.918  18.009  0.00  0.00    +0.000 A 
ATOM      4  C   UNL     1       3.928   6.267  17.434  0.00  0.00    +0.000 A 
ATOM      5  O   UNL     1       4.482   6.539  16.369  0.00  0.00    +0.000 OA
ATOM      6  C   UNL     1       3.125   7.268  18.160  0.00  0.00    +0.000 A 
ATOM      7  C   UNL     1       3.013   8.541  17.619  0.00  0.00    +0.000 A 
ATOM      8  C   UNL     1       2.258   9.500  18.282  0.00  0.00    +0.000 A 
ATOM      9  C   UNL     1       1.589   9.119  19.476  0.00  0.00    +0.000 A 
ATOM     10  N   UNL     1       0.743  10.064  20.067  0.00  0.00    +0.000 N 
ATOM     11  C   UNL     1      -0.390   9.563  20.854  0.00  0.00    +0.000 C 
ATOM     12  C   UNL     1      -1.458  10.690  20.898  0.00  0.00    +0.000 C 
ATOM     13  N   UNL     1      -0.939  11.956  21.481  0.00  0.00    +0.000 NA
ATOM     14  C   UNL     1      -1.956  13.005  21.409  0.00  0.00    +0.000 C 
ATOM     15  C   UNL     1       0.293  12.371  20.768  0.00  0.00    +0.000 C 
ATOM     16  C   UNL     1       1.361  11.243  20.702  0.00  0.00    +0.000 C 
ATOM     17  N   UNL     1       1.692   7.858  19.989  0.00  0.00    +0.000 NA
ATOM     18  C   UNL     1       2.459   6.936  19.345  0.00  0.00    +0.000 A 
ENDROOT
BRANCH   8  19
ATOM     19  N   UNL     1       1.974  10.694  17.589  0.00  0.00    +0.000 N 
ATOM     20  H   UNL     1       1.635  10.566  16.643  0.00  0.00    +0.000 HD
ATOM     21  H   UNL     1       2.712  11.383  17.682  0.00  0.00    +0.000 HD
ENDBRANCH   8  19
BRANCH   1  23
ATOM     22  C   UNL     1       1.134   3.877  20.779  0.00  0.00    +0.000 C 
ATOM     23  C   UNL     1       1.805   5.225  21.002  0.00  0.00    +0.000 C 
ENDBRANCH   1  23
BRANCH   3  24
ATOM     24  C   UNL     1       4.872   3.852  17.383  0.00  0.00    +0.000 C 
ATOM     25  O   UNL     1       4.405   2.771  17.056  0.00  0.00    +0.000 OA
BRANCH  24  26
ATOM     26  O   UNL     1       6.174   4.161  17.201  0.00  0.00    +0.000 OA
ATOM     27  H   UNL     1       6.482   4.077  16.262  0.00  0.00    +0.000 HD
ENDBRANCH  24  26
ENDBRANCH   3  24
TORSDOF 4
ENDMDL
MODEL 3
REMARK VINA RESULT:      -6.0      3.728      7.835
REMARK  Name = 
REMARK  6 active torsions:
REMARK  status: ('A' for Active; 'I' for Inactive)
REMARK    1  A    between atoms: C_1  and  C_2
REMARK    2  A    between atoms: C_2  and  N_3
REMARK    3  A    between atoms: C_5  and  C_6
REMARK    4  A    between atoms: C_6  and  O_8
REMARK    5  A    between atoms: C_13  and  N_14
REMARK    6  A    between atoms: N_19  and  C_20
REMARK                            x       y       z     vdW  Elec       q    Type
REMARK                         _______ _______ _______ _____ _____    ______ ____
ROOT
ATOM      1  N   UNL     1       0.428   9.686  20.834  0.00  0.00    +0.000 N 
ATOM      2  C   UNL     1       0.253  11.064  20.781  0.00  0.00    +0.000 A 
ATOM      3  C   UNL     1       0.782  11.894  19.872  0.00  0.00    +0.000 A 
ATOM      4  C   UNL     1       1.636  11.274  18.844  0.00  0.00    +0.000 A 
ATOM      5  O   UNL     1       2.184  11.977  17.996  0.00  0.00    +0.000 OA
ATOM      6  C   UNL     1       1.811   9.810  18.858  0.00  0.00    +0.000 A 
ATOM      7  C   UNL     1       2.606   9.231  17.878  0.00  0.00    +0.000 A 
ATOM      8  C   UNL     1       2.789   7.855  17.873  0.00  0.00    +0.000 A 
ATOM      9  C   UNL     1       2.185   7.093  18.910  0.00  0.00    +0.000 A 
ATOM     10  N   UNL     1       2.475   5.726  18.953  0.00  0.00    +0.000 N 
ATOM     11  C   UNL     1       2.428   5.063  20.262  0.00  0.00    +0.000 C 
ATOM     12  C   UNL     1       3.313   3.790  20.169  0.00  0.00    +0.000 C 
ATOM     13  N   UNL     1       2.872   2.857  19.099  0.00  0.00    +0.000 NA
ATOM     14  C   UNL     1       3.794   1.727  18.994  0.00  0.00    +0.000 C 
ATOM     15  C   UNL     1       2.781   3.579  17.806  0.00  0.00    +0.000 C 
ATOM     16  C   UNL     1       1.914   4.866  17.894  0.00  0.00    +0.000 C 
ATOM     17  N   UNL     1       1.420   7.676  19.879  0.00  0.00    +0.000 NA
ATOM     18  C   UNL     1       1.223   9.023  19.855  0.00  0.00    +0.000 A 
ENDROOT
BRANCH   8  19
ATOM     19  N   UNL     1       3.783   7.336  17.019  0.00  0.00    +0.000 N 
ATOM     20  H   UNL     1       3.600   6.402  16.673  0.00  0.00    +0.000 HD
ATOM     21  H   UNL     1       4.720   7.474  17.382  0.00  0.00    +0.000 HD
ENDBRANCH   8  19
BRANCH   1  23
ATOM     22  C   UNL     1      -0.322   9.744  23.180  0.00  0.00    +0.000 C 
ATOM     23  C   UNL     1      -0.072   8.877  21.953  0.00  0.00    +0.000 C 
ENDBRANCH   1  23
BRANCH   3  24
ATOM     24  C   UNL     1       0.512  13.344  19.928  0.00  0.00    +0.000 C 
ATOM     25  O   UNL     1       0.716  14.018  20.926  0.00  0.00    +0.000 OA
BRANCH  24  26
ATOM     26  O   UNL     1       0.015  13.872  18.789  0.00  0.00    +0.000 OA
ATOM     27  H   UNL     1       0.068  13.265  18.007  0.00  0.00    +0.000 HD
ENDBRANCH  24  26
ENDBRANCH   3  24
TORSDOF 4
ENDMDL
MODEL 4
REMARK VINA RESULT:      -6.0      3.240      4.604
REMARK  Name = 
REMARK  6 active torsions:
REMARK  status: ('A' for Active; 'I' for Inactive)
REMARK    1  A    between atoms: C_1  and  C_2
REMARK    2  A    between atoms: C_2  and  N_3
REMARK    3  A    between atoms: C_5  and  C_6
REMARK    4  A    between atoms: C_6  and  O_8
REMARK    5  A    between atoms: C_13  and  N_14
REMARK    6  A    between atoms: N_19  and  C_20
REMARK                            x       y       z     vdW  Elec       q    Type
REMARK                         _______ _______ _______ _____ _____    ______ ____
ROOT
ATOM      1  N   UNL     1       1.455  10.354  18.559  0.00  0.00    +0.000 N 
ATOM      2  C   UNL     1       2.140   9.296  17.975  0.00  0.00    +0.000 A 
ATOM      3  C   UNL     1       2.337   8.086  18.516  0.00  0.00    +0.000 A 
ATOM      4  C   UNL     1       1.775   7.877  19.861  0.00  0.00    +0.000 A 
ATOM      5  O   UNL     1       1.944   6.802  20.436  0.00  0.00    +0.000 OA
ATOM      6  C   UNL     1       1.014   8.972  20.489  0.00  0.00    +0.000 A 
ATOM      7  C   UNL     1       0.476   8.763  21.751  0.00  0.00    +0.000 A 
ATOM      8  C   UNL     1      -0.241   9.781  22.365  0.00  0.00    +0.000 A 
ATOM      9  C   UNL     1      -0.357  11.024  21.686  0.00  0.00    +0.000 A 
ATOM     10  N   UNL     1      -0.984  12.071  22.368  0.00  0.00    +0.000 N 
ATOM     11  C   UNL     1      -0.583  13.441  22.025  0.00  0.00    +0.000 C 
ATOM     12  C   UNL     1      -0.932  14.344  23.240  0.00  0.00    +0.000 C 
ATOM     13  N   UNL     1      -2.374  14.300  23.598  0.00  0.00    +0.000 NA
ATOM     14  C   UNL     1      -2.625  15.091  24.802  0.00  0.00    +0.000 C 
ATOM     15  C   UNL     1      -2.800  12.893  23.798  0.00  0.00    +0.000 C 
ATOM     16  C   UNL     1      -2.438  11.976  22.596  0.00  0.00    +0.000 C 
ATOM     17  N   UNL     1       0.193  11.224  20.452  0.00  0.00    +0.000 NA
ATOM     18  C   UNL     1       0.868  10.208  19.849  0.00  0.00    +0.000 A 
ENDROOT
BRANCH   8  19
ATOM     19  N   UNL     1      -0.563   9.617  23.727  0.00  0.00    +0.000 N 
ATOM     20  H   UNL     1       0.235   9.590  24.352  0.00  0.00    +0.000 HD
ATOM     21  H   UNL     1      -1.243   8.881  23.881  0.00  0.00    +0.000 HD
ENDBRANCH   8  19
BRANCH   1  23
ATOM     22  C   UNL     1       2.733  12.424  18.168  0.00  0.00    +0.000 C 
ATOM     23  C   UNL     1       1.416  11.691  17.951  0.00  0.00    +0.000 C 
ENDBRANCH   1  23
BRANCH   3  24
ATOM     24  C   UNL     1       3.084   7.045  17.783  0.00  0.00    +0.000 C 
ATOM     25  O   UNL     1       4.091   7.285  17.133  0.00  0.00    +0.000 OA
BRANCH  24  26
ATOM     26  O   UNL     1       2.567   5.802  17.881  0.00  0.00    +0.000 OA
ATOM     27  H   UNL     1       1.581   5.782  17.980  0.00  0.00    +0.000 HD
ENDBRANCH  24  26
ENDBRANCH   3  24
TORSDOF 4
ENDMDL
MODEL 5
REMARK VINA RESULT:      -5.8      9.303     10.589
REMARK  Name = 
REMARK  6 active torsions:
REMARK  status: ('A' for Active; 'I' for Inactive)
REMARK    1  A    between atoms: C_1  and  C_2
REMARK    2  A    between atoms: C_2  and  N_3
REMARK    3  A    between atoms: C_5  and  C_6
REMARK    4  A    between atoms: C_6  and  O_8
REMARK    5  A    between atoms: C_13  and  N_14
REMARK    6  A    between atoms: N_19  and  C_20
REMARK                            x       y       z     vdW  Elec       q    Type
REMARK                         _______ _______ _______ _____ _____    ______ ____
ROOT
ATOM      1  N   UNL     1       9.831  11.849  19.851  0.00  0.00    +0.000 N 
ATOM      2  C   UNL     1      10.471  12.361  18.729  0.00  0.00    +0.000 A 
ATOM      3  C   UNL     1      10.836  13.637  18.541  0.00  0.00    +0.000 A 
ATOM      4  C   UNL     1      10.510  14.574  19.630  0.00  0.00    +0.000 A 
ATOM      5  O   UNL     1      10.783  15.768  19.513  0.00  0.00    +0.000 OA
ATOM      6  C   UNL     1       9.862  14.049  20.845  0.00  0.00    +0.000 A 
ATOM      7  C   UNL     1       9.570  14.936  21.873  0.00  0.00    +0.000 A 
ATOM      8  C   UNL     1       8.956  14.466  23.025  0.00  0.00    +0.000 A 
ATOM      9  C   UNL     1       8.605  13.090  23.086  0.00  0.00    +0.000 A 
ATOM     10  N   UNL     1       7.886  12.660  24.206  0.00  0.00    +0.000 N 
ATOM     11  C   UNL     1       6.993  11.507  24.038  0.00  0.00    +0.000 C 
ATOM     12  C   UNL     1       5.920  11.584  25.158  0.00  0.00    +0.000 C 
ATOM     13  N   UNL     1       6.509  11.590  26.523  0.00  0.00    +0.000 NA
ATOM     14  C   UNL     1       5.461  11.760  27.530  0.00  0.00    +0.000 C 
ATOM     15  C   UNL     1       7.518  12.672  26.631  0.00  0.00    +0.000 C 
ATOM     16  C   UNL     1       8.586  12.615  25.503  0.00  0.00    +0.000 C 
ATOM     17  N   UNL     1       8.880  12.231  22.061  0.00  0.00    +0.000 NA
ATOM     18  C   UNL     1       9.511  12.698  20.949  0.00  0.00    +0.000 A 
ENDROOT
BRANCH   8  19
ATOM     19  N   UNL     1       8.465  15.424  23.935  0.00  0.00    +0.000 N 
ATOM     20  H   UNL     1       9.143  15.750  24.615  0.00  0.00    +0.000 HD
ATOM     21  H   UNL     1       7.567  15.164  24.328  0.00  0.00    +0.000 HD
ENDBRANCH   8  19
BRANCH   1  23
ATOM     22  C   UNL     1       8.967   9.966  18.518  0.00  0.00    +0.000 C 
ATOM     23  C   UNL     1       9.341  10.466  19.907  0.00  0.00    +0.000 C 
ENDBRANCH   1  23
BRANCH   3  24
ATOM     24  C   UNL     1      11.515  14.051  17.297  0.00  0.00    +0.000 C 
ATOM     25  O   UNL     1      11.360  13.472  16.232  0.00  0.00    +0.000 OA
BRANCH  24  26
ATOM     26  O   UNL     1      12.331  15.119  17.426  0.00  0.00    +0.000 OA
ATOM     27  H   UNL     1      12.189  15.820  16.740  0.00  0.00    +0.000 HD
ENDBRANCH  24  26
ENDBRANCH   3  24
TORSDOF 4
ENDMDL
MODEL 6
REMARK VINA RESULT:      -5.8      7.311     10.040
REMARK  Name = 
REMARK  6 active torsions:
REMARK  status: ('A' for Active; 'I' for Inactive)
REMARK    1  A    between atoms: C_1  and  C_2
REMARK    2  A    between atoms: C_2  and  N_3
REMARK    3  A    between atoms: C_5  and  C_6
REMARK    4  A    between atoms: C_6  and  O_8
REMARK    5  A    between atoms: C_13  and  N_14
REMARK    6  A    between atoms: N_19  and  C_20
REMARK                            x       y       z     vdW  Elec       q    Type
REMARK                         _______ _______ _______ _____ _____    ______ ____
ROOT
ATOM      1  N   UNL     1      -3.666  14.118  23.422  0.00  0.00    +0.000 N 
ATOM      2  C   UNL     1      -4.939  13.798  23.879  0.00  0.00    +0.000 A 
ATOM      3  C   UNL     1      -5.847  13.054  23.233  0.00  0.00    +0.000 A 
ATOM      4  C   UNL     1      -5.447  12.543  21.911  0.00  0.00    +0.000 A 
ATOM      5  O   UNL     1      -6.241  11.880  21.243  0.00  0.00    +0.000 OA
ATOM      6  C   UNL     1      -4.090  12.839  21.418  0.00  0.00    +0.000 A 
ATOM      7  C   UNL     1      -3.715  12.342  20.177  0.00  0.00    +0.000 A 
ATOM      8  C   UNL     1      -2.444  12.613  19.689  0.00  0.00    +0.000 A 
ATOM      9  C   UNL     1      -1.585  13.433  20.470  0.00  0.00    +0.000 A 
ATOM     10  N   UNL     1      -0.353  13.787  19.911  0.00  0.00    +0.000 N 
ATOM     11  C   UNL     1       0.246  15.058  20.337  0.00  0.00    +0.000 C 
ATOM     12  C   UNL     1       1.229  15.505  19.221  0.00  0.00    +0.000 C 
ATOM     13  N   UNL     1       2.288  14.498  18.946  0.00  0.00    +0.000 NA
ATOM     14  C   UNL     1       3.123  14.929  17.825  0.00  0.00    +0.000 C 
ATOM     15  C   UNL     1       1.669  13.181  18.661  0.00  0.00    +0.000 C 
ATOM     16  C   UNL     1       0.668  12.733  19.764  0.00  0.00    +0.000 C 
ATOM     17  N   UNL     1      -1.972  13.932  21.681  0.00  0.00    +0.000 NA
ATOM     18  C   UNL     1      -3.210  13.634  22.161  0.00  0.00    +0.000 A 
ENDROOT
BRANCH   8  19
ATOM     19  N   UNL     1      -2.186  12.298  18.340  0.00  0.00    +0.000 N 
ATOM     20  H   UNL     1      -2.659  11.469  17.999  0.00  0.00    +0.000 HD
ATOM     21  H   UNL     1      -1.199  12.343  18.111  0.00  0.00    +0.000 HD
ENDBRANCH   8  19
BRANCH   1  23
ATOM     22  C   UNL     1      -3.616  16.050  24.950  0.00  0.00    +0.000 C 
ATOM     23  C   UNL     1      -2.794  15.061  24.134  0.00  0.00    +0.000 C 
ENDBRANCH   1  23
BRANCH   3  24
ATOM     24  C   UNL     1      -7.168  12.786  23.835  0.00  0.00    +0.000 C 
ATOM     25  O   UNL     1      -7.870  13.665  24.312  0.00  0.00    +0.000 OA
BRANCH  24  26
ATOM     26  O   UNL     1      -7.542  11.489  23.824  0.00  0.00    +0.000 OA
ATOM     27  H   UNL     1      -8.245  11.277  23.158  0.00  0.00    +0.000 HD
ENDBRANCH  24  26
ENDBRANCH   3  24
TORSDOF 4
ENDMDL
MODEL 7
REMARK VINA RESULT:      -5.8      4.898      7.327
REMARK  Name = 
REMARK  6 active torsions:
REMARK  status: ('A' for Active; 'I' for Inactive)
REMARK    1  A    between atoms: C_1  and  C_2
REMARK    2  A    between atoms: C_2  and  N_3
REMARK    3  A    between atoms: C_5  and  C_6
REMARK    4  A    between atoms: C_6  and  O_8
REMARK    5  A    between atoms: C_13  and  N_14
REMARK    6  A    between atoms: N_19  and  C_20
REMARK                            x       y       z     vdW  Elec       q    Type
REMARK                         _______ _______ _______ _____ _____    ______ ____
ROOT
ATOM      1  N   UNL     1      -0.293  11.033  20.967  0.00  0.00    +0.000 N 
ATOM      2  C   UNL     1       0.630  10.287  20.245  0.00  0.00    +0.000 A 
ATOM      3  C   UNL     1       0.512   9.906  18.966  0.00  0.00    +0.000 A 
ATOM      4  C   UNL     1      -0.723  10.316  18.277  0.00  0.00    +0.000 A 
ATOM      5  O   UNL     1      -0.918   9.974  17.111  0.00  0.00    +0.000 OA
ATOM      6  C   UNL     1      -1.704  11.137  19.010  0.00  0.00    +0.000 A 
ATOM      7  C   UNL     1      -2.859  11.532  18.350  0.00  0.00    +0.000 A 
ATOM      8  C   UNL     1      -3.800  12.302  19.021  0.00  0.00    +0.000 A 
ATOM      9  C   UNL     1      -3.558  12.619  20.385  0.00  0.00    +0.000 A 
ATOM     10  N   UNL     1      -4.568  13.297  21.074  0.00  0.00    +0.000 N 
ATOM     11  C   UNL     1      -4.658  13.088  22.524  0.00  0.00    +0.000 C 
ATOM     12  C   UNL     1      -6.113  13.426  22.952  0.00  0.00    +0.000 C 
ATOM     13  N   UNL     1      -6.510  14.816  22.602  0.00  0.00    +0.000 NA
ATOM     14  C   UNL     1      -7.914  15.046  22.941  0.00  0.00    +0.000 C 
ATOM     15  C   UNL     1      -6.273  15.059  21.158  0.00  0.00    +0.000 C 
ATOM     16  C   UNL     1      -4.825  14.705  20.716  0.00  0.00    +0.000 C 
ATOM     17  N   UNL     1      -2.426  12.210  21.030  0.00  0.00    +0.000 NA
ATOM     18  C   UNL     1      -1.497  11.481  20.351  0.00  0.00    +0.000 A 
ENDROOT
BRANCH   8  19
ATOM     19  N   UNL     1      -5.054  12.478  18.402  0.00  0.00    +0.000 N 
ATOM     20  H   UNL     1      -5.466  13.395  18.532  0.00  0.00    +0.000 HD
ATOM     21  H   UNL     1      -5.686  11.705  18.576  0.00  0.00    +0.000 HD
ENDBRANCH   8  19
BRANCH   1  23
ATOM     22  C   UNL     1      -0.492  10.032  23.209  0.00  0.00    +0.000 C 
ATOM     23  C   UNL     1      -0.145  11.279  22.408  0.00  0.00    +0.000 C 
ENDBRANCH   1  23
BRANCH   3  24
ATOM     24  C   UNL     1       1.574   9.114  18.315  0.00  0.00    +0.000 C 
ATOM     25  O   UNL     1       2.015   8.078  18.790  0.00  0.00    +0.000 OA
BRANCH  24  26
ATOM     26  O   UNL     1       2.028   9.625  17.150  0.00  0.00    +0.000 OA
ATOM     27  H   UNL     1       1.732  10.555  16.976  0.00  0.00    +0.000 HD
ENDBRANCH  24  26
ENDBRANCH   3  24
TORSDOF 4
ENDMDL
MODEL 8
REMARK VINA RESULT:      -5.7      5.175      7.595
REMARK  Name = 
REMARK  6 active torsions:
REMARK  status: ('A' for Active; 'I' for Inactive)
REMARK    1  A    between atoms: C_1  and  C_2
REMARK    2  A    between atoms: C_2  and  N_3
REMARK    3  A    between atoms: C_5  and  C_6
REMARK    4  A    between atoms: C_6  and  O_8
REMARK    5  A    between atoms: C_13  and  N_14
REMARK    6  A    between atoms: N_19  and  C_20
REMARK                            x       y       z     vdW  Elec       q    Type
REMARK                         _______ _______ _______ _____ _____    ______ ____
ROOT
ATOM      1  N   UNL     1      -1.159  11.648  20.055  0.00  0.00    +0.000 N 
ATOM      2  C   UNL     1      -0.174  10.692  20.268  0.00  0.00    +0.000 A 
ATOM      3  C   UNL     1       0.132  10.120  21.441  0.00  0.00    +0.000 A 
ATOM      4  C   UNL     1      -0.651  10.566  22.606  0.00  0.00    +0.000 A 
ATOM      5  O   UNL     1      -0.404  10.110  23.722  0.00  0.00    +0.000 OA
ATOM      6  C   UNL     1      -1.724  11.555  22.401  0.00  0.00    +0.000 A 
ATOM      7  C   UNL     1      -2.467  11.960  23.501  0.00  0.00    +0.000 A 
ATOM      8  C   UNL     1      -3.480  12.895  23.334  0.00  0.00    +0.000 A 
ATOM      9  C   UNL     1      -3.686  13.436  22.036  0.00  0.00    +0.000 A 
ATOM     10  N   UNL     1      -4.633  14.458  21.911  0.00  0.00    +0.000 N 
ATOM     11  C   UNL     1      -4.440  15.434  20.831  0.00  0.00    +0.000 C 
ATOM     12  C   UNL     1      -5.206  16.725  21.231  0.00  0.00    +0.000 C 
ATOM     13  N   UNL     1      -6.655  16.488  21.464  0.00  0.00    +0.000 NA
ATOM     14  C   UNL     1      -7.304  17.714  21.929  0.00  0.00    +0.000 C 
ATOM     15  C   UNL     1      -6.835  15.395  22.451  0.00  0.00    +0.000 C 
ATOM     16  C   UNL     1      -6.057  14.105  22.070  0.00  0.00    +0.000 C 
ATOM     17  N   UNL     1      -2.937  13.044  20.964  0.00  0.00    +0.000 NA
ATOM     18  C   UNL     1      -1.967  12.104  21.137  0.00  0.00    +0.000 A 
ENDROOT
BRANCH   8  19
ATOM     19  N   UNL     1      -4.046  13.453  24.498  0.00  0.00    +0.000 N 
ATOM     20  H   UNL     1      -4.830  12.936  24.879  0.00  0.00    +0.000 HD
ATOM     21  H   UNL     1      -4.202  14.452  24.414  0.00  0.00    +0.000 HD
ENDBRANCH   8  19
BRANCH   1  23
ATOM     22  C   UNL     1      -0.205  13.330  18.528  0.00  0.00    +0.000 C 
ATOM     23  C   UNL     1      -1.324  12.325  18.762  0.00  0.00    +0.000 C 
ENDBRANCH   1  23
BRANCH   3  24
ATOM     24  C   UNL     1       1.204   9.109  21.529  0.00  0.00    +0.000 C 
ATOM     25  O   UNL     1       1.346   8.218  20.704  0.00  0.00    +0.000 OA
BRANCH  24  26
ATOM     26  O   UNL     1       2.019   9.239  22.598  0.00  0.00    +0.000 OA
ATOM     27  H   UNL     1       2.604  10.039  22.564  0.00  0.00    +0.000 HD
ENDBRANCH  24  26
ENDBRANCH   3  24
TORSDOF 4
ENDMDL
MODEL 9
REMARK VINA RESULT:      -5.7      5.140      7.516
REMARK  Name = 
REMARK  6 active torsions:
REMARK  status: ('A' for Active; 'I' for Inactive)
REMARK    1  A    between atoms: C_1  and  C_2
REMARK    2  A    between atoms: C_2  and  N_3
REMARK    3  A    between atoms: C_5  and  C_6
REMARK    4  A    between atoms: C_6  and  O_8
REMARK    5  A    between atoms: C_13  and  N_14
REMARK    6  A    between atoms: N_19  and  C_20
REMARK                            x       y       z     vdW  Elec       q    Type
REMARK                         _______ _______ _______ _____ _____    ______ ____
ROOT
ATOM      1  N   UNL     1      -2.268  11.053  18.083  0.00  0.00    +0.000 N 
ATOM      2  C   UNL     1      -1.072  10.445  17.722  0.00  0.00    +0.000 A 
ATOM      3  C   UNL     1       0.054  10.420  18.449  0.00  0.00    +0.000 A 
ATOM      4  C   UNL     1       0.006  11.117  19.746  0.00  0.00    +0.000 A 
ATOM      5  O   UNL     1       1.012  11.166  20.453  0.00  0.00    +0.000 OA
ATOM      6  C   UNL     1      -1.261  11.741  20.167  0.00  0.00    +0.000 A 
ATOM      7  C   UNL     1      -1.303  12.384  21.397  0.00  0.00    +0.000 A 
ATOM      8  C   UNL     1      -2.483  12.983  21.814  0.00  0.00    +0.000 A 
ATOM      9  C   UNL     1      -3.599  12.952  20.935  0.00  0.00    +0.000 A 
ATOM     10  N   UNL     1      -4.742  13.658  21.323  0.00  0.00    +0.000 N 
ATOM     11  C   UNL     1      -5.613  14.177  20.262  0.00  0.00    +0.000 C 
ATOM     12  C   UNL     1      -6.424  15.358  20.863  0.00  0.00    +0.000 C 
ATOM     13  N   UNL     1      -7.228  14.963  22.048  0.00  0.00    +0.000 NA
ATOM     14  C   UNL     1      -7.892  16.131  22.627  0.00  0.00    +0.000 C 
ATOM     15  C   UNL     1      -6.357  14.306  23.053  0.00  0.00    +0.000 C 
ATOM     16  C   UNL     1      -5.527  13.134  22.456  0.00  0.00    +0.000 C 
ATOM     17  N   UNL     1      -3.541  12.333  19.719  0.00  0.00    +0.000 NA
ATOM     18  C   UNL     1      -2.386  11.723  19.335  0.00  0.00    +0.000 A 
ENDROOT
BRANCH   8  19
ATOM     19  N   UNL     1      -2.421  13.822  22.946  0.00  0.00    +0.000 N 
ATOM     20  H   UNL     1      -2.699  14.782  22.778  0.00  0.00    +0.000 HD
ATOM     21  H   UNL     1      -1.553  13.718  23.460  0.00  0.00    +0.000 HD
ENDBRANCH   8  19
BRANCH   1  23
ATOM     22  C   UNL     1      -2.971  10.843  15.732  0.00  0.00    +0.000 C 
ATOM     23  C   UNL     1      -3.404  11.153  17.158  0.00  0.00    +0.000 C 
ENDBRANCH   1  23
BRANCH   3  24
ATOM     24  C   UNL     1       1.260   9.733  17.947  0.00  0.00    +0.000 C 
ATOM     25  O   UNL     1       1.363   8.516  17.910  0.00  0.00    +0.000 OA
BRANCH  24  26
ATOM     26  O   UNL     1       2.249  10.554  17.535  0.00  0.00    +0.000 OA
ATOM     27  H   UNL     1       2.507  10.430  16.585  0.00  0.00    +0.000 HD
ENDBRANCH  24  26
ENDBRANCH   3  24
TORSDOF 4
ENDMDL
