MODEL 1
REMARK VINA RESULT:      -7.4      0.000      0.000
REMARK  Name = 
REMARK  2 active torsions:
REMARK  status: ('A' for Active; 'I' for Inactive)
REMARK    1  A    between atoms: C_2  and  C_11
REMARK    2  A    between atoms: N_3  and  N_4
REMARK                            x       y       z     vdW  Elec       q    Type
REMARK                         _______ _______ _______ _____ _____    ______ ____
ROOT
ATOM      1  O   UNL     1       6.833   5.195  19.280  0.00  0.00    +0.000 OA
ATOM      2  C   UNL     1       6.212   4.635  18.381  0.00  0.00    +0.000 C 
ATOM      3  N   UNL     1       6.777   4.408  17.140  0.00  0.00    +0.000 N 
ATOM      4  H   UNL     1       7.783   4.521  17.001  0.00  0.00    +0.000 HD
ENDROOT
BRANCH   3   5
ATOM      5  N   UNL     1       6.059   3.823  16.090  0.00  0.00    +0.000 N 
ATOM      6  C   UNL     1       6.550   4.174  14.808  0.00  0.00    +0.000 A 
ATOM      7  C   UNL     1       6.052   3.465  13.716  0.00  0.00    +0.000 A 
ATOM      8  C   UNL     1       6.502   3.776  12.438  0.00  0.00    +0.000 A 
ATOM      9  C   UNL     1       7.434   4.794  12.283  0.00  0.00    +0.000 A 
ATOM     10  C   UNL     1       7.883   5.447  13.418  0.00  0.00    +0.000 A 
ATOM     11  N   UNL     1       7.468   5.158  14.673  0.00  0.00    +0.000 NA
ATOM     12  H   UNL     1       5.060   4.032  16.128  0.00  0.00    +0.000 HD
ENDBRANCH   3   5
BRANCH   2  13
ATOM     13  C   UNL     1       4.801   4.238  18.619  0.00  0.00    +0.000 A 
ATOM     14  C   UNL     1       3.759   5.074  18.212  0.00  0.00    +0.000 A 
ATOM     15  C   UNL     1       2.439   4.660  18.402  0.00  0.00    +0.000 A 
ATOM     16  C   UNL     1       2.220   3.429  19.000  0.00  0.00    +0.000 A 
ATOM     17 CL   UNL     1       0.634   2.816  19.212  0.00  0.00    +0.000 Cl
ATOM     18  N   UNL     1       3.197   2.615  19.447  0.00  0.00    +0.000 NA
ATOM     19  C   UNL     1       4.467   3.054  19.266  0.00  0.00    +0.000 A 
ENDBRANCH   2  13
TORSDOF 2
ENDMDL
MODEL 2
REMARK VINA RESULT:      -7.4      3.586      6.489
REMARK  Name = 
REMARK  2 active torsions:
REMARK  status: ('A' for Active; 'I' for Inactive)
REMARK    1  A    between atoms: C_2  and  C_11
REMARK    2  A    between atoms: N_3  and  N_4
REMARK                            x       y       z     vdW  Elec       q    Type
REMARK                         _______ _______ _______ _____ _____    ______ ____
ROOT
ATOM      1  O   UNL     1       5.982   3.378  15.611  0.00  0.00    +0.000 OA
ATOM      2  C   UNL     1       5.429   4.120  16.419  0.00  0.00    +0.000 C 
ATOM      3  N   UNL     1       4.098   3.962  16.757  0.00  0.00    +0.000 N 
ATOM      4  H   UNL     1       3.596   3.112  16.496  0.00  0.00    +0.000 HD
ENDROOT
BRANCH   3   5
ATOM      5  N   UNL     1       3.444   4.837  17.632  0.00  0.00    +0.000 N 
ATOM      6  C   UNL     1       2.645   4.173  18.598  0.00  0.00    +0.000 A 
ATOM      7  C   UNL     1       2.143   4.940  19.648  0.00  0.00    +0.000 A 
ATOM      8  C   UNL     1       1.352   4.334  20.617  0.00  0.00    +0.000 A 
ATOM      9  C   UNL     1       1.077   2.977  20.508  0.00  0.00    +0.000 A 
ATOM     10  C   UNL     1       1.618   2.285  19.439  0.00  0.00    +0.000 A 
ATOM     11  N   UNL     1       2.397   2.849  18.487  0.00  0.00    +0.000 NA
ATOM     12  H   UNL     1       2.867   5.526  17.147  0.00  0.00    +0.000 HD
ENDBRANCH   3   5
BRANCH   2  13
ATOM     13  C   UNL     1       6.200   5.245  17.008  0.00  0.00    +0.000 A 
ATOM     14  C   UNL     1       6.993   5.036  18.139  0.00  0.00    +0.000 A 
ATOM     15  C   UNL     1       7.747   6.095  18.647  0.00  0.00    +0.000 A 
ATOM     16  C   UNL     1       7.667   7.322  18.005  0.00  0.00    +0.000 A 
ATOM     17 CL   UNL     1       8.608   8.657  18.524  0.00  0.00    +0.000 Cl
ATOM     18  N   UNL     1       6.880   7.574  16.941  0.00  0.00    +0.000 NA
ATOM     19  C   UNL     1       6.145   6.531  16.483  0.00  0.00    +0.000 A 
ENDBRANCH   2  13
TORSDOF 2
ENDMDL
MODEL 3
REMARK VINA RESULT:      -7.4      2.966      4.099
REMARK  Name = 
REMARK  2 active torsions:
REMARK  status: ('A' for Active; 'I' for Inactive)
REMARK    1  A    between atoms: C_2  and  C_11
REMARK    2  A    between atoms: N_3  and  N_4
REMARK                            x       y       z     vdW  Elec       q    Type
REMARK                         _______ _______ _______ _____ _____    ______ ____
ROOT
ATOM      1  O   UNL     1       2.339   2.674  17.229  0.00  0.00    +0.000 OA
ATOM      2  C   UNL     1       3.139   3.279  17.937  0.00  0.00    +0.000 C 
ATOM      3  N   UNL     1       4.453   2.868  18.063  0.00  0.00    +0.000 N 
ATOM      4  H   UNL     1       4.841   2.174  17.421  0.00  0.00    +0.000 HD
ENDROOT
BRANCH   3   5
ATOM      5  N   UNL     1       5.358   3.516  18.912  0.00  0.00    +0.000 N 
ATOM      6  C   UNL     1       6.080   4.557  18.277  0.00  0.00    +0.000 A 
ATOM      7  C   UNL     1       6.829   5.405  19.092  0.00  0.00    +0.000 A 
ATOM      8  C   UNL     1       7.555   6.439  18.514  0.00  0.00    +0.000 A 
ATOM      9  C   UNL     1       7.520   6.596  17.135  0.00  0.00    +0.000 A 
ATOM     10  C   UNL     1       6.748   5.717  16.396  0.00  0.00    +0.000 A 
ATOM     11  N   UNL     1       6.025   4.707  16.934  0.00  0.00    +0.000 NA
ATOM     12  H   UNL     1       6.023   2.873  19.347  0.00  0.00    +0.000 HD
ENDBRANCH   3   5
BRANCH   2  13
ATOM     13  C   UNL     1       2.667   4.450  18.719  0.00  0.00    +0.000 A 
ATOM     14  C   UNL     1       2.096   4.268  19.980  0.00  0.00    +0.000 A 
ATOM     15  C   UNL     1       1.704   5.386  20.718  0.00  0.00    +0.000 A 
ATOM     16  C   UNL     1       1.892   6.639  20.156  0.00  0.00    +0.000 A 
ATOM     17 CL   UNL     1       1.498   8.066  21.020  0.00  0.00    +0.000 Cl
ATOM     18  N   UNL     1       2.397   6.853  18.925  0.00  0.00    +0.000 NA
ATOM     19  C   UNL     1       2.750   5.748  18.226  0.00  0.00    +0.000 A 
ENDBRANCH   2  13
TORSDOF 2
ENDMDL
MODEL 4
REMARK VINA RESULT:      -7.3      3.017      4.009
REMARK  Name = 
REMARK  2 active torsions:
REMARK  status: ('A' for Active; 'I' for Inactive)
REMARK    1  A    between atoms: C_2  and  C_11
REMARK    2  A    between atoms: N_3  and  N_4
REMARK                            x       y       z     vdW  Elec       q    Type
REMARK                         _______ _______ _______ _____ _____    ______ ____
ROOT
ATOM      1  O   UNL     1       2.273   2.964  17.164  0.00  0.00    +0.000 OA
ATOM      2  C   UNL     1       3.114   3.495  17.885  0.00  0.00    +0.000 C 
ATOM      3  N   UNL     1       4.397   2.994  17.996  0.00  0.00    +0.000 N 
ATOM      4  H   UNL     1       4.736   2.292  17.336  0.00  0.00    +0.000 HD
ENDROOT
BRANCH   3   5
ATOM      5  N   UNL     1       5.344   3.557  18.859  0.00  0.00    +0.000 N 
ATOM      6  C   UNL     1       6.086   4.612  18.269  0.00  0.00    +0.000 A 
ATOM      7  C   UNL     1       6.884   5.382  19.114  0.00  0.00    +0.000 A 
ATOM      8  C   UNL     1       7.632   6.425  18.581  0.00  0.00    +0.000 A 
ATOM      9  C   UNL     1       7.568   6.668  17.216  0.00  0.00    +0.000 A 
ATOM     10  C   UNL     1       6.748   5.863  16.446  0.00  0.00    +0.000 A 
ATOM     11  N   UNL     1       6.003   4.846  16.940  0.00  0.00    +0.000 NA
ATOM     12  H   UNL     1       5.997   2.867  19.235  0.00  0.00    +0.000 HD
ENDBRANCH   3   5
BRANCH   2  13
ATOM     13  C   UNL     1       2.723   4.676  18.698  0.00  0.00    +0.000 A 
ATOM     14  C   UNL     1       2.836   5.962  18.165  0.00  0.00    +0.000 A 
ATOM     15  C   UNL     1       2.417   7.054  18.928  0.00  0.00    +0.000 A 
ATOM     16  C   UNL     1       1.910   6.811  20.195  0.00  0.00    +0.000 A 
ATOM     17 CL   UNL     1       1.315   8.087  21.171  0.00  0.00    +0.000 Cl
ATOM     18  N   UNL     1       1.827   5.590  20.760  0.00  0.00    +0.000 NA
ATOM     19  C   UNL     1       2.260   4.553  20.003  0.00  0.00    +0.000 A 
ENDBRANCH   2  13
TORSDOF 2
ENDMDL
MODEL 5
REMARK VINA RESULT:      -7.3      3.728      6.429
REMARK  Name = 
REMARK  2 active torsions:
REMARK  status: ('A' for Active; 'I' for Inactive)
REMARK    1  A    between atoms: C_2  and  C_11
REMARK    2  A    between atoms: N_3  and  N_4
REMARK                            x       y       z     vdW  Elec       q    Type
REMARK                         _______ _______ _______ _____ _____    ______ ____
ROOT
ATOM      1  O   UNL     1       5.490   3.766  19.437  0.00  0.00    +0.000 OA
ATOM      2  C   UNL     1       5.090   4.594  18.622  0.00  0.00    +0.000 C 
ATOM      3  N   UNL     1       4.035   5.441  18.905  0.00  0.00    +0.000 N 
ATOM      4  H   UNL     1       3.691   5.535  19.862  0.00  0.00    +0.000 HD
ENDROOT
BRANCH   3   5
ATOM      5  N   UNL     1       3.535   6.347  17.963  0.00  0.00    +0.000 N 
ATOM      6  C   UNL     1       2.720   7.358  18.533  0.00  0.00    +0.000 A 
ATOM      7  C   UNL     1       2.369   8.432  17.716  0.00  0.00    +0.000 A 
ATOM      8  C   UNL     1       1.569   9.446  18.229  0.00  0.00    +0.000 A 
ATOM      9  C   UNL     1       1.135   9.358  19.545  0.00  0.00    +0.000 A 
ATOM     10  C   UNL     1       1.532   8.263  20.293  0.00  0.00    +0.000 A 
ATOM     11  N   UNL     1       2.316   7.267  19.820  0.00  0.00    +0.000 NA
ATOM     12  H   UNL     1       3.015   5.891  17.211  0.00  0.00    +0.000 HD
ENDBRANCH   3   5
BRANCH   2  13
ATOM     13  C   UNL     1       5.726   4.649  17.281  0.00  0.00    +0.000 A 
ATOM     14  C   UNL     1       5.240   3.852  16.242  0.00  0.00    +0.000 A 
ATOM     15  C   UNL     1       5.821   3.955  14.976  0.00  0.00    +0.000 A 
ATOM     16  C   UNL     1       6.870   4.846  14.808  0.00  0.00    +0.000 A 
ATOM     17 CL   UNL     1       7.597   5.081  13.274  0.00  0.00    +0.000 Cl
ATOM     18  N   UNL     1       7.395   5.598  15.796  0.00  0.00    +0.000 NA
ATOM     19  C   UNL     1       6.823   5.461  17.017  0.00  0.00    +0.000 A 
ENDBRANCH   2  13
TORSDOF 2
ENDMDL
MODEL 6
REMARK VINA RESULT:      -7.1      1.076      1.396
REMARK  Name = 
REMARK  2 active torsions:
REMARK  status: ('A' for Active; 'I' for Inactive)
REMARK    1  A    between atoms: C_2  and  C_11
REMARK    2  A    between atoms: N_3  and  N_4
REMARK                            x       y       z     vdW  Elec       q    Type
REMARK                         _______ _______ _______ _____ _____    ______ ____
ROOT
ATOM      1  O   UNL     1       7.496   5.311  19.299  0.00  0.00    +0.000 OA
ATOM      2  C   UNL     1       6.703   4.818  18.502  0.00  0.00    +0.000 C 
ATOM      3  N   UNL     1       7.082   4.469  17.220  0.00  0.00    +0.000 N 
ATOM      4  H   UNL     1       8.071   4.429  16.967  0.00  0.00    +0.000 HD
ENDROOT
BRANCH   3   5
ATOM      5  N   UNL     1       6.172   3.960  16.286  0.00  0.00    +0.000 N 
ATOM      6  C   UNL     1       6.551   4.203  14.942  0.00  0.00    +0.000 A 
ATOM      7  C   UNL     1       5.835   3.539  13.946  0.00  0.00    +0.000 A 
ATOM      8  C   UNL     1       6.168   3.748  12.613  0.00  0.00    +0.000 A 
ATOM      9  C   UNL     1       7.204   4.621  12.308  0.00  0.00    +0.000 A 
ATOM     10  C   UNL     1       7.870   5.236  13.354  0.00  0.00    +0.000 A 
ATOM     11  N   UNL     1       7.571   5.044  14.660  0.00  0.00    +0.000 NA
ATOM     12  H   UNL     1       5.222   4.308  16.428  0.00  0.00    +0.000 HD
ENDBRANCH   3   5
BRANCH   2  13
ATOM     13  C   UNL     1       5.286   4.641  18.914  0.00  0.00    +0.000 A 
ATOM     14  C   UNL     1       4.808   3.374  19.255  0.00  0.00    +0.000 A 
ATOM     15  C   UNL     1       3.487   3.238  19.685  0.00  0.00    +0.000 A 
ATOM     16  C   UNL     1       2.699   4.376  19.748  0.00  0.00    +0.000 A 
ATOM     17 CL   UNL     1       1.087   4.308  20.326  0.00  0.00    +0.000 Cl
ATOM     18  N   UNL     1       3.110   5.607  19.385  0.00  0.00    +0.000 NA
ATOM     19  C   UNL     1       4.391   5.704  18.952  0.00  0.00    +0.000 A 
ENDBRANCH   2  13
TORSDOF 2
ENDMDL
MODEL 7
REMARK VINA RESULT:      -7.1      2.676      5.925
REMARK  Name = 
REMARK  2 active torsions:
REMARK  status: ('A' for Active; 'I' for Inactive)
REMARK    1  A    between atoms: C_2  and  C_11
REMARK    2  A    between atoms: N_3  and  N_4
REMARK                            x       y       z     vdW  Elec       q    Type
REMARK                         _______ _______ _______ _____ _____    ______ ____
ROOT
ATOM      1  O   UNL     1       6.888   6.501  18.597  0.00  0.00    +0.000 OA
ATOM      2  C   UNL     1       6.336   5.434  18.337  0.00  0.00    +0.000 C 
ATOM      3  N   UNL     1       5.806   4.630  19.327  0.00  0.00    +0.000 N 
ATOM      4  H   UNL     1       5.684   4.990  20.275  0.00  0.00    +0.000 HD
ENDROOT
BRANCH   3   5
ATOM      5  N   UNL     1       5.228   3.386  19.047  0.00  0.00    +0.000 N 
ATOM      6  C   UNL     1       3.849   3.321  19.370  0.00  0.00    +0.000 A 
ATOM      7  C   UNL     1       3.138   2.211  18.916  0.00  0.00    +0.000 A 
ATOM      8  C   UNL     1       1.784   2.102  19.210  0.00  0.00    +0.000 A 
ATOM      9  C   UNL     1       1.176   3.102  19.957  0.00  0.00    +0.000 A 
ATOM     10  C   UNL     1       1.949   4.175  20.365  0.00  0.00    +0.000 A 
ATOM     11  N   UNL     1       3.266   4.309  20.085  0.00  0.00    +0.000 NA
ATOM     12  H   UNL     1       5.710   2.612  19.508  0.00  0.00    +0.000 HD
ENDBRANCH   3   5
BRANCH   2  13
ATOM     13  C   UNL     1       6.285   4.976  16.924  0.00  0.00    +0.000 A 
ATOM     14  C   UNL     1       5.055   4.738  16.308  0.00  0.00    +0.000 A 
ATOM     15  C   UNL     1       5.029   4.355  14.966  0.00  0.00    +0.000 A 
ATOM     16  C   UNL     1       6.237   4.219  14.301  0.00  0.00    +0.000 A 
ATOM     17 CL   UNL     1       6.292   3.815  12.636  0.00  0.00    +0.000 Cl
ATOM     18  N   UNL     1       7.445   4.396  14.873  0.00  0.00    +0.000 NA
ATOM     19  C   UNL     1       7.438   4.748  16.181  0.00  0.00    +0.000 A 
ENDBRANCH   2  13
TORSDOF 2
ENDMDL
MODEL 8
REMARK VINA RESULT:      -7.0      2.673      5.900
REMARK  Name = 
REMARK  2 active torsions:
REMARK  status: ('A' for Active; 'I' for Inactive)
REMARK    1  A    between atoms: C_2  and  C_11
REMARK    2  A    between atoms: N_3  and  N_4
REMARK                            x       y       z     vdW  Elec       q    Type
REMARK                         _______ _______ _______ _____ _____    ______ ____
ROOT
ATOM      1  O   UNL     1       6.889   5.847  19.256  0.00  0.00    +0.000 OA
ATOM      2  C   UNL     1       6.221   4.905  18.839  0.00  0.00    +0.000 C 
ATOM      3  N   UNL     1       5.614   4.007  19.697  0.00  0.00    +0.000 N 
ATOM      4  H   UNL     1       5.542   4.214  20.694  0.00  0.00    +0.000 HD
ENDROOT
BRANCH   3   5
ATOM      5  N   UNL     1       4.899   2.898  19.231  0.00  0.00    +0.000 N 
ATOM      6  C   UNL     1       3.504   2.988  19.465  0.00  0.00    +0.000 A 
ATOM      7  C   UNL     1       2.688   2.049  18.837  0.00  0.00    +0.000 A 
ATOM      8  C   UNL     1       1.314   2.096  19.039  0.00  0.00    +0.000 A 
ATOM      9  C   UNL     1       0.790   3.077  19.870  0.00  0.00    +0.000 A 
ATOM     10  C   UNL     1       1.666   3.976  20.453  0.00  0.00    +0.000 A 
ATOM     11  N   UNL     1       3.006   3.958  20.266  0.00  0.00    +0.000 NA
ATOM     12  H   UNL     1       5.240   2.015  19.617  0.00  0.00    +0.000 HD
ENDBRANCH   3   5
BRANCH   2  13
ATOM     13  C   UNL     1       6.106   4.698  17.372  0.00  0.00    +0.000 A 
ATOM     14  C   UNL     1       7.255   4.540  16.594  0.00  0.00    +0.000 A 
ATOM     15  C   UNL     1       7.123   4.298  15.226  0.00  0.00    +0.000 A 
ATOM     16  C   UNL     1       5.845   4.233  14.694  0.00  0.00    +0.000 A 
ATOM     17 CL   UNL     1       5.591   3.877  13.036  0.00  0.00    +0.000 Cl
ATOM     18  N   UNL     1       4.714   4.425  15.403  0.00  0.00    +0.000 NA
ATOM     19  C   UNL     1       4.876   4.678  16.724  0.00  0.00    +0.000 A 
ENDBRANCH   2  13
TORSDOF 2
ENDMDL
MODEL 9
REMARK VINA RESULT:      -7.0      3.644      5.474
REMARK  Name = 
REMARK  2 active torsions:
REMARK  status: ('A' for Active; 'I' for Inactive)
REMARK    1  A    between atoms: C_2  and  C_11
REMARK    2  A    between atoms: N_3  and  N_4
REMARK                            x       y       z     vdW  Elec       q    Type
REMARK                         _______ _______ _______ _____ _____    ______ ____
ROOT
ATOM      1  O   UNL     1       6.737   5.126  19.715  0.00  0.00    +0.000 OA
ATOM      2  C   UNL     1       5.733   4.782  19.096  0.00  0.00    +0.000 C 
ATOM      3  N   UNL     1       5.535   3.472  18.702  0.00  0.00    +0.000 N 
ATOM      4  H   UNL     1       6.116   2.724  19.084  0.00  0.00    +0.000 HD
ENDROOT
BRANCH   3   5
ATOM      5  N   UNL     1       4.424   3.082  17.946  0.00  0.00    +0.000 N 
ATOM      6  C   UNL     1       3.262   2.856  18.727  0.00  0.00    +0.000 A 
ATOM      7  C   UNL     1       2.057   2.691  18.047  0.00  0.00    +0.000 A 
ATOM      8  C   UNL     1       0.892   2.465  18.770  0.00  0.00    +0.000 A 
ATOM      9  C   UNL     1       0.962   2.403  20.155  0.00  0.00    +0.000 A 
ATOM     10  C   UNL     1       2.196   2.582  20.756  0.00  0.00    +0.000 A 
ATOM     11  N   UNL     1       3.343   2.812  20.076  0.00  0.00    +0.000 NA
ATOM     12  H   UNL     1       4.603   2.253  17.377  0.00  0.00    +0.000 HD
ENDBRANCH   3   5
BRANCH   2  13
ATOM     13  C   UNL     1       4.734   5.814  18.716  0.00  0.00    +0.000 A 
ATOM     14  C   UNL     1       4.886   6.534  17.529  0.00  0.00    +0.000 A 
ATOM     15  C   UNL     1       3.909   7.464  17.168  0.00  0.00    +0.000 A 
ATOM     16  C   UNL     1       2.826   7.638  18.015  0.00  0.00    +0.000 A 
ATOM     17 CL   UNL     1       1.552   8.712  17.616  0.00  0.00    +0.000 Cl
ATOM     18  N   UNL     1       2.668   6.995  19.189  0.00  0.00    +0.000 NA
ATOM     19  C   UNL     1       3.642   6.114  19.523  0.00  0.00    +0.000 A 
ENDBRANCH   2  13
TORSDOF 2
ENDMDL
