MODEL 1
REMARK VINA RESULT:      -6.7      0.000      0.000
REMARK  Name = 
REMARK  8 active torsions:
REMARK  status: ('A' for Active; 'I' for Inactive)
REMARK    1  A    between atoms: C_1  and  C_2
REMARK    2  A    between atoms: C_2  and  C_3
REMARK    3  A    between atoms: C_6  and  O_7
REMARK    4  A    between atoms: N_11  and  C_12
REMARK    5  A    between atoms: C_12  and  O_13
REMARK    6  A    between atoms: O_13  and  C_14
REMARK    7  A    between atoms: C_14  and  C_15
REMARK    8  A    between atoms: C_15  and  O_16
REMARK                            x       y       z     vdW  Elec       q    Type
REMARK                         _______ _______ _______ _____ _____    ______ ____
ROOT
ATOM      1  C   UNL     1       2.348   3.690  19.546  0.00  0.00    +0.000 A 
ATOM      2  C   UNL     1       3.569   4.140  20.002  0.00  0.00    +0.000 A 
ATOM      3  N   UNL     1       4.360   4.279  18.886  0.00  0.00    +0.000 N 
ATOM      4  C   UNL     1       5.699   4.689  18.751  0.00  0.00    +0.000 A 
ATOM      5  C   UNL     1       6.199   4.718  17.507  0.00  0.00    +0.000 A 
ATOM      6  N   UNL     1       7.447   5.042  16.980  0.00  0.00    +0.000 NA
ATOM      7  C   UNL     1       7.300   4.843  15.690  0.00  0.00    +0.000 A 
ATOM      8  N   UNL     1       6.060   4.417  15.293  0.00  0.00    +0.000 N 
ATOM      9  C   UNL     1       5.269   4.298  16.397  0.00  0.00    +0.000 A 
ATOM     10  N   UNL     1       4.042   3.924  16.509  0.00  0.00    +0.000 NA
ATOM     11  C   UNL     1       3.566   3.909  17.786  0.00  0.00    +0.000 A 
ATOM     12  N   UNL     1       2.364   3.556  18.183  0.00  0.00    +0.000 NA
ENDROOT
BRANCH   1  14
ATOM     13  C   UNL     1       1.405   2.688  21.630  0.00  0.00    +0.000 C 
ATOM     14  C   UNL     1       1.108   3.352  20.296  0.00  0.00    +0.000 C 
ENDBRANCH   1  14
BRANCH   4  15
ATOM     15  O   UNL     1       6.479   5.044  19.842  0.00  0.00    +0.000 OA
ATOM     16  H   UNL     1       7.271   4.486  19.877  0.00  0.00    +0.000 HD
ENDBRANCH   4  15
BRANCH   8  17
ATOM     17  C   UNL     1       5.644   4.076  13.968  0.00  0.00    +0.000 C 
BRANCH  17  18
ATOM     18  O   UNL     1       6.744   4.016  13.059  0.00  0.00    +0.000 OA
BRANCH  18  19
ATOM     19  C   UNL     1       6.379   3.437  11.797  0.00  0.00    +0.000 C 
BRANCH  19  20
ATOM     20  C   UNL     1       4.970   2.874  11.935  0.00  0.00    +0.000 C 
BRANCH  20  21
ATOM     21  O   UNL     1       4.112   3.485  10.973  0.00  0.00    +0.000 OA
ATOM     22  H   UNL     1       3.560   2.759  10.623  0.00  0.00    +0.000 HD
ENDBRANCH  20  21
ENDBRANCH  19  20
ENDBRANCH  18  19
ENDBRANCH  17  18
ENDBRANCH   8  17
TORSDOF 7
ENDMDL
MODEL 2
REMARK VINA RESULT:      -6.5      3.556      7.521
REMARK  Name = 
REMARK  8 active torsions:
REMARK  status: ('A' for Active; 'I' for Inactive)
REMARK    1  A    between atoms: C_1  and  C_2
REMARK    2  A    between atoms: C_2  and  C_3
REMARK    3  A    between atoms: C_6  and  O_7
REMARK    4  A    between atoms: N_11  and  C_12
REMARK    5  A    between atoms: C_12  and  O_13
REMARK    6  A    between atoms: O_13  and  C_14
REMARK    7  A    between atoms: C_14  and  C_15
REMARK    8  A    between atoms: C_15  and  O_16
REMARK                            x       y       z     vdW  Elec       q    Type
REMARK                         _______ _______ _______ _____ _____    ______ ____
ROOT
ATOM      1  C   UNL     1       5.749   4.682  15.495  0.00  0.00    +0.000 A 
ATOM      2  C   UNL     1       5.446   3.598  16.292  0.00  0.00    +0.000 A 
ATOM      3  N   UNL     1       4.636   4.081  17.293  0.00  0.00    +0.000 N 
ATOM      4  C   UNL     1       4.040   3.431  18.389  0.00  0.00    +0.000 A 
ATOM      5  C   UNL     1       3.295   4.190  19.207  0.00  0.00    +0.000 A 
ATOM      6  N   UNL     1       2.577   3.928  20.372  0.00  0.00    +0.000 NA
ATOM      7  C   UNL     1       2.087   5.101  20.705  0.00  0.00    +0.000 A 
ATOM      8  N   UNL     1       2.404   6.136  19.864  0.00  0.00    +0.000 N 
ATOM      9  C   UNL     1       3.190   5.653  18.861  0.00  0.00    +0.000 A 
ATOM     10  N   UNL     1       3.729   6.257  17.859  0.00  0.00    +0.000 NA
ATOM     11  C   UNL     1       4.477   5.456  17.047  0.00  0.00    +0.000 A 
ATOM     12  N   UNL     1       5.144   5.813  15.974  0.00  0.00    +0.000 NA
ENDROOT
BRANCH   1  14
ATOM     13  C   UNL     1       6.174   3.767  13.211  0.00  0.00    +0.000 C 
ATOM     14  C   UNL     1       6.594   4.769  14.273  0.00  0.00    +0.000 C 
ENDBRANCH   1  14
BRANCH   4  15
ATOM     15  O   UNL     1       4.210   2.076  18.630  0.00  0.00    +0.000 OA
ATOM     16  H   UNL     1       4.601   1.650  17.851  0.00  0.00    +0.000 HD
ENDBRANCH   4  15
BRANCH   8  17
ATOM     17  C   UNL     1       2.051   7.513  20.016  0.00  0.00    +0.000 C 
BRANCH  17  18
ATOM     18  O   UNL     1       1.054   7.704  21.020  0.00  0.00    +0.000 OA
BRANCH  18  19
ATOM     19  C   UNL     1       1.117   9.013  21.610  0.00  0.00    +0.000 C 
BRANCH  19  20
ATOM     20  C   UNL     1      -0.083   9.162  22.536  0.00  0.00    +0.000 C 
BRANCH  20  21
ATOM     21  O   UNL     1       0.332   9.747  23.769  0.00  0.00    +0.000 OA
ATOM     22  H   UNL     1      -0.406  10.327  24.040  0.00  0.00    +0.000 HD
ENDBRANCH  20  21
ENDBRANCH  19  20
ENDBRANCH  18  19
ENDBRANCH  17  18
ENDBRANCH   8  17
TORSDOF 7
ENDMDL
MODEL 3
REMARK VINA RESULT:      -6.4      1.586      1.767
REMARK  Name = 
REMARK  8 active torsions:
REMARK  status: ('A' for Active; 'I' for Inactive)
REMARK    1  A    between atoms: C_1  and  C_2
REMARK    2  A    between atoms: C_2  and  C_3
REMARK    3  A    between atoms: C_6  and  O_7
REMARK    4  A    between atoms: N_11  and  C_12
REMARK    5  A    between atoms: C_12  and  O_13
REMARK    6  A    between atoms: O_13  and  C_14
REMARK    7  A    between atoms: C_14  and  C_15
REMARK    8  A    between atoms: C_15  and  O_16
REMARK                            x       y       z     vdW  Elec       q    Type
REMARK                         _______ _______ _______ _____ _____    ______ ____
ROOT
ATOM      1  C   UNL     1       3.904   3.425  19.411  0.00  0.00    +0.000 A 
ATOM      2  C   UNL     1       5.104   4.101  19.450  0.00  0.00    +0.000 A 
ATOM      3  N   UNL     1       5.493   4.256  18.140  0.00  0.00    +0.000 N 
ATOM      4  C   UNL     1       6.637   4.856  17.583  0.00  0.00    +0.000 A 
ATOM      5  C   UNL     1       6.733   4.845  16.246  0.00  0.00    +0.000 A 
ATOM      6  N   UNL     1       7.691   5.309  15.347  0.00  0.00    +0.000 NA
ATOM      7  C   UNL     1       7.208   4.969  14.174  0.00  0.00    +0.000 A 
ATOM      8  N   UNL     1       6.002   4.319  14.196  0.00  0.00    +0.000 N 
ATOM      9  C   UNL     1       5.607   4.183  15.494  0.00  0.00    +0.000 A 
ATOM     10  N   UNL     1       4.555   3.633  15.993  0.00  0.00    +0.000 NA
ATOM     11  C   UNL     1       4.488   3.664  17.354  0.00  0.00    +0.000 A 
ATOM     12  N   UNL     1       3.540   3.167  18.116  0.00  0.00    +0.000 NA
ENDROOT
BRANCH   1  14
ATOM     13  C   UNL     1       1.634   2.588  20.031  0.00  0.00    +0.000 C 
ATOM     14  C   UNL     1       3.021   2.970  20.519  0.00  0.00    +0.000 C 
ENDBRANCH   1  14
BRANCH   4  15
ATOM     15  O   UNL     1       7.628   5.430  18.366  0.00  0.00    +0.000 OA
ATOM     16  H   UNL     1       8.161   4.736  18.784  0.00  0.00    +0.000 HD
ENDBRANCH   4  15
BRANCH   8  17
ATOM     17  C   UNL     1       5.281   3.793  13.078  0.00  0.00    +0.000 C 
BRANCH  17  18
ATOM     18  O   UNL     1       6.149   3.211  12.106  0.00  0.00    +0.000 OA
BRANCH  18  19
ATOM     19  C   UNL     1       5.561   2.069  11.463  0.00  0.00    +0.000 C 
BRANCH  19  20
ATOM     20  C   UNL     1       6.686   1.103  11.114  0.00  0.00    +0.000 C 
BRANCH  20  21
ATOM     21  O   UNL     1       6.208  -0.239  11.186  0.00  0.00    +0.000 OA
ATOM     22  H   UNL     1       6.995  -0.782  11.385  0.00  0.00    +0.000 HD
ENDBRANCH  20  21
ENDBRANCH  19  20
ENDBRANCH  18  19
ENDBRANCH  17  18
ENDBRANCH   8  17
TORSDOF 7
ENDMDL
MODEL 4
REMARK VINA RESULT:      -6.4      2.921      6.349
REMARK  Name = 
REMARK  8 active torsions:
REMARK  status: ('A' for Active; 'I' for Inactive)
REMARK    1  A    between atoms: C_1  and  C_2
REMARK    2  A    between atoms: C_2  and  C_3
REMARK    3  A    between atoms: C_6  and  O_7
REMARK    4  A    between atoms: N_11  and  C_12
REMARK    5  A    between atoms: C_12  and  O_13
REMARK    6  A    between atoms: O_13  and  C_14
REMARK    7  A    between atoms: C_14  and  C_15
REMARK    8  A    between atoms: C_15  and  O_16
REMARK                            x       y       z     vdW  Elec       q    Type
REMARK                         _______ _______ _______ _____ _____    ______ ____
ROOT
ATOM      1  C   UNL     1       5.804   5.141  15.764  0.00  0.00    +0.000 A 
ATOM      2  C   UNL     1       5.169   6.351  15.946  0.00  0.00    +0.000 A 
ATOM      3  N   UNL     1       4.407   6.210  17.083  0.00  0.00    +0.000 N 
ATOM      4  C   UNL     1       3.545   7.112  17.732  0.00  0.00    +0.000 A 
ATOM      5  C   UNL     1       2.930   6.668  18.838  0.00  0.00    +0.000 A 
ATOM      6  N   UNL     1       2.018   7.236  19.725  0.00  0.00    +0.000 NA
ATOM      7  C   UNL     1       1.781   6.274  20.587  0.00  0.00    +0.000 A 
ATOM      8  N   UNL     1       2.456   5.102  20.367  0.00  0.00    +0.000 N 
ATOM      9  C   UNL     1       3.227   5.250  19.252  0.00  0.00    +0.000 A 
ATOM     10  N   UNL     1       4.016   4.416  18.667  0.00  0.00    +0.000 NA
ATOM     11  C   UNL     1       4.627   4.901  17.548  0.00  0.00    +0.000 A 
ATOM     12  N   UNL     1       5.460   4.264  16.758  0.00  0.00    +0.000 NA
ENDROOT
BRANCH   1  14
ATOM     13  C   UNL     1       6.053   3.869  13.630  0.00  0.00    +0.000 C 
ATOM     14  C   UNL     1       6.743   4.702  14.696  0.00  0.00    +0.000 C 
ENDBRANCH   1  14
BRANCH   4  15
ATOM     15  O   UNL     1       3.327   8.398  17.261  0.00  0.00    +0.000 OA
ATOM     16  H   UNL     1       3.972   8.609  16.568  0.00  0.00    +0.000 HD
ENDBRANCH   4  15
BRANCH   8  17
ATOM     17  C   UNL     1       2.347   3.886  21.112  0.00  0.00    +0.000 C 
BRANCH  17  18
ATOM     18  O   UNL     1       1.060   3.284  20.970  0.00  0.00    +0.000 OA
BRANCH  18  19
ATOM     19  C   UNL     1       0.812   2.839  19.627  0.00  0.00    +0.000 C 
BRANCH  19  20
ATOM     20  C   UNL     1       1.849   1.774  19.293  0.00  0.00    +0.000 C 
BRANCH  20  21
ATOM     21  O   UNL     1       2.246   1.901  17.928  0.00  0.00    +0.000 OA
ATOM     22  H   UNL     1       2.725   1.075  17.722  0.00  0.00    +0.000 HD
ENDBRANCH  20  21
ENDBRANCH  19  20
ENDBRANCH  18  19
ENDBRANCH  17  18
ENDBRANCH   8  17
TORSDOF 7
ENDMDL
MODEL 5
REMARK VINA RESULT:      -6.3      2.376      6.498
REMARK  Name = 
REMARK  8 active torsions:
REMARK  status: ('A' for Active; 'I' for Inactive)
REMARK    1  A    between atoms: C_1  and  C_2
REMARK    2  A    between atoms: C_2  and  C_3
REMARK    3  A    between atoms: C_6  and  O_7
REMARK    4  A    between atoms: N_11  and  C_12
REMARK    5  A    between atoms: C_12  and  O_13
REMARK    6  A    between atoms: O_13  and  C_14
REMARK    7  A    between atoms: C_14  and  C_15
REMARK    8  A    between atoms: C_15  and  O_16
REMARK                            x       y       z     vdW  Elec       q    Type
REMARK                         _______ _______ _______ _____ _____    ______ ____
ROOT
ATOM      1  C   UNL     1       6.429   4.007  13.544  0.00  0.00    +0.000 A 
ATOM      2  C   UNL     1       7.100   4.943  14.301  0.00  0.00    +0.000 A 
ATOM      3  N   UNL     1       6.512   4.915  15.544  0.00  0.00    +0.000 N 
ATOM      4  C   UNL     1       6.777   5.664  16.706  0.00  0.00    +0.000 A 
ATOM      5  C   UNL     1       6.014   5.404  17.777  0.00  0.00    +0.000 A 
ATOM      6  N   UNL     1       5.958   5.927  19.067  0.00  0.00    +0.000 NA
ATOM      7  C   UNL     1       4.973   5.265  19.629  0.00  0.00    +0.000 A 
ATOM      8  N   UNL     1       4.357   4.333  18.835  0.00  0.00    +0.000 N 
ATOM      9  C   UNL     1       4.954   4.346  17.609  0.00  0.00    +0.000 A 
ATOM     10  N   UNL     1       4.703   3.654  16.552  0.00  0.00    +0.000 NA
ATOM     11  C   UNL     1       5.500   3.941  15.483  0.00  0.00    +0.000 A 
ATOM     12  N   UNL     1       5.451   3.401  14.287  0.00  0.00    +0.000 NA
ENDROOT
BRANCH   1  14
ATOM     13  C   UNL     1       5.428   2.833  11.581  0.00  0.00    +0.000 C 
ATOM     14  C   UNL     1       6.618   3.606  12.123  0.00  0.00    +0.000 C 
ENDBRANCH   1  14
BRANCH   4  15
ATOM     15  O   UNL     1       7.772   6.629  16.754  0.00  0.00    +0.000 OA
ATOM     16  H   UNL     1       7.711   7.125  17.585  0.00  0.00    +0.000 HD
ENDBRANCH   4  15
BRANCH   8  17
ATOM     17  C   UNL     1       3.232   3.516  19.172  0.00  0.00    +0.000 C 
BRANCH  17  18
ATOM     18  O   UNL     1       2.000   4.231  19.067  0.00  0.00    +0.000 OA
BRANCH  18  19
ATOM     19  C   UNL     1       1.222   4.157  20.272  0.00  0.00    +0.000 C 
BRANCH  19  20
ATOM     20  C   UNL     1       1.432   2.774  20.875  0.00  0.00    +0.000 C 
BRANCH  20  21
ATOM     21  O   UNL     1       1.875   2.901  22.225  0.00  0.00    +0.000 OA
ATOM     22  H   UNL     1       1.345   2.256  22.732  0.00  0.00    +0.000 HD
ENDBRANCH  20  21
ENDBRANCH  19  20
ENDBRANCH  18  19
ENDBRANCH  17  18
ENDBRANCH   8  17
TORSDOF 7
ENDMDL
MODEL 6
REMARK VINA RESULT:      -6.3      2.376      6.066
REMARK  Name = 
REMARK  8 active torsions:
REMARK  status: ('A' for Active; 'I' for Inactive)
REMARK    1  A    between atoms: C_1  and  C_2
REMARK    2  A    between atoms: C_2  and  C_3
REMARK    3  A    between atoms: C_6  and  O_7
REMARK    4  A    between atoms: N_11  and  C_12
REMARK    5  A    between atoms: C_12  and  O_13
REMARK    6  A    between atoms: O_13  and  C_14
REMARK    7  A    between atoms: C_14  and  C_15
REMARK    8  A    between atoms: C_15  and  O_16
REMARK                            x       y       z     vdW  Elec       q    Type
REMARK                         _______ _______ _______ _____ _____    ______ ____
ROOT
ATOM      1  C   UNL     1       6.374   4.132  13.898  0.00  0.00    +0.000 A 
ATOM      2  C   UNL     1       7.204   4.433  14.957  0.00  0.00    +0.000 A 
ATOM      3  N   UNL     1       6.382   4.583  16.049  0.00  0.00    +0.000 N 
ATOM      4  C   UNL     1       6.677   4.905  17.387  0.00  0.00    +0.000 A 
ATOM      5  C   UNL     1       5.638   4.984  18.231  0.00  0.00    +0.000 A 
ATOM      6  N   UNL     1       5.521   5.284  19.586  0.00  0.00    +0.000 NA
ATOM      7  C   UNL     1       4.228   5.218  19.809  0.00  0.00    +0.000 A 
ATOM      8  N   UNL     1       3.456   4.894  18.725  0.00  0.00    +0.000 N 
ATOM      9  C   UNL     1       4.273   4.726  17.646  0.00  0.00    +0.000 A 
ATOM     10  N   UNL     1       3.991   4.428  16.425  0.00  0.00    +0.000 NA
ATOM     11  C   UNL     1       5.071   4.354  15.595  0.00  0.00    +0.000 A 
ATOM     12  N   UNL     1       5.068   4.086  14.309  0.00  0.00    +0.000 NA
ENDROOT
BRANCH   1  14
ATOM     13  C   UNL     1       5.789   2.823  11.854  0.00  0.00    +0.000 C 
ATOM     14  C   UNL     1       6.697   3.875  12.468  0.00  0.00    +0.000 C 
ENDBRANCH   1  14
BRANCH   4  15
ATOM     15  O   UNL     1       7.972   5.139  17.824  0.00  0.00    +0.000 OA
ATOM     16  H   UNL     1       8.006   5.969  18.325  0.00  0.00    +0.000 HD
ENDBRANCH   4  15
BRANCH   8  17
ATOM     17  C   UNL     1       2.029   4.807  18.672  0.00  0.00    +0.000 C 
BRANCH  17  18
ATOM     18  O   UNL     1       1.468   4.443  19.934  0.00  0.00    +0.000 OA
BRANCH  18  19
ATOM     19  C   UNL     1       1.339   3.021  20.084  0.00  0.00    +0.000 C 
BRANCH  19  20
ATOM     20  C   UNL     1       0.927   2.447  18.734  0.00  0.00    +0.000 C 
BRANCH  20  21
ATOM     21  O   UNL     1       1.911   1.516  18.287  0.00  0.00    +0.000 OA
ATOM     22  H   UNL     1       2.593   1.506  18.986  0.00  0.00    +0.000 HD
ENDBRANCH  20  21
ENDBRANCH  19  20
ENDBRANCH  18  19
ENDBRANCH  17  18
ENDBRANCH   8  17
TORSDOF 7
ENDMDL
MODEL 7
REMARK VINA RESULT:      -6.2      2.313      5.899
REMARK  Name = 
REMARK  8 active torsions:
REMARK  status: ('A' for Active; 'I' for Inactive)
REMARK    1  A    between atoms: C_1  and  C_2
REMARK    2  A    between atoms: C_2  and  C_3
REMARK    3  A    between atoms: C_6  and  O_7
REMARK    4  A    between atoms: N_11  and  C_12
REMARK    5  A    between atoms: C_12  and  O_13
REMARK    6  A    between atoms: O_13  and  C_14
REMARK    7  A    between atoms: C_14  and  C_15
REMARK    8  A    between atoms: C_15  and  O_16
REMARK                            x       y       z     vdW  Elec       q    Type
REMARK                         _______ _______ _______ _____ _____    ______ ____
ROOT
ATOM      1  C   UNL     1       6.426   3.978  13.444  0.00  0.00    +0.000 A 
ATOM      2  C   UNL     1       7.076   4.998  14.105  0.00  0.00    +0.000 A 
ATOM      3  N   UNL     1       6.652   4.931  15.412  0.00  0.00    +0.000 N 
ATOM      4  C   UNL     1       6.972   5.728  16.527  0.00  0.00    +0.000 A 
ATOM      5  C   UNL     1       6.380   5.407  17.686  0.00  0.00    +0.000 A 
ATOM      6  N   UNL     1       6.424   5.947  18.970  0.00  0.00    +0.000 NA
ATOM      7  C   UNL     1       5.596   5.191  19.654  0.00  0.00    +0.000 A 
ATOM      8  N   UNL     1       4.997   4.181  18.950  0.00  0.00    +0.000 N 
ATOM      9  C   UNL     1       5.433   4.235  17.659  0.00  0.00    +0.000 A 
ATOM     10  N   UNL     1       5.134   3.497  16.646  0.00  0.00    +0.000 NA
ATOM     11  C   UNL     1       5.756   3.849  15.484  0.00  0.00    +0.000 A 
ATOM     12  N   UNL     1       5.621   3.282  14.307  0.00  0.00    +0.000 NA
ENDROOT
BRANCH   1  14
ATOM     13  C   UNL     1       5.250   2.793  11.588  0.00  0.00    +0.000 C 
ATOM     14  C   UNL     1       6.483   3.571  12.014  0.00  0.00    +0.000 C 
ENDBRANCH   1  14
BRANCH   4  15
ATOM     15  O   UNL     1       7.849   6.798  16.444  0.00  0.00    +0.000 OA
ATOM     16  H   UNL     1       8.188   7.016  17.326  0.00  0.00    +0.000 HD
ENDBRANCH   4  15
BRANCH   8  17
ATOM     17  C   UNL     1       4.021   3.251  19.429  0.00  0.00    +0.000 C 
BRANCH  17  18
ATOM     18  O   UNL     1       2.890   3.908  20.000  0.00  0.00    +0.000 OA
BRANCH  18  19
ATOM     19  C   UNL     1       1.707   3.753  19.200  0.00  0.00    +0.000 C 
BRANCH  19  20
ATOM     20  C   UNL     1       1.964   2.627  18.207  0.00  0.00    +0.000 C 
BRANCH  20  21
ATOM     21  O   UNL     1       2.078   3.164  16.890  0.00  0.00    +0.000 OA
ATOM     22  H   UNL     1       1.478   2.625  16.339  0.00  0.00    +0.000 HD
ENDBRANCH  20  21
ENDBRANCH  19  20
ENDBRANCH  18  19
ENDBRANCH  17  18
ENDBRANCH   8  17
TORSDOF 7
ENDMDL
MODEL 8
REMARK VINA RESULT:      -6.2      2.330      6.292
REMARK  Name = 
REMARK  8 active torsions:
REMARK  status: ('A' for Active; 'I' for Inactive)
REMARK    1  A    between atoms: C_1  and  C_2
REMARK    2  A    between atoms: C_2  and  C_3
REMARK    3  A    between atoms: C_6  and  O_7
REMARK    4  A    between atoms: N_11  and  C_12
REMARK    5  A    between atoms: C_12  and  O_13
REMARK    6  A    between atoms: O_13  and  C_14
REMARK    7  A    between atoms: C_14  and  C_15
REMARK    8  A    between atoms: C_15  and  O_16
REMARK                            x       y       z     vdW  Elec       q    Type
REMARK                         _______ _______ _______ _____ _____    ______ ____
ROOT
ATOM      1  C   UNL     1       6.618   4.386  14.004  0.00  0.00    +0.000 A 
ATOM      2  C   UNL     1       7.314   4.711  15.148  0.00  0.00    +0.000 A 
ATOM      3  N   UNL     1       6.380   4.757  16.158  0.00  0.00    +0.000 N 
ATOM      4  C   UNL     1       6.517   5.051  17.527  0.00  0.00    +0.000 A 
ATOM      5  C   UNL     1       5.398   5.018  18.265  0.00  0.00    +0.000 A 
ATOM      6  N   UNL     1       5.127   5.258  19.610  0.00  0.00    +0.000 NA
ATOM      7  C   UNL     1       3.828   5.085  19.701  0.00  0.00    +0.000 A 
ATOM      8  N   UNL     1       3.193   4.743  18.536  0.00  0.00    +0.000 N 
ATOM      9  C   UNL     1       4.122   4.677  17.540  0.00  0.00    +0.000 A 
ATOM     10  N   UNL     1       3.985   4.404  16.289  0.00  0.00    +0.000 NA
ATOM     11  C   UNL     1       5.143   4.444  15.568  0.00  0.00    +0.000 A 
ATOM     12  N   UNL     1       5.286   4.225  14.282  0.00  0.00    +0.000 NA
ENDROOT
BRANCH   1  14
ATOM     13  C   UNL     1       6.450   3.014  11.925  0.00  0.00    +0.000 C 
ATOM     14  C   UNL     1       7.097   4.208  12.606  0.00  0.00    +0.000 C 
ENDBRANCH   1  14
BRANCH   4  15
ATOM     15  O   UNL     1       7.741   5.368  18.098  0.00  0.00    +0.000 OA
ATOM     16  H   UNL     1       8.269   5.892  17.476  0.00  0.00    +0.000 HD
ENDBRANCH   4  15
BRANCH   8  17
ATOM     17  C   UNL     1       1.790   4.548  18.339  0.00  0.00    +0.000 C 
BRANCH  17  18
ATOM     18  O   UNL     1       1.483   3.206  17.960  0.00  0.00    +0.000 OA
BRANCH  18  19
ATOM     19  C   UNL     1       1.268   2.353  19.095  0.00  0.00    +0.000 C 
BRANCH  19  20
ATOM     20  C   UNL     1       0.638   3.196  20.196  0.00  0.00    +0.000 C 
BRANCH  20  21
ATOM     21  O   UNL     1       1.036   2.696  21.472  0.00  0.00    +0.000 OA
ATOM     22  H   UNL     1       0.939   3.450  22.085  0.00  0.00    +0.000 HD
ENDBRANCH  20  21
ENDBRANCH  19  20
ENDBRANCH  18  19
ENDBRANCH  17  18
ENDBRANCH   8  17
TORSDOF 7
ENDMDL
MODEL 9
REMARK VINA RESULT:      -6.2      2.785      6.554
REMARK  Name = 
REMARK  8 active torsions:
REMARK  status: ('A' for Active; 'I' for Inactive)
REMARK    1  A    between atoms: C_1  and  C_2
REMARK    2  A    between atoms: C_2  and  C_3
REMARK    3  A    between atoms: C_6  and  O_7
REMARK    4  A    between atoms: N_11  and  C_12
REMARK    5  A    between atoms: C_12  and  O_13
REMARK    6  A    between atoms: O_13  and  C_14
REMARK    7  A    between atoms: C_14  and  C_15
REMARK    8  A    between atoms: C_15  and  O_16
REMARK                            x       y       z     vdW  Elec       q    Type
REMARK                         _______ _______ _______ _____ _____    ______ ____
ROOT
ATOM      1  C   UNL     1       7.448   6.691  18.162  0.00  0.00    +0.000 A 
ATOM      2  C   UNL     1       6.855   6.160  17.038  0.00  0.00    +0.000 A 
ATOM      3  N   UNL     1       6.005   5.176  17.488  0.00  0.00    +0.000 N 
ATOM      4  C   UNL     1       5.158   4.298  16.787  0.00  0.00    +0.000 A 
ATOM      5  C   UNL     1       4.446   3.433  17.523  0.00  0.00    +0.000 A 
ATOM      6  N   UNL     1       3.536   2.425  17.209  0.00  0.00    +0.000 NA
ATOM      7  C   UNL     1       3.211   1.924  18.379  0.00  0.00    +0.000 A 
ATOM      8  N   UNL     1       3.816   2.506  19.462  0.00  0.00    +0.000 N 
ATOM      9  C   UNL     1       4.643   3.495  19.016  0.00  0.00    +0.000 A 
ATOM     10  N   UNL     1       5.414   4.295  19.668  0.00  0.00    +0.000 NA
ATOM     11  C   UNL     1       6.121   5.163  18.889  0.00  0.00    +0.000 A 
ATOM     12  N   UNL     1       6.984   6.068  19.290  0.00  0.00    +0.000 NA
ENDROOT
BRANCH   1  14
ATOM     13  C   UNL     1       7.960   9.098  17.740  0.00  0.00    +0.000 C 
ATOM     14  C   UNL     1       8.460   7.775  18.293  0.00  0.00    +0.000 C 
ENDBRANCH   1  14
BRANCH   4  15
ATOM     15  O   UNL     1       5.058   4.312  15.404  0.00  0.00    +0.000 OA
ATOM     16  H   UNL     1       4.232   3.884  15.129  0.00  0.00    +0.000 HD
ENDBRANCH   4  15
BRANCH   8  17
ATOM     17  C   UNL     1       3.687   2.126  20.834  0.00  0.00    +0.000 C 
BRANCH  17  18
ATOM     18  O   UNL     1       2.394   2.436  21.356  0.00  0.00    +0.000 OA
BRANCH  18  19
ATOM     19  C   UNL     1       2.195   3.850  21.515  0.00  0.00    +0.000 C 
BRANCH  19  20
ATOM     20  C   UNL     1       1.107   4.277  20.537  0.00  0.00    +0.000 C 
BRANCH  20  21
ATOM     21  O   UNL     1       0.356   3.136  20.126  0.00  0.00    +0.000 OA
ATOM     22  H   UNL     1       0.285   3.212  19.154  0.00  0.00    +0.000 HD
ENDBRANCH  20  21
ENDBRANCH  19  20
ENDBRANCH  18  19
ENDBRANCH  17  18
ENDBRANCH   8  17
TORSDOF 7
ENDMDL
