MODEL 1
REMARK VINA RESULT:      -8.6      0.000      0.000
REMARK  Name = 
REMARK  2 active torsions:
REMARK  status: ('A' for Active; 'I' for Inactive)
REMARK    1  A    between atoms: C_6  and  C_7
REMARK    2  A    between atoms: C_11  and  N_12
REMARK                            x       y       z     vdW  Elec       q    Type
REMARK                         _______ _______ _______ _____ _____    ______ ____
ROOT
ATOM      1  C   UNL     1       0.893  10.093  19.854  0.00  0.00    +0.000 A 
ATOM      2  C   UNL     1       1.173  10.557  18.575  0.00  0.00    +0.000 A 
ATOM      3  C   UNL     1       1.863   9.722  17.711  0.00  0.00    +0.000 A 
ATOM      4  C   UNL     1       2.233   8.457  18.151  0.00  0.00    +0.000 A 
ATOM      5  C   UNL     1       1.927   8.046  19.452  0.00  0.00    +0.000 A 
ATOM      6  N   UNL     1       1.269   8.864  20.310  0.00  0.00    +0.000 NA
ENDROOT
BRANCH   1  12
ATOM      7  F   UNL     1      -3.434  13.289  24.660  0.00  0.00    +0.000 F 
ATOM      8  C   UNL     1      -2.437  13.104  23.779  0.00  0.00    +0.000 A 
ATOM      9  C   UNL     1      -2.312  11.864  23.154  0.00  0.00    +0.000 A 
ATOM     10  C   UNL     1      -1.263  11.693  22.239  0.00  0.00    +0.000 A 
ATOM     11  N   UNL     1      -0.919  10.588  21.498  0.00  0.00    +0.000 NA
ATOM     12  C   UNL     1       0.145  10.933  20.791  0.00  0.00    +0.000 A 
ATOM     13  N   UNL     1       0.492  12.238  21.059  0.00  0.00    +0.000 N 
ATOM     14  C   UNL     1      -0.390  12.745  21.984  0.00  0.00    +0.000 A 
ATOM     15  C   UNL     1      -0.496  13.995  22.603  0.00  0.00    +0.000 A 
ATOM     16  C   UNL     1      -1.550  14.143  23.512  0.00  0.00    +0.000 A 
ATOM     17  F   UNL     1      -1.701  15.323  24.136  0.00  0.00    +0.000 F 
ATOM     18  H   UNL     1       1.277  12.706  20.635  0.00  0.00    +0.000 HD
ENDBRANCH   1  12
BRANCH   5  19
ATOM     19  N   UNL     1       2.344   6.769  19.857  0.00  0.00    +0.000 N 
ATOM     20  C   UNL     1       1.432   6.066  20.760  0.00  0.00    +0.000 C 
ATOM     21  C   UNL     1       2.015   4.707  21.163  0.00  0.00    +0.000 C 
ATOM     22  C   UNL     1       2.194   3.877  19.919  0.00  0.00    +0.000 A 
ATOM     23  C   UNL     1       1.911   2.508  19.900  0.00  0.00    +0.000 A 
ATOM     24  C   UNL     1       2.057   1.784  18.718  0.00  0.00    +0.000 A 
ATOM     25  C   UNL     1       2.497   2.421  17.558  0.00  0.00    +0.000 A 
ATOM     26  C   UNL     1       2.803   3.784  17.581  0.00  0.00    +0.000 A 
ATOM     27  C   UNL     1       2.649   4.527  18.759  0.00  0.00    +0.000 A 
ATOM     28  C   UNL     1       3.034   5.995  18.807  0.00  0.00    +0.000 C 
ENDBRANCH   5  19
TORSDOF 2
ENDMDL
MODEL 2
REMARK VINA RESULT:      -8.6      1.055      1.172
REMARK  Name = 
REMARK  2 active torsions:
REMARK  status: ('A' for Active; 'I' for Inactive)
REMARK    1  A    between atoms: C_6  and  C_7
REMARK    2  A    between atoms: C_11  and  N_12
REMARK                            x       y       z     vdW  Elec       q    Type
REMARK                         _______ _______ _______ _____ _____    ______ ____
ROOT
ATOM      1  C   UNL     1       0.716   9.958  19.657  0.00  0.00    +0.000 A 
ATOM      2  C   UNL     1       1.182  10.518  18.475  0.00  0.00    +0.000 A 
ATOM      3  C   UNL     1       2.082   9.789  17.714  0.00  0.00    +0.000 A 
ATOM      4  C   UNL     1       2.469   8.529  18.153  0.00  0.00    +0.000 A 
ATOM      5  C   UNL     1       1.968   8.017  19.355  0.00  0.00    +0.000 A 
ATOM      6  N   UNL     1       1.103   8.733  20.115  0.00  0.00    +0.000 NA
ENDROOT
BRANCH   1  12
ATOM      7  F   UNL     1      -3.582  12.979  24.600  0.00  0.00    +0.000 F 
ATOM      8  C   UNL     1      -3.024  12.690  23.413  0.00  0.00    +0.000 A 
ATOM      9  C   UNL     1      -2.002  11.743  23.362  0.00  0.00    +0.000 A 
ATOM     10  C   UNL     1      -1.433  11.459  22.112  0.00  0.00    +0.000 A 
ATOM     11  N   UNL     1      -0.425  10.582  21.787  0.00  0.00    +0.000 NA
ATOM     12  C   UNL     1      -0.255  10.683  20.479  0.00  0.00    +0.000 A 
ATOM     13  N   UNL     1      -1.132  11.604  19.953  0.00  0.00    +0.000 N 
ATOM     14  C   UNL     1      -1.895  12.117  20.976  0.00  0.00    +0.000 A 
ATOM     15  C   UNL     1      -2.916  13.072  21.008  0.00  0.00    +0.000 A 
ATOM     16  C   UNL     1      -3.469  13.340  22.265  0.00  0.00    +0.000 A 
ATOM     17  F   UNL     1      -4.454  14.247  22.355  0.00  0.00    +0.000 F 
ATOM     18  H   UNL     1      -1.172  11.843  18.976  0.00  0.00    +0.000 HD
ENDBRANCH   1  12
BRANCH   5  19
ATOM     19  N   UNL     1       2.408   6.751  19.769  0.00  0.00    +0.000 N 
ATOM     20  C   UNL     1       1.543   6.069  20.733  0.00  0.00    +0.000 C 
ATOM     21  C   UNL     1       2.149   4.720  21.138  0.00  0.00    +0.000 C 
ATOM     22  C   UNL     1       2.268   3.861  19.907  0.00  0.00    +0.000 A 
ATOM     23  C   UNL     1       1.987   2.492  19.934  0.00  0.00    +0.000 A 
ATOM     24  C   UNL     1       2.076   1.741  18.763  0.00  0.00    +0.000 A 
ATOM     25  C   UNL     1       2.456   2.350  17.569  0.00  0.00    +0.000 A 
ATOM     26  C   UNL     1       2.760   3.714  17.544  0.00  0.00    +0.000 A 
ATOM     27  C   UNL     1       2.663   4.484  18.711  0.00  0.00    +0.000 A 
ATOM     28  C   UNL     1       3.047   5.954  18.704  0.00  0.00    +0.000 C 
ENDBRANCH   5  19
TORSDOF 2
ENDMDL
MODEL 3
REMARK VINA RESULT:      -8.6      0.095      1.345
REMARK  Name = 
REMARK  2 active torsions:
REMARK  status: ('A' for Active; 'I' for Inactive)
REMARK    1  A    between atoms: C_6  and  C_7
REMARK    2  A    between atoms: C_11  and  N_12
REMARK                            x       y       z     vdW  Elec       q    Type
REMARK                         _______ _______ _______ _____ _____    ______ ____
ROOT
ATOM      1  C   UNL     1       0.997  10.151  19.873  0.00  0.00    +0.000 A 
ATOM      2  C   UNL     1       1.273  10.599  18.588  0.00  0.00    +0.000 A 
ATOM      3  C   UNL     1       1.924   9.739  17.719  0.00  0.00    +0.000 A 
ATOM      4  C   UNL     1       2.262   8.465  18.160  0.00  0.00    +0.000 A 
ATOM      5  C   UNL     1       1.961   8.070  19.468  0.00  0.00    +0.000 A 
ATOM      6  N   UNL     1       1.342   8.913  20.330  0.00  0.00    +0.000 NA
ENDROOT
BRANCH   1  12
ATOM      7  F   UNL     1      -1.706  15.222  24.234  0.00  0.00    +0.000 F 
ATOM      8  C   UNL     1      -1.560  14.054  23.587  0.00  0.00    +0.000 A 
ATOM      9  C   UNL     1      -0.480  13.895  22.718  0.00  0.00    +0.000 A 
ATOM     10  C   UNL     1      -0.348  12.669  22.053  0.00  0.00    +0.000 A 
ATOM     11  N   UNL     1       0.608  12.257  21.155  0.00  0.00    +0.000 NA
ATOM     12  C   UNL     1       0.289  11.019  20.816  0.00  0.00    +0.000 A 
ATOM     13  N   UNL     1      -0.851  10.622  21.477  0.00  0.00    +0.000 N 
ATOM     14  C   UNL     1      -1.281  11.659  22.271  0.00  0.00    +0.000 A 
ATOM     15  C   UNL     1      -2.372  11.800  23.135  0.00  0.00    +0.000 A 
ATOM     16  C   UNL     1      -2.484  13.033  23.789  0.00  0.00    +0.000 A 
ATOM     17  F   UNL     1      -3.511  13.223  24.631  0.00  0.00    +0.000 F 
ATOM     18  H   UNL     1      -1.277   9.716  21.363  0.00  0.00    +0.000 HD
ENDBRANCH   1  12
BRANCH   5  19
ATOM     19  N   UNL     1       2.344   6.783  19.875  0.00  0.00    +0.000 N 
ATOM     20  C   UNL     1       1.407   6.100  20.767  0.00  0.00    +0.000 C 
ATOM     21  C   UNL     1       1.954   4.726  21.172  0.00  0.00    +0.000 C 
ATOM     22  C   UNL     1       2.126   3.895  19.928  0.00  0.00    +0.000 A 
ATOM     23  C   UNL     1       1.811   2.533  19.903  0.00  0.00    +0.000 A 
ATOM     24  C   UNL     1       1.952   1.809  18.721  0.00  0.00    +0.000 A 
ATOM     25  C   UNL     1       2.419   2.438  17.567  0.00  0.00    +0.000 A 
ATOM     26  C   UNL     1       2.756   3.793  17.596  0.00  0.00    +0.000 A 
ATOM     27  C   UNL     1       2.607   4.537  18.775  0.00  0.00    +0.000 A 
ATOM     28  C   UNL     1       3.027   5.996  18.829  0.00  0.00    +0.000 C 
ENDBRANCH   5  19
TORSDOF 2
ENDMDL
MODEL 4
REMARK VINA RESULT:      -8.6      4.993      9.231
REMARK  Name = 
REMARK  2 active torsions:
REMARK  status: ('A' for Active; 'I' for Inactive)
REMARK    1  A    between atoms: C_6  and  C_7
REMARK    2  A    between atoms: C_11  and  N_12
REMARK                            x       y       z     vdW  Elec       q    Type
REMARK                         _______ _______ _______ _____ _____    ______ ____
ROOT
ATOM      1  C   UNL     1       1.093   8.592  20.496  0.00  0.00    +0.000 A 
ATOM      2  C   UNL     1       1.104   8.936  21.841  0.00  0.00    +0.000 A 
ATOM      3  C   UNL     1       0.323  10.004  22.251  0.00  0.00    +0.000 A 
ATOM      4  C   UNL     1      -0.447  10.676  21.309  0.00  0.00    +0.000 A 
ATOM      5  C   UNL     1      -0.415  10.286  19.966  0.00  0.00    +0.000 A 
ATOM      6  N   UNL     1       0.362   9.254  19.554  0.00  0.00    +0.000 NA
ENDROOT
BRANCH   1  12
ATOM      7  F   UNL     1       5.320   3.691  17.309  0.00  0.00    +0.000 F 
ATOM      8  C   UNL     1       4.487   4.261  18.195  0.00  0.00    +0.000 A 
ATOM      9  C   UNL     1       4.057   5.570  17.971  0.00  0.00    +0.000 A 
ATOM     10  C   UNL     1       3.189   6.145  18.909  0.00  0.00    +0.000 A 
ATOM     11  N   UNL     1       2.627   7.399  18.929  0.00  0.00    +0.000 NA
ATOM     12  C   UNL     1       1.885   7.455  20.023  0.00  0.00    +0.000 A 
ATOM     13  N   UNL     1       1.956   6.263  20.709  0.00  0.00    +0.000 N 
ATOM     14  C   UNL     1       2.786   5.410  20.020  0.00  0.00    +0.000 A 
ATOM     15  C   UNL     1       3.208   4.099  20.264  0.00  0.00    +0.000 A 
ATOM     16  C   UNL     1       4.074   3.545  19.315  0.00  0.00    +0.000 A 
ATOM     17  F   UNL     1       4.510   2.289  19.498  0.00  0.00    +0.000 F 
ATOM     18  H   UNL     1       1.473   6.088  21.575  0.00  0.00    +0.000 HD
ENDBRANCH   1  12
BRANCH   5  19
ATOM     19  N   UNL     1      -1.190  11.011  19.048  0.00  0.00    +0.000 N 
ATOM     20  C   UNL     1      -1.575  10.285  17.837  0.00  0.00    +0.000 C 
ATOM     21  C   UNL     1      -2.379  11.192  16.900  0.00  0.00    +0.000 C 
ATOM     22  C   UNL     1      -3.630  11.629  17.615  0.00  0.00    +0.000 A 
ATOM     23  C   UNL     1      -4.861  11.719  16.958  0.00  0.00    +0.000 A 
ATOM     24  C   UNL     1      -6.001  12.094  17.667  0.00  0.00    +0.000 A 
ATOM     25  C   UNL     1      -5.913  12.392  19.026  0.00  0.00    +0.000 A 
ATOM     26  C   UNL     1      -4.679  12.326  19.678  0.00  0.00    +0.000 A 
ATOM     27  C   UNL     1      -3.527  11.937  18.982  0.00  0.00    +0.000 A 
ATOM     28  C   UNL     1      -2.174  11.919  19.671  0.00  0.00    +0.000 C 
ENDBRANCH   5  19
TORSDOF 2
ENDMDL
MODEL 5
REMARK VINA RESULT:      -8.5      1.081      1.397
REMARK  Name = 
REMARK  2 active torsions:
REMARK  status: ('A' for Active; 'I' for Inactive)
REMARK    1  A    between atoms: C_6  and  C_7
REMARK    2  A    between atoms: C_11  and  N_12
REMARK                            x       y       z     vdW  Elec       q    Type
REMARK                         _______ _______ _______ _____ _____    ______ ____
ROOT
ATOM      1  C   UNL     1       0.773   9.991  19.527  0.00  0.00    +0.000 A 
ATOM      2  C   UNL     1       1.289  10.529  18.356  0.00  0.00    +0.000 A 
ATOM      3  C   UNL     1       2.202   9.778  17.635  0.00  0.00    +0.000 A 
ATOM      4  C   UNL     1       2.554   8.517  18.102  0.00  0.00    +0.000 A 
ATOM      5  C   UNL     1       2.004   8.028  19.291  0.00  0.00    +0.000 A 
ATOM      6  N   UNL     1       1.124   8.765  20.012  0.00  0.00    +0.000 NA
ENDROOT
BRANCH   1  12
ATOM      7  F   UNL     1      -4.407  14.139  22.356  0.00  0.00    +0.000 F 
ATOM      8  C   UNL     1      -3.411  13.243  22.263  0.00  0.00    +0.000 A 
ATOM      9  C   UNL     1      -2.836  13.000  21.015  0.00  0.00    +0.000 A 
ATOM     10  C   UNL     1      -1.799  12.060  20.943  0.00  0.00    +0.000 A 
ATOM     11  N   UNL     1      -1.073  11.639  19.854  0.00  0.00    +0.000 NA
ATOM     12  C   UNL     1      -0.214  10.741  20.307  0.00  0.00    +0.000 A 
ATOM     13  N   UNL     1      -0.368  10.575  21.664  0.00  0.00    +0.000 N 
ATOM     14  C   UNL     1      -1.377  11.404  22.095  0.00  0.00    +0.000 A 
ATOM     15  C   UNL     1      -1.944  11.630  23.354  0.00  0.00    +0.000 A 
ATOM     16  C   UNL     1      -2.977  12.573  23.404  0.00  0.00    +0.000 A 
ATOM     17  F   UNL     1      -3.556  12.831  24.587  0.00  0.00    +0.000 F 
ATOM     18  H   UNL     1       0.179   9.934  22.215  0.00  0.00    +0.000 HD
ENDBRANCH   1  12
BRANCH   5  19
ATOM     19  N   UNL     1       2.409   6.760  19.734  0.00  0.00    +0.000 N 
ATOM     20  C   UNL     1       1.518   6.117  20.701  0.00  0.00    +0.000 C 
ATOM     21  C   UNL     1       2.088   4.763  21.139  0.00  0.00    +0.000 C 
ATOM     22  C   UNL     1       2.199   3.877  19.926  0.00  0.00    +0.000 A 
ATOM     23  C   UNL     1       1.886   2.516  19.977  0.00  0.00    +0.000 A 
ATOM     24  C   UNL     1       1.969   1.740  18.822  0.00  0.00    +0.000 A 
ATOM     25  C   UNL     1       2.377   2.317  17.620  0.00  0.00    +0.000 A 
ATOM     26  C   UNL     1       2.713   3.672  17.573  0.00  0.00    +0.000 A 
ATOM     27  C   UNL     1       2.621   4.467  18.723  0.00  0.00    +0.000 A 
ATOM     28  C   UNL     1       3.040   5.927  18.692  0.00  0.00    +0.000 C 
ENDBRANCH   5  19
TORSDOF 2
ENDMDL
MODEL 6
REMARK VINA RESULT:      -8.5      5.427      9.675
REMARK  Name = 
REMARK  2 active torsions:
REMARK  status: ('A' for Active; 'I' for Inactive)
REMARK    1  A    between atoms: C_6  and  C_7
REMARK    2  A    between atoms: C_11  and  N_12
REMARK                            x       y       z     vdW  Elec       q    Type
REMARK                         _______ _______ _______ _____ _____    ______ ____
ROOT
ATOM      1  C   UNL     1       1.724   8.281  19.024  0.00  0.00    +0.000 A 
ATOM      2  C   UNL     1       1.691   8.246  20.412  0.00  0.00    +0.000 A 
ATOM      3  C   UNL     1       0.748   9.022  21.065  0.00  0.00    +0.000 A 
ATOM      4  C   UNL     1      -0.131   9.790  20.311  0.00  0.00    +0.000 A 
ATOM      5  C   UNL     1      -0.048   9.788  18.915  0.00  0.00    +0.000 A 
ATOM      6  N   UNL     1       0.885   9.046  18.269  0.00  0.00    +0.000 NA
ENDROOT
BRANCH   1  12
ATOM      7  F   UNL     1       6.985   5.222  15.151  0.00  0.00    +0.000 F 
ATOM      8  C   UNL     1       5.899   5.355  15.930  0.00  0.00    +0.000 A 
ATOM      9  C   UNL     1       5.470   6.637  16.275  0.00  0.00    +0.000 A 
ATOM     10  C   UNL     1       4.336   6.752  17.090  0.00  0.00    +0.000 A 
ATOM     11  N   UNL     1       3.713   7.879  17.571  0.00  0.00    +0.000 NA
ATOM     12  C   UNL     1       2.688   7.457  18.292  0.00  0.00    +0.000 A 
ATOM     13  N   UNL     1       2.634   6.081  18.285  0.00  0.00    +0.000 N 
ATOM     14  C   UNL     1       3.678   5.606  17.527  0.00  0.00    +0.000 A 
ATOM     15  C   UNL     1       4.095   4.313  17.195  0.00  0.00    +0.000 A 
ATOM     16  C   UNL     1       5.229   4.221  16.381  0.00  0.00    +0.000 A 
ATOM     17  F   UNL     1       5.673   3.004  16.030  0.00  0.00    +0.000 F 
ATOM     18  H   UNL     1       1.936   5.547  18.776  0.00  0.00    +0.000 HD
ENDBRANCH   1  12
BRANCH   5  19
ATOM     19  N   UNL     1      -0.941  10.600  18.198  0.00  0.00    +0.000 N 
ATOM     20  C   UNL     1      -1.699   9.923  17.146  0.00  0.00    +0.000 C 
ATOM     21  C   UNL     1      -2.605  10.918  16.411  0.00  0.00    +0.000 C 
ATOM     22  C   UNL     1      -3.576  11.502  17.403  0.00  0.00    +0.000 A 
ATOM     23  C   UNL     1      -4.914  11.738  17.073  0.00  0.00    +0.000 A 
ATOM     24  C   UNL     1      -5.787  12.247  18.032  0.00  0.00    +0.000 A 
ATOM     25  C   UNL     1      -5.325  12.534  19.316  0.00  0.00    +0.000 A 
ATOM     26  C   UNL     1      -3.983  12.322  19.640  0.00  0.00    +0.000 A 
ATOM     27  C   UNL     1      -3.096  11.798  18.690  0.00  0.00    +0.000 A 
ATOM     28  C   UNL     1      -1.624  11.619  19.018  0.00  0.00    +0.000 C 
ENDBRANCH   5  19
TORSDOF 2
ENDMDL
MODEL 7
REMARK VINA RESULT:      -8.5      5.415      9.588
REMARK  Name = 
REMARK  2 active torsions:
REMARK  status: ('A' for Active; 'I' for Inactive)
REMARK    1  A    between atoms: C_6  and  C_7
REMARK    2  A    between atoms: C_11  and  N_12
REMARK                            x       y       z     vdW  Elec       q    Type
REMARK                         _______ _______ _______ _____ _____    ______ ____
ROOT
ATOM      1  C   UNL     1       1.753   8.172  19.082  0.00  0.00    +0.000 A 
ATOM      2  C   UNL     1       1.752   8.172  20.470  0.00  0.00    +0.000 A 
ATOM      3  C   UNL     1       0.848   8.993  21.126  0.00  0.00    +0.000 A 
ATOM      4  C   UNL     1      -0.025   9.768  20.372  0.00  0.00    +0.000 A 
ATOM      5  C   UNL     1       0.025   9.729  18.975  0.00  0.00    +0.000 A 
ATOM      6  N   UNL     1       0.919   8.944  18.327  0.00  0.00    +0.000 NA
ENDROOT
BRANCH   1  12
ATOM      7  F   UNL     1       5.698   3.012  15.943  0.00  0.00    +0.000 F 
ATOM      8  C   UNL     1       5.244   4.229  16.283  0.00  0.00    +0.000 A 
ATOM      9  C   UNL     1       4.183   4.327  17.184  0.00  0.00    +0.000 A 
ATOM     10  C   UNL     1       3.726   5.607  17.523  0.00  0.00    +0.000 A 
ATOM     11  N   UNL     1       2.711   5.979  18.372  0.00  0.00    +0.000 NA
ATOM     12  C   UNL     1       2.674   7.301  18.349  0.00  0.00    +0.000 A 
ATOM     13  N   UNL     1       3.646   7.791  17.506  0.00  0.00    +0.000 N 
ATOM     14  C   UNL     1       4.330   6.729  16.963  0.00  0.00    +0.000 A 
ATOM     15  C   UNL     1       5.392   6.652  16.055  0.00  0.00    +0.000 A 
ATOM     16  C   UNL     1       5.833   5.364  15.731  0.00  0.00    +0.000 A 
ATOM     17  F   UNL     1       6.850   5.231  14.866  0.00  0.00    +0.000 F 
ATOM     18  H   UNL     1       3.794   8.772  17.333  0.00  0.00    +0.000 HD
ENDBRANCH   1  12
BRANCH   5  19
ATOM     19  N   UNL     1      -0.860  10.550  18.259  0.00  0.00    +0.000 N 
ATOM     20  C   UNL     1      -1.643   9.876  17.222  0.00  0.00    +0.000 C 
ATOM     21  C   UNL     1      -2.537  10.880  16.486  0.00  0.00    +0.000 C 
ATOM     22  C   UNL     1      -3.486  11.494  17.481  0.00  0.00    +0.000 A 
ATOM     23  C   UNL     1      -4.823  11.751  17.163  0.00  0.00    +0.000 A 
ATOM     24  C   UNL     1      -5.676  12.287  18.126  0.00  0.00    +0.000 A 
ATOM     25  C   UNL     1      -5.194  12.580  19.401  0.00  0.00    +0.000 A 
ATOM     26  C   UNL     1      -3.853  12.346  19.714  0.00  0.00    +0.000 A 
ATOM     27  C   UNL     1      -2.987  11.794  18.760  0.00  0.00    +0.000 A 
ATOM     28  C   UNL     1      -1.515  11.591  19.074  0.00  0.00    +0.000 C 
ENDBRANCH   5  19
TORSDOF 2
ENDMDL
MODEL 8
REMARK VINA RESULT:      -8.5      5.468      9.965
REMARK  Name = 
REMARK  2 active torsions:
REMARK  status: ('A' for Active; 'I' for Inactive)
REMARK    1  A    between atoms: C_6  and  C_7
REMARK    2  A    between atoms: C_11  and  N_12
REMARK                            x       y       z     vdW  Elec       q    Type
REMARK                         _______ _______ _______ _____ _____    ______ ____
ROOT
ATOM      1  C   UNL     1       3.054   5.674  18.833  0.00  0.00    +0.000 A 
ATOM      2  C   UNL     1       2.483   4.663  19.594  0.00  0.00    +0.000 A 
ATOM      3  C   UNL     1       1.643   5.021  20.636  0.00  0.00    +0.000 A 
ATOM      4  C   UNL     1       1.397   6.369  20.869  0.00  0.00    +0.000 A 
ATOM      5  C   UNL     1       2.004   7.344  20.070  0.00  0.00    +0.000 A 
ATOM      6  N   UNL     1       2.842   7.002  19.061  0.00  0.00    +0.000 NA
ENDROOT
BRANCH   1  12
ATOM      7  F   UNL     1       6.597   3.186  13.062  0.00  0.00    +0.000 F 
ATOM      8  C   UNL     1       6.278   3.946  14.123  0.00  0.00    +0.000 A 
ATOM      9  C   UNL     1       5.141   3.626  14.864  0.00  0.00    +0.000 A 
ATOM     10  C   UNL     1       4.827   4.434  15.966  0.00  0.00    +0.000 A 
ATOM     11  N   UNL     1       3.778   4.342  16.849  0.00  0.00    +0.000 NA
ATOM     12  C   UNL     1       3.928   5.339  17.707  0.00  0.00    +0.000 A 
ATOM     13  N   UNL     1       5.052   6.070  17.396  0.00  0.00    +0.000 N 
ATOM     14  C   UNL     1       5.643   5.515  16.286  0.00  0.00    +0.000 A 
ATOM     15  C   UNL     1       6.786   5.854  15.553  0.00  0.00    +0.000 A 
ATOM     16  C   UNL     1       7.080   5.034  14.458  0.00  0.00    +0.000 A 
ATOM     17  F   UNL     1       8.165   5.312  13.719  0.00  0.00    +0.000 F 
ATOM     18  H   UNL     1       5.353   6.879  17.915  0.00  0.00    +0.000 HD
ENDBRANCH   1  12
BRANCH   5  19
ATOM     19  N   UNL     1       1.744   8.692  20.360  0.00  0.00    +0.000 N 
ATOM     20  C   UNL     1       1.056   9.441  19.307  0.00  0.00    +0.000 C 
ATOM     21  C   UNL     1       0.868  10.903  19.724  0.00  0.00    +0.000 C 
ATOM     22  C   UNL     1       0.022  10.940  20.970  0.00  0.00    +0.000 A 
ATOM     23  C   UNL     1      -0.965  11.912  21.162  0.00  0.00    +0.000 A 
ATOM     24  C   UNL     1      -1.749  11.887  22.314  0.00  0.00    +0.000 A 
ATOM     25  C   UNL     1      -1.541  10.904  23.280  0.00  0.00    +0.000 A 
ATOM     26  C   UNL     1      -0.540   9.947  23.101  0.00  0.00    +0.000 A 
ATOM     27  C   UNL     1       0.247   9.951  21.941  0.00  0.00    +0.000 A 
ATOM     28  C   UNL     1       1.375   8.949  21.766  0.00  0.00    +0.000 C 
ENDBRANCH   5  19
TORSDOF 2
ENDMDL
MODEL 9
REMARK VINA RESULT:      -8.4      4.683      9.371
REMARK  Name = 
REMARK  2 active torsions:
REMARK  status: ('A' for Active; 'I' for Inactive)
REMARK    1  A    between atoms: C_6  and  C_7
REMARK    2  A    between atoms: C_11  and  N_12
REMARK                            x       y       z     vdW  Elec       q    Type
REMARK                         _______ _______ _______ _____ _____    ______ ____
ROOT
ATOM      1  C   UNL     1       1.127   8.758  20.775  0.00  0.00    +0.000 A 
ATOM      2  C   UNL     1       0.675   8.706  22.086  0.00  0.00    +0.000 A 
ATOM      3  C   UNL     1       0.045   9.824  22.608  0.00  0.00    +0.000 A 
ATOM      4  C   UNL     1      -0.120  10.942  21.799  0.00  0.00    +0.000 A 
ATOM      5  C   UNL     1       0.361  10.937  20.485  0.00  0.00    +0.000 A 
ATOM      6  N   UNL     1       0.995   9.854  19.974  0.00  0.00    +0.000 NA
ENDROOT
BRANCH   1  12
ATOM      7  F   UNL     1       4.581   3.710  16.949  0.00  0.00    +0.000 F 
ATOM      8  C   UNL     1       3.908   4.302  17.949  0.00  0.00    +0.000 A 
ATOM      9  C   UNL     1       3.539   5.641  17.814  0.00  0.00    +0.000 A 
ATOM     10  C   UNL     1       2.838   6.238  18.871  0.00  0.00    +0.000 A 
ATOM     11  N   UNL     1       2.365   7.523  18.993  0.00  0.00    +0.000 NA
ATOM     12  C   UNL     1       1.777   7.590  20.176  0.00  0.00    +0.000 A 
ATOM     13  N   UNL     1       1.858   6.375  20.818  0.00  0.00    +0.000 N 
ATOM     14  C   UNL     1       2.534   5.494  20.007  0.00  0.00    +0.000 A 
ATOM     15  C   UNL     1       2.899   4.153  20.163  0.00  0.00    +0.000 A 
ATOM     16  C   UNL     1       3.597   3.577  19.096  0.00  0.00    +0.000 A 
ATOM     17  F   UNL     1       3.971   2.291  19.191  0.00  0.00    +0.000 F 
ATOM     18  H   UNL     1       1.481   6.202  21.736  0.00  0.00    +0.000 HD
ENDBRANCH   1  12
BRANCH   5  19
ATOM     19  N   UNL     1       0.193  12.099  19.716  0.00  0.00    +0.000 N 
ATOM     20  C   UNL     1      -0.329  13.261  20.437  0.00  0.00    +0.000 C 
ATOM     21  C   UNL     1      -0.506  14.449  19.485  0.00  0.00    +0.000 C 
ATOM     22  C   UNL     1       0.839  14.805  18.909  0.00  0.00    +0.000 A 
ATOM     23  C   UNL     1       1.231  16.133  18.720  0.00  0.00    +0.000 A 
ATOM     24  C   UNL     1       2.499  16.418  18.217  0.00  0.00    +0.000 A 
ATOM     25  C   UNL     1       3.371  15.381  17.889  0.00  0.00    +0.000 A 
ATOM     26  C   UNL     1       2.972  14.052  18.055  0.00  0.00    +0.000 A 
ATOM     27  C   UNL     1       1.705  13.751  18.572  0.00  0.00    +0.000 A 
ATOM     28  C   UNL     1       1.243  12.310  18.700  0.00  0.00    +0.000 C 
ENDBRANCH   5  19
TORSDOF 2
ENDMDL
