MODEL 1
REMARK VINA RESULT:      -8.7      0.000      0.000
REMARK  Name = 
REMARK  5 active torsions:
REMARK  status: ('A' for Active; 'I' for Inactive)
REMARK    1  A    between atoms: C_1  and  N_2
REMARK    2  A    between atoms: N_2  and  C_25
REMARK    3  A    between atoms: C_3  and  C_5
REMARK    4  A    between atoms: N_8  and  C_9
REMARK    5  A    between atoms: C_16  and  O_17
REMARK                            x       y       z     vdW  Elec       q    Type
REMARK                         _______ _______ _______ _____ _____    ______ ____
ROOT
ATOM      1  C   UNL     1      -0.488  10.180  20.261  0.00  0.00    +0.000 C 
ATOM      2  C   UNL     1      -0.091   8.959  21.099  0.00  0.00    +0.000 C 
ATOM      3  C   UNL     1       1.388   8.600  20.946  0.00  0.00    +0.000 C 
ATOM      4  N   UNL     1       1.660   8.411  19.525  0.00  0.00    +0.000 N 
ATOM      5  C   UNL     1       1.404   9.556  18.647  0.00  0.00    +0.000 C 
ATOM      6  C   UNL     1      -0.056   9.995  18.797  0.00  0.00    +0.000 C 
ENDROOT
BRANCH   4   7
ATOM      7  C   UNL     1       2.421   7.341  19.091  0.00  0.00    +0.000 A 
ATOM      8  C   UNL     1       2.277   6.046  19.614  0.00  0.00    +0.000 A 
ATOM      9  C   UNL     1       2.954   4.946  19.071  0.00  0.00    +0.000 A 
ATOM     10  C   UNL     1       3.793   5.121  17.974  0.00  0.00    +0.000 A 
ATOM     11  N   UNL     1       4.428   4.027  17.357  0.00  0.00    +0.000 N 
ATOM     12  C   UNL     1       5.171   4.241  16.229  0.00  0.00    +0.000 A 
ATOM     13  N   UNL     1       5.803   3.390  15.471  0.00  0.00    +0.000 NA
ATOM     14  C   UNL     1       6.344   4.210  14.508  0.00  0.00    +0.000 A 
ATOM     15  N   UNL     1       6.151   5.485  14.551  0.00  0.00    +0.000 NA
ATOM     16  C   UNL     1       5.378   5.597  15.664  0.00  0.00    +0.000 A 
ATOM     17  C   UNL     1       4.816   6.647  16.257  0.00  0.00    +0.000 A 
ATOM     18  C   UNL     1       3.975   6.425  17.450  0.00  0.00    +0.000 A 
ATOM     19  C   UNL     1       3.308   7.511  18.022  0.00  0.00    +0.000 A 
ATOM     20  H   UNL     1       4.312   3.095  17.720  0.00  0.00    +0.000 HD
BRANCH  14  21
ATOM     21  O   UNL     1       7.046   3.566  13.579  0.00  0.00    +0.000 OA
ATOM     22  H   UNL     1       7.152   4.176  12.837  0.00  0.00    +0.000 HD
ENDBRANCH  14  21
ENDBRANCH   4   7
BRANCH   1  25
ATOM     23  C   UNL     1      -0.651  12.874  18.878  0.00  0.00    +0.000 C 
ATOM     24  N   UNL     1       0.023  12.680  20.158  0.00  0.00    +0.000 N 
ATOM     25  C   UNL     1       0.124  11.466  20.836  0.00  0.00    +0.000 C 
ATOM     26  O   UNL     1       0.719  11.413  21.918  0.00  0.00    +0.000 OA
BRANCH  24  27
ATOM     27  C   UNL     1       0.775  13.820  20.757  0.00  0.00    +0.000 C 
ATOM     28  C   UNL     1       2.290  13.691  20.531  0.00  0.00    +0.000 C 
ATOM     29  C   UNL     1       2.694  14.019  19.100  0.00  0.00    +0.000 C 
ATOM     30  C   UNL     1       2.204  15.394  18.656  0.00  0.00    +0.000 C 
ATOM     31  C   UNL     1       0.755  15.725  19.010  0.00  0.00    +0.000 C 
ATOM     32  C   UNL     1       0.307  15.234  20.385  0.00  0.00    +0.000 C 
ENDBRANCH  24  27
ENDBRANCH   1  25
TORSDOF 4
ENDMDL
MODEL 2
REMARK VINA RESULT:      -8.7      0.834      1.117
REMARK  Name = 
REMARK  5 active torsions:
REMARK  status: ('A' for Active; 'I' for Inactive)
REMARK    1  A    between atoms: C_1  and  N_2
REMARK    2  A    between atoms: N_2  and  C_25
REMARK    3  A    between atoms: C_3  and  C_5
REMARK    4  A    between atoms: N_8  and  C_9
REMARK    5  A    between atoms: C_16  and  O_17
REMARK                            x       y       z     vdW  Elec       q    Type
REMARK                         _______ _______ _______ _____ _____    ______ ____
ROOT
ATOM      1  C   UNL     1      -0.666  10.331  20.520  0.00  0.00    +0.000 C 
ATOM      2  C   UNL     1      -0.169   9.182  21.406  0.00  0.00    +0.000 C 
ATOM      3  C   UNL     1       1.310   8.866  21.179  0.00  0.00    +0.000 C 
ATOM      4  N   UNL     1       1.498   8.593  19.757  0.00  0.00    +0.000 N 
ATOM      5  C   UNL     1       1.141   9.668  18.827  0.00  0.00    +0.000 C 
ATOM      6  C   UNL     1      -0.322  10.064  19.045  0.00  0.00    +0.000 C 
ENDROOT
BRANCH   4   7
ATOM      7  C   UNL     1       2.271   7.524  19.343  0.00  0.00    +0.000 A 
ATOM      8  C   UNL     1       2.170   6.247  19.918  0.00  0.00    +0.000 A 
ATOM      9  C   UNL     1       2.857   5.141  19.398  0.00  0.00    +0.000 A 
ATOM     10  C   UNL     1       3.662   5.292  18.272  0.00  0.00    +0.000 A 
ATOM     11  N   UNL     1       4.305   4.190  17.680  0.00  0.00    +0.000 N 
ATOM     12  C   UNL     1       5.012   4.376  16.525  0.00  0.00    +0.000 A 
ATOM     13  N   UNL     1       5.643   3.511  15.782  0.00  0.00    +0.000 NA
ATOM     14  C   UNL     1       6.139   4.305  14.775  0.00  0.00    +0.000 A 
ATOM     15  N   UNL     1       5.920   5.577  14.775  0.00  0.00    +0.000 NA
ATOM     16  C   UNL     1       5.174   5.714  15.904  0.00  0.00    +0.000 A 
ATOM     17  C   UNL     1       4.604   6.774  16.472  0.00  0.00    +0.000 A 
ATOM     18  C   UNL     1       3.801   6.580  17.695  0.00  0.00    +0.000 A 
ATOM     19  C   UNL     1       3.125   7.671  18.245  0.00  0.00    +0.000 A 
ATOM     20  H   UNL     1       4.220   3.270  18.081  0.00  0.00    +0.000 HD
BRANCH  14  21
ATOM     21  O   UNL     1       6.831   3.642  13.851  0.00  0.00    +0.000 OA
ATOM     22  H   UNL     1       7.107   4.290  13.189  0.00  0.00    +0.000 HD
ENDBRANCH  14  21
ENDBRANCH   4   7
BRANCH   1  25
ATOM     23  C   UNL     1      -2.088  12.988  20.188  0.00  0.00    +0.000 C 
ATOM     24  N   UNL     1      -0.765  12.868  20.792  0.00  0.00    +0.000 N 
ATOM     25  C   UNL     1      -0.070  11.672  20.970  0.00  0.00    +0.000 C 
ATOM     26  O   UNL     1       1.049  11.683  21.494  0.00  0.00    +0.000 OA
BRANCH  24  27
ATOM     27  C   UNL     1      -0.019  14.109  21.147  0.00  0.00    +0.000 C 
ATOM     28  C   UNL     1       0.979  14.515  20.049  0.00  0.00    +0.000 C 
ATOM     29  C   UNL     1       0.291  15.130  18.838  0.00  0.00    +0.000 C 
ATOM     30  C   UNL     1      -0.601  16.311  19.211  0.00  0.00    +0.000 C 
ATOM     31  C   UNL     1      -1.501  16.101  20.428  0.00  0.00    +0.000 C 
ATOM     32  C   UNL     1      -0.854  15.325  21.573  0.00  0.00    +0.000 C 
ENDBRANCH  24  27
ENDBRANCH   1  25
TORSDOF 4
ENDMDL
MODEL 3
REMARK VINA RESULT:      -8.5      1.363      1.953
REMARK  Name = 
REMARK  5 active torsions:
REMARK  status: ('A' for Active; 'I' for Inactive)
REMARK    1  A    between atoms: C_1  and  N_2
REMARK    2  A    between atoms: N_2  and  C_25
REMARK    3  A    between atoms: C_3  and  C_5
REMARK    4  A    between atoms: N_8  and  C_9
REMARK    5  A    between atoms: C_16  and  O_17
REMARK                            x       y       z     vdW  Elec       q    Type
REMARK                         _______ _______ _______ _____ _____    ______ ____
ROOT
ATOM      1  C   UNL     1      -0.708  10.212  20.612  0.00  0.00    +0.000 C 
ATOM      2  C   UNL     1      -0.362   8.953  21.416  0.00  0.00    +0.000 C 
ATOM      3  C   UNL     1       1.124   8.599  21.338  0.00  0.00    +0.000 C 
ATOM      4  N   UNL     1       1.483   8.475  19.928  0.00  0.00    +0.000 N 
ATOM      5  C   UNL     1       1.279   9.659  19.091  0.00  0.00    +0.000 C 
ATOM      6  C   UNL     1      -0.187  10.093  19.170  0.00  0.00    +0.000 C 
ENDROOT
BRANCH   4   7
ATOM      7  C   UNL     1       2.270   7.425  19.494  0.00  0.00    +0.000 A 
ATOM      8  C   UNL     1       2.211   6.144  20.067  0.00  0.00    +0.000 A 
ATOM      9  C   UNL     1       2.911   5.056  19.528  0.00  0.00    +0.000 A 
ATOM     10  C   UNL     1       3.687   5.228  18.384  0.00  0.00    +0.000 A 
ATOM     11  N   UNL     1       4.341   4.143  17.774  0.00  0.00    +0.000 N 
ATOM     12  C   UNL     1       5.018   4.348  16.604  0.00  0.00    +0.000 A 
ATOM     13  N   UNL     1       5.652   3.500  15.844  0.00  0.00    +0.000 NA
ATOM     14  C   UNL     1       6.107   4.307  14.829  0.00  0.00    +0.000 A 
ATOM     15  N   UNL     1       5.858   5.574  14.838  0.00  0.00    +0.000 NA
ATOM     16  C   UNL     1       5.135   5.691  15.984  0.00  0.00    +0.000 A 
ATOM     17  C   UNL     1       4.554   6.736  16.569  0.00  0.00    +0.000 A 
ATOM     18  C   UNL     1       3.784   6.520  17.809  0.00  0.00    +0.000 A 
ATOM     19  C   UNL     1       3.096   7.595  18.377  0.00  0.00    +0.000 A 
ATOM     20  H   UNL     1       4.286   3.220  18.174  0.00  0.00    +0.000 HD
BRANCH  14  21
ATOM     21  O   UNL     1       6.792   3.663  13.887  0.00  0.00    +0.000 OA
ATOM     22  H   UNL     1       7.691   3.551  14.223  0.00  0.00    +0.000 HD
ENDBRANCH  14  21
ENDBRANCH   4   7
BRANCH   1  25
ATOM     23  C   UNL     1      -2.427  12.362  21.882  0.00  0.00    +0.000 C 
ATOM     24  N   UNL     1      -0.970  12.429  21.850  0.00  0.00    +0.000 N 
ATOM     25  C   UNL     1      -0.135  11.468  21.282  0.00  0.00    +0.000 C 
ATOM     26  O   UNL     1       1.091  11.625  21.310  0.00  0.00    +0.000 OA
BRANCH  24  27
ATOM     27  C   UNL     1      -0.294  13.663  22.346  0.00  0.00    +0.000 C 
ATOM     28  C   UNL     1       0.053  14.628  21.200  0.00  0.00    +0.000 C 
ATOM     29  C   UNL     1      -1.170  15.365  20.671  0.00  0.00    +0.000 C 
ATOM     30  C   UNL     1      -1.933  16.096  21.773  0.00  0.00    +0.000 C 
ATOM     31  C   UNL     1      -2.162  15.301  23.057  0.00  0.00    +0.000 C 
ATOM     32  C   UNL     1      -0.986  14.426  23.484  0.00  0.00    +0.000 C 
ENDBRANCH  24  27
ENDBRANCH   1  25
TORSDOF 4
ENDMDL
MODEL 4
REMARK VINA RESULT:      -8.3      3.124      4.569
REMARK  Name = 
REMARK  5 active torsions:
REMARK  status: ('A' for Active; 'I' for Inactive)
REMARK    1  A    between atoms: C_1  and  N_2
REMARK    2  A    between atoms: N_2  and  C_25
REMARK    3  A    between atoms: C_3  and  C_5
REMARK    4  A    between atoms: N_8  and  C_9
REMARK    5  A    between atoms: C_16  and  O_17
REMARK                            x       y       z     vdW  Elec       q    Type
REMARK                         _______ _______ _______ _____ _____    ______ ____
ROOT
ATOM      1  C   UNL     1       0.052  12.120  21.586  0.00  0.00    +0.000 C 
ATOM      2  C   UNL     1       1.103  12.201  20.472  0.00  0.00    +0.000 C 
ATOM      3  C   UNL     1       0.859  11.176  19.363  0.00  0.00    +0.000 C 
ATOM      4  N   UNL     1       0.800   9.853  19.979  0.00  0.00    +0.000 N 
ATOM      5  C   UNL     1      -0.237   9.644  20.992  0.00  0.00    +0.000 C 
ATOM      6  C   UNL     1      -0.074  10.680  22.108  0.00  0.00    +0.000 C 
ENDROOT
BRANCH   4   7
ATOM      7  C   UNL     1       1.458   8.781  19.404  0.00  0.00    +0.000 A 
ATOM      8  C   UNL     1       2.176   8.888  18.202  0.00  0.00    +0.000 A 
ATOM      9  C   UNL     1       2.951   7.832  17.704  0.00  0.00    +0.000 A 
ATOM     10  C   UNL     1       3.031   6.635  18.413  0.00  0.00    +0.000 A 
ATOM     11  N   UNL     1       3.859   5.583  17.981  0.00  0.00    +0.000 N 
ATOM     12  C   UNL     1       3.969   4.464  18.758  0.00  0.00    +0.000 A 
ATOM     13  N   UNL     1       4.699   3.397  18.589  0.00  0.00    +0.000 NA
ATOM     14  C   UNL     1       4.377   2.650  19.698  0.00  0.00    +0.000 A 
ATOM     15  N   UNL     1       3.523   3.092  20.559  0.00  0.00    +0.000 NA
ATOM     16  C   UNL     1       3.200   4.295  20.016  0.00  0.00    +0.000 A 
ATOM     17  C   UNL     1       2.383   5.265  20.419  0.00  0.00    +0.000 A 
ATOM     18  C   UNL     1       2.288   6.498  19.612  0.00  0.00    +0.000 A 
ATOM     19  C   UNL     1       1.504   7.556  20.077  0.00  0.00    +0.000 A 
ATOM     20  H   UNL     1       4.388   5.664  17.128  0.00  0.00    +0.000 HD
BRANCH  14  21
ATOM     21  O   UNL     1       5.017   1.485  19.773  0.00  0.00    +0.000 OA
ATOM     22  H   UNL     1       5.051   1.245  20.709  0.00  0.00    +0.000 HD
ENDBRANCH  14  21
ENDBRANCH   4   7
BRANCH   1  25
ATOM     23  C   UNL     1      -1.802  13.825  23.274  0.00  0.00    +0.000 C 
ATOM     24  N   UNL     1      -2.128  13.409  21.914  0.00  0.00    +0.000 N 
ATOM     25  C   UNL     1      -1.311  12.629  21.096  0.00  0.00    +0.000 C 
ATOM     26  O   UNL     1      -1.685  12.332  19.957  0.00  0.00    +0.000 OA
BRANCH  24  27
ATOM     27  C   UNL     1      -3.480  13.722  21.368  0.00  0.00    +0.000 C 
ATOM     28  C   UNL     1      -4.550  12.748  21.891  0.00  0.00    +0.000 C 
ATOM     29  C   UNL     1      -4.935  13.030  23.336  0.00  0.00    +0.000 C 
ATOM     30  C   UNL     1      -5.378  14.474  23.552  0.00  0.00    +0.000 C 
ATOM     31  C   UNL     1      -4.498  15.539  22.898  0.00  0.00    +0.000 C 
ATOM     32  C   UNL     1      -3.971  15.169  21.513  0.00  0.00    +0.000 C 
ENDBRANCH  24  27
ENDBRANCH   1  25
TORSDOF 4
ENDMDL
MODEL 5
REMARK VINA RESULT:      -8.2      3.225      4.599
REMARK  Name = 
REMARK  5 active torsions:
REMARK  status: ('A' for Active; 'I' for Inactive)
REMARK    1  A    between atoms: C_1  and  N_2
REMARK    2  A    between atoms: N_2  and  C_25
REMARK    3  A    between atoms: C_3  and  C_5
REMARK    4  A    between atoms: N_8  and  C_9
REMARK    5  A    between atoms: C_16  and  O_17
REMARK                            x       y       z     vdW  Elec       q    Type
REMARK                         _______ _______ _______ _____ _____    ______ ____
ROOT
ATOM      1  C   UNL     1      -0.575  12.480  20.658  0.00  0.00    +0.000 C 
ATOM      2  C   UNL     1      -0.924  11.742  19.359  0.00  0.00    +0.000 C 
ATOM      3  C   UNL     1      -0.799  10.224  19.498  0.00  0.00    +0.000 C 
ATOM      4  N   UNL     1       0.552   9.925  19.962  0.00  0.00    +0.000 N 
ATOM      5  C   UNL     1       0.951  10.507  21.246  0.00  0.00    +0.000 C 
ATOM      6  C   UNL     1       0.797  12.029  21.185  0.00  0.00    +0.000 C 
ENDROOT
BRANCH   4   7
ATOM      7  C   UNL     1       1.279   8.895  19.394  0.00  0.00    +0.000 A 
ATOM      8  C   UNL     1       2.053   9.062  18.234  0.00  0.00    +0.000 A 
ATOM      9  C   UNL     1       2.892   8.050  17.749  0.00  0.00    +0.000 A 
ATOM     10  C   UNL     1       2.981   6.838  18.428  0.00  0.00    +0.000 A 
ATOM     11  N   UNL     1       3.869   5.829  18.011  0.00  0.00    +0.000 N 
ATOM     12  C   UNL     1       3.983   4.693  18.763  0.00  0.00    +0.000 A 
ATOM     13  N   UNL     1       4.760   3.659  18.603  0.00  0.00    +0.000 NA
ATOM     14  C   UNL     1       4.411   2.869  19.673  0.00  0.00    +0.000 A 
ATOM     15  N   UNL     1       3.499   3.254  20.501  0.00  0.00    +0.000 NA
ATOM     16  C   UNL     1       3.158   4.460  19.974  0.00  0.00    +0.000 A 
ATOM     17  C   UNL     1       2.285   5.387  20.361  0.00  0.00    +0.000 A 
ATOM     18  C   UNL     1       2.184   6.638  19.583  0.00  0.00    +0.000 A 
ATOM     19  C   UNL     1       1.338   7.652  20.035  0.00  0.00    +0.000 A 
ATOM     20  H   UNL     1       4.438   5.954  17.189  0.00  0.00    +0.000 HD
BRANCH  14  21
ATOM     21  O   UNL     1       5.091   1.727  19.750  0.00  0.00    +0.000 OA
ATOM     22  H   UNL     1       6.009   1.932  19.529  0.00  0.00    +0.000 HD
ENDBRANCH  14  21
ENDBRANCH   4   7
BRANCH   1  25
ATOM     23  C   UNL     1      -3.135  14.097  20.816  0.00  0.00    +0.000 C 
ATOM     24  N   UNL     1      -2.814  13.028  21.756  0.00  0.00    +0.000 N 
ATOM     25  C   UNL     1      -1.654  12.255  21.726  0.00  0.00    +0.000 C 
ATOM     26  O   UNL     1      -1.481  11.372  22.574  0.00  0.00    +0.000 OA
BRANCH  24  27
ATOM     27  C   UNL     1      -3.715  12.799  22.923  0.00  0.00    +0.000 C 
ATOM     28  C   UNL     1      -3.256  13.581  24.165  0.00  0.00    +0.000 C 
ATOM     29  C   UNL     1      -3.567  15.068  24.063  0.00  0.00    +0.000 C 
ATOM     30  C   UNL     1      -5.042  15.338  23.777  0.00  0.00    +0.000 C 
ATOM     31  C   UNL     1      -5.673  14.469  22.690  0.00  0.00    +0.000 C 
ATOM     32  C   UNL     1      -5.217  13.012  22.693  0.00  0.00    +0.000 C 
ENDBRANCH  24  27
ENDBRANCH   1  25
TORSDOF 4
ENDMDL
MODEL 6
REMARK VINA RESULT:      -8.0      2.880      4.196
REMARK  Name = 
REMARK  5 active torsions:
REMARK  status: ('A' for Active; 'I' for Inactive)
REMARK    1  A    between atoms: C_1  and  N_2
REMARK    2  A    between atoms: N_2  and  C_25
REMARK    3  A    between atoms: C_3  and  C_5
REMARK    4  A    between atoms: N_8  and  C_9
REMARK    5  A    between atoms: C_16  and  O_17
REMARK                            x       y       z     vdW  Elec       q    Type
REMARK                         _______ _______ _______ _____ _____    ______ ____
ROOT
ATOM      1  C   UNL     1      -1.434  11.543  22.012  0.00  0.00    +0.000 C 
ATOM      2  C   UNL     1      -0.726  10.337  22.643  0.00  0.00    +0.000 C 
ATOM      3  C   UNL     1       0.657  10.089  22.040  0.00  0.00    +0.000 C 
ATOM      4  N   UNL     1       0.499   9.949  20.596  0.00  0.00    +0.000 N 
ATOM      5  C   UNL     1      -0.081  11.089  19.882  0.00  0.00    +0.000 C 
ATOM      6  C   UNL     1      -1.453  11.418  20.480  0.00  0.00    +0.000 C 
ENDROOT
BRANCH   4   7
ATOM      7  C   UNL     1       1.160   8.945  19.911  0.00  0.00    +0.000 A 
ATOM      8  C   UNL     1       1.809   9.163  18.685  0.00  0.00    +0.000 A 
ATOM      9  C   UNL     1       2.590   8.175  18.072  0.00  0.00    +0.000 A 
ATOM     10  C   UNL     1       2.748   6.935  18.687  0.00  0.00    +0.000 A 
ATOM     11  N   UNL     1       3.586   5.947  18.137  0.00  0.00    +0.000 N 
ATOM     12  C   UNL     1       3.775   4.781  18.824  0.00  0.00    +0.000 A 
ATOM     13  N   UNL     1       4.530   3.756  18.541  0.00  0.00    +0.000 NA
ATOM     14  C   UNL     1       4.294   2.921  19.607  0.00  0.00    +0.000 A 
ATOM     15  N   UNL     1       3.474   3.269  20.542  0.00  0.00    +0.000 NA
ATOM     16  C   UNL     1       3.082   4.495  20.104  0.00  0.00    +0.000 A 
ATOM     17  C   UNL     1       2.256   5.403  20.619  0.00  0.00    +0.000 A 
ATOM     18  C   UNL     1       2.076   6.685  19.910  0.00  0.00    +0.000 A 
ATOM     19  C   UNL     1       1.284   7.678  20.491  0.00  0.00    +0.000 A 
ATOM     20  H   UNL     1       4.065   6.108  17.266  0.00  0.00    +0.000 HD
BRANCH  14  21
ATOM     21  O   UNL     1       4.975   1.779  19.565  0.00  0.00    +0.000 OA
ATOM     22  H   UNL     1       5.890   1.990  19.794  0.00  0.00    +0.000 HD
ENDBRANCH  14  21
ENDBRANCH   4   7
BRANCH   1  25
ATOM     23  C   UNL     1      -2.743  13.593  23.822  0.00  0.00    +0.000 C 
ATOM     24  N   UNL     1      -1.407  13.769  23.262  0.00  0.00    +0.000 N 
ATOM     25  C   UNL     1      -0.760  12.858  22.429  0.00  0.00    +0.000 C 
ATOM     26  O   UNL     1       0.375  13.107  22.010  0.00  0.00    +0.000 OA
BRANCH  24  27
ATOM     27  C   UNL     1      -0.699  15.064  23.480  0.00  0.00    +0.000 C 
ATOM     28  C   UNL     1      -0.934  16.049  22.322  0.00  0.00    +0.000 C 
ATOM     29  C   UNL     1      -2.326  16.665  22.357  0.00  0.00    +0.000 C 
ATOM     30  C   UNL     1      -2.637  17.330  23.695  0.00  0.00    +0.000 C 
ATOM     31  C   UNL     1      -2.254  16.527  24.937  0.00  0.00    +0.000 C 
ATOM     32  C   UNL     1      -0.934  15.767  24.824  0.00  0.00    +0.000 C 
ENDBRANCH  24  27
ENDBRANCH   1  25
TORSDOF 4
ENDMDL
MODEL 7
REMARK VINA RESULT:      -8.0      2.455      3.307
REMARK  Name = 
REMARK  5 active torsions:
REMARK  status: ('A' for Active; 'I' for Inactive)
REMARK    1  A    between atoms: C_1  and  N_2
REMARK    2  A    between atoms: N_2  and  C_25
REMARK    3  A    between atoms: C_3  and  C_5
REMARK    4  A    between atoms: N_8  and  C_9
REMARK    5  A    between atoms: C_16  and  O_17
REMARK                            x       y       z     vdW  Elec       q    Type
REMARK                         _______ _______ _______ _____ _____    ______ ____
ROOT
ATOM      1  C   UNL     1      -0.985  11.286  20.700  0.00  0.00    +0.000 C 
ATOM      2  C   UNL     1      -0.368  10.173  21.556  0.00  0.00    +0.000 C 
ATOM      3  C   UNL     1       1.060   9.831  21.130  0.00  0.00    +0.000 C 
ATOM      4  N   UNL     1       1.037   9.493  19.711  0.00  0.00    +0.000 N 
ATOM      5  C   UNL     1       0.553  10.529  18.795  0.00  0.00    +0.000 C 
ATOM      6  C   UNL     1      -0.861  10.951  19.205  0.00  0.00    +0.000 C 
ENDROOT
BRANCH   4   7
ATOM      7  C   UNL     1       1.736   8.398  19.238  0.00  0.00    +0.000 A 
ATOM      8  C   UNL     1       2.575   8.461  18.113  0.00  0.00    +0.000 A 
ATOM      9  C   UNL     1       3.384   7.384  17.727  0.00  0.00    +0.000 A 
ATOM     10  C   UNL     1       3.376   6.209  18.475  0.00  0.00    +0.000 A 
ATOM     11  N   UNL     1       4.231   5.136  18.161  0.00  0.00    +0.000 N 
ATOM     12  C   UNL     1       4.248   4.040  18.978  0.00  0.00    +0.000 A 
ATOM     13  N   UNL     1       4.978   2.962  18.916  0.00  0.00    +0.000 NA
ATOM     14  C   UNL     1       4.536   2.253  20.008  0.00  0.00    +0.000 A 
ATOM     15  N   UNL     1       3.605   2.728  20.764  0.00  0.00    +0.000 NA
ATOM     16  C   UNL     1       3.354   3.918  20.155  0.00  0.00    +0.000 A 
ATOM     17  C   UNL     1       2.512   4.907  20.445  0.00  0.00    +0.000 A 
ATOM     18  C   UNL     1       2.514   6.114  19.596  0.00  0.00    +0.000 A 
ATOM     19  C   UNL     1       1.699   7.193  19.948  0.00  0.00    +0.000 A 
ATOM     20  H   UNL     1       4.845   5.186  17.365  0.00  0.00    +0.000 HD
BRANCH  14  21
ATOM     21  O   UNL     1       5.151   1.085  20.182  0.00  0.00    +0.000 OA
ATOM     22  H   UNL     1       5.780   1.206  20.906  0.00  0.00    +0.000 HD
ENDBRANCH  14  21
ENDBRANCH   4   7
BRANCH   1  25
ATOM     23  C   UNL     1      -2.453  13.935  20.545  0.00  0.00    +0.000 C 
ATOM     24  N   UNL     1      -1.043  13.831  20.908  0.00  0.00    +0.000 N 
ATOM     25  C   UNL     1      -0.323  12.640  20.997  0.00  0.00    +0.000 C 
ATOM     26  O   UNL     1       0.870  12.665  21.314  0.00  0.00    +0.000 OA
BRANCH  24  27
ATOM     27  C   UNL     1      -0.251  15.081  21.089  0.00  0.00    +0.000 C 
ATOM     28  C   UNL     1       0.557  15.437  19.829  0.00  0.00    +0.000 C 
ATOM     29  C   UNL     1      -0.318  16.007  18.720  0.00  0.00    +0.000 C 
ATOM     30  C   UNL     1      -1.139  17.206  19.183  0.00  0.00    +0.000 C 
ATOM     31  C   UNL     1      -1.831  17.051  20.537  0.00  0.00    +0.000 C 
ATOM     32  C   UNL     1      -1.008  16.318  21.593  0.00  0.00    +0.000 C 
ENDBRANCH  24  27
ENDBRANCH   1  25
TORSDOF 4
ENDMDL
MODEL 8
REMARK VINA RESULT:      -7.9      3.263      4.616
REMARK  Name = 
REMARK  5 active torsions:
REMARK  status: ('A' for Active; 'I' for Inactive)
REMARK    1  A    between atoms: C_1  and  N_2
REMARK    2  A    between atoms: N_2  and  C_25
REMARK    3  A    between atoms: C_3  and  C_5
REMARK    4  A    between atoms: N_8  and  C_9
REMARK    5  A    between atoms: C_16  and  O_17
REMARK                            x       y       z     vdW  Elec       q    Type
REMARK                         _______ _______ _______ _____ _____    ______ ____
ROOT
ATOM      1  C   UNL     1      -1.635  12.210  18.381  0.00  0.00    +0.000 C 
ATOM      2  C   UNL     1      -1.712  10.787  17.817  0.00  0.00    +0.000 C 
ATOM      3  C   UNL     1      -1.331   9.726  18.851  0.00  0.00    +0.000 C 
ATOM      4  N   UNL     1      -0.002  10.051  19.360  0.00  0.00    +0.000 N 
ATOM      5  C   UNL     1       0.154  11.357  20.007  0.00  0.00    +0.000 C 
ATOM      6  C   UNL     1      -0.264  12.461  19.031  0.00  0.00    +0.000 C 
ENDROOT
BRANCH   4   7
ATOM      7  C   UNL     1       0.951   9.062  19.518  0.00  0.00    +0.000 A 
ATOM      8  C   UNL     1       1.027   8.259  20.668  0.00  0.00    +0.000 A 
ATOM      9  C   UNL     1       1.906   7.171  20.757  0.00  0.00    +0.000 A 
ATOM     10  C   UNL     1       2.731   6.857  19.680  0.00  0.00    +0.000 A 
ATOM     11  N   UNL     1       3.570   5.728  19.707  0.00  0.00    +0.000 N 
ATOM     12  C   UNL     1       4.295   5.412  18.591  0.00  0.00    +0.000 A 
ATOM     13  N   UNL     1       5.092   4.405  18.368  0.00  0.00    +0.000 NA
ATOM     14  C   UNL     1       5.503   4.644  17.078  0.00  0.00    +0.000 A 
ATOM     15  N   UNL     1       5.083   5.684  16.439  0.00  0.00    +0.000 NA
ATOM     16  C   UNL     1       4.271   6.253  17.369  0.00  0.00    +0.000 A 
ATOM     17  C   UNL     1       3.512   7.346  17.340  0.00  0.00    +0.000 A 
ATOM     18  C   UNL     1       2.691   7.674  18.523  0.00  0.00    +0.000 A 
ATOM     19  C   UNL     1       1.823   8.767  18.465  0.00  0.00    +0.000 A 
ATOM     20  H   UNL     1       3.614   5.140  20.524  0.00  0.00    +0.000 HD
BRANCH  14  21
ATOM     21  O   UNL     1       6.336   3.726  16.595  0.00  0.00    +0.000 OA
ATOM     22  H   UNL     1       5.950   3.406  15.769  0.00  0.00    +0.000 HD
ENDBRANCH  14  21
ENDBRANCH   4   7
BRANCH   1  25
ATOM     23  C   UNL     1      -4.568  11.721  17.788  0.00  0.00    +0.000 C 
ATOM     24  N   UNL     1      -4.093  12.223  19.073  0.00  0.00    +0.000 N 
ATOM     25  C   UNL     1      -2.758  12.463  19.397  0.00  0.00    +0.000 C 
ATOM     26  O   UNL     1      -2.465  12.890  20.518  0.00  0.00    +0.000 OA
BRANCH  24  27
ATOM     27  C   UNL     1      -5.092  12.637  20.099  0.00  0.00    +0.000 C 
ATOM     28  C   UNL     1      -5.589  14.075  19.871  0.00  0.00    +0.000 C 
ATOM     29  C   UNL     1      -6.564  14.175  18.706  0.00  0.00    +0.000 C 
ATOM     30  C   UNL     1      -7.745  13.219  18.849  0.00  0.00    +0.000 C 
ATOM     31  C   UNL     1      -7.394  11.795  19.278  0.00  0.00    +0.000 C 
ATOM     32  C   UNL     1      -6.286  11.699  20.325  0.00  0.00    +0.000 C 
ENDBRANCH  24  27
ENDBRANCH   1  25
TORSDOF 4
ENDMDL
MODEL 9
REMARK VINA RESULT:      -7.8      2.835      4.159
REMARK  Name = 
REMARK  5 active torsions:
REMARK  status: ('A' for Active; 'I' for Inactive)
REMARK    1  A    between atoms: C_1  and  N_2
REMARK    2  A    between atoms: N_2  and  C_25
REMARK    3  A    between atoms: C_3  and  C_5
REMARK    4  A    between atoms: N_8  and  C_9
REMARK    5  A    between atoms: C_16  and  O_17
REMARK                            x       y       z     vdW  Elec       q    Type
REMARK                         _______ _______ _______ _____ _____    ______ ____
ROOT
ATOM      1  C   UNL     1      -1.080  12.983  19.326  0.00  0.00    +0.000 C 
ATOM      2  C   UNL     1      -1.047  11.829  18.317  0.00  0.00    +0.000 C 
ATOM      3  C   UNL     1      -1.061  10.458  18.995  0.00  0.00    +0.000 C 
ATOM      4  N   UNL     1       0.056  10.409  19.934  0.00  0.00    +0.000 N 
ATOM      5  C   UNL     1       0.066  11.415  20.999  0.00  0.00    +0.000 C 
ATOM      6  C   UNL     1       0.028  12.814  20.378  0.00  0.00    +0.000 C 
ENDROOT
BRANCH   4   7
ATOM      7  C   UNL     1       0.862   9.288  20.008  0.00  0.00    +0.000 A 
ATOM      8  C   UNL     1       0.801   8.380  21.077  0.00  0.00    +0.000 A 
ATOM      9  C   UNL     1       1.523   7.178  21.073  0.00  0.00    +0.000 A 
ATOM     10  C   UNL     1       2.323   6.854  19.981  0.00  0.00    +0.000 A 
ATOM     11  N   UNL     1       3.001   5.623  19.910  0.00  0.00    +0.000 N 
ATOM     12  C   UNL     1       3.702   5.315  18.778  0.00  0.00    +0.000 A 
ATOM     13  N   UNL     1       4.361   4.233  18.470  0.00  0.00    +0.000 NA
ATOM     14  C   UNL     1       4.832   4.532  17.213  0.00  0.00    +0.000 A 
ATOM     15  N   UNL     1       4.572   5.674  16.670  0.00  0.00    +0.000 NA
ATOM     16  C   UNL     1       3.822   6.261  17.641  0.00  0.00    +0.000 A 
ATOM     17  C   UNL     1       3.219   7.445  17.707  0.00  0.00    +0.000 A 
ATOM     18  C   UNL     1       2.422   7.772  18.905  0.00  0.00    +0.000 A 
ATOM     19  C   UNL     1       1.712   8.974  18.942  0.00  0.00    +0.000 A 
ATOM     20  H   UNL     1       2.945   4.962  20.668  0.00  0.00    +0.000 HD
BRANCH  14  21
ATOM     21  O   UNL     1       5.544   3.556  16.654  0.00  0.00    +0.000 OA
ATOM     22  H   UNL     1       6.456   3.872  16.598  0.00  0.00    +0.000 HD
ENDBRANCH  14  21
ENDBRANCH   4   7
BRANCH   1  25
ATOM     23  C   UNL     1      -1.791  15.116  21.361  0.00  0.00    +0.000 C 
ATOM     24  N   UNL     1      -2.727  14.077  20.942  0.00  0.00    +0.000 N 
ATOM     25  C   UNL     1      -2.451  13.077  20.011  0.00  0.00    +0.000 C 
ATOM     26  O   UNL     1      -3.319  12.244  19.728  0.00  0.00    +0.000 OA
BRANCH  24  27
ATOM     27  C   UNL     1      -4.046  13.974  21.631  0.00  0.00    +0.000 C 
ATOM     28  C   UNL     1      -4.190  12.651  22.402  0.00  0.00    +0.000 C 
ATOM     29  C   UNL     1      -3.379  12.639  23.691  0.00  0.00    +0.000 C 
ATOM     30  C   UNL     1      -3.705  13.823  24.597  0.00  0.00    +0.000 C 
ATOM     31  C   UNL     1      -3.795  15.181  23.903  0.00  0.00    +0.000 C 
ATOM     32  C   UNL     1      -4.456  15.152  22.527  0.00  0.00    +0.000 C 
ENDBRANCH  24  27
ENDBRANCH   1  25
TORSDOF 4
ENDMDL
