MODEL 1
REMARK VINA RESULT:      -5.6      0.000      0.000
REMARK  Name = 
REMARK  6 active torsions:
REMARK  status: ('A' for Active; 'I' for Inactive)
REMARK    1  A    between atoms: N_1  and  C_2
REMARK    2  A    between atoms: C_6  and  N_7
REMARK    3  A    between atoms: N_7  and  C_8
REMARK    4  A    between atoms: N_7  and  C_11
REMARK    5  A    between atoms: C_8  and  C_9
REMARK    6  A    between atoms: C_11  and  C_12
REMARK                            x       y       z     vdW  Elec       q    Type
REMARK                         _______ _______ _______ _____ _____    ______ ____
ROOT
ATOM      1  C   UNL     1       7.524   5.800  19.226  0.00  0.00    +0.000 A 
ATOM      2  C   UNL     1       7.953   6.842  18.397  0.00  0.00    +0.000 A 
ATOM      3  C   UNL     1       7.125   7.314  17.384  0.00  0.00    +0.000 A 
ATOM      4  C   UNL     1       5.870   6.744  17.179  0.00  0.00    +0.000 A 
ATOM      5  C   UNL     1       5.399   5.687  18.000  0.00  0.00    +0.000 A 
ATOM      6  C   UNL     1       6.250   5.236  19.037  0.00  0.00    +0.000 A 
ENDROOT
BRANCH   1   7
ATOM      7  N   UNL     1       8.380   5.316  20.246  0.00  0.00    +0.000 N 
ATOM      8  H   UNL     1       8.362   5.733  21.189  0.00  0.00    +0.000 HD
ATOM      9  H   UNL     1       9.046   4.553  20.058  0.00  0.00    +0.000 HD
ENDBRANCH   1   7
BRANCH   5  10
ATOM     10  N   UNL     1       4.106   5.081  17.761  0.00  0.00    +0.000 N 
BRANCH  10  11
ATOM     11  C   UNL     1       3.976   3.761  17.134  0.00  0.00    +0.000 C 
BRANCH  11  12
ATOM     12  C   UNL     1       3.648   2.672  18.163  0.00  0.00    +0.000 C 
ATOM     13 CL   UNL     1       1.910   2.265  18.126  0.00  0.00    +0.000 Cl
ENDBRANCH  11  12
ENDBRANCH  10  11
BRANCH  10  14
ATOM     14  C   UNL     1       2.874   5.801  18.098  0.00  0.00    +0.000 C 
BRANCH  14  15
ATOM     15  C   UNL     1       2.801   6.092  19.605  0.00  0.00    +0.000 C 
ATOM     16 CL   UNL     1       1.622   5.015  20.402  0.00  0.00    +0.000 Cl
ENDBRANCH  14  15
ENDBRANCH  10  14
ENDBRANCH   5  10
TORSDOF 6
ENDMDL
MODEL 2
REMARK VINA RESULT:      -5.5      0.746      2.219
REMARK  Name = 
REMARK  6 active torsions:
REMARK  status: ('A' for Active; 'I' for Inactive)
REMARK    1  A    between atoms: N_1  and  C_2
REMARK    2  A    between atoms: C_6  and  N_7
REMARK    3  A    between atoms: N_7  and  C_8
REMARK    4  A    between atoms: N_7  and  C_11
REMARK    5  A    between atoms: C_8  and  C_9
REMARK    6  A    between atoms: C_11  and  C_12
REMARK                            x       y       z     vdW  Elec       q    Type
REMARK                         _______ _______ _______ _____ _____    ______ ____
ROOT
ATOM      1  C   UNL     1       7.416   5.749  19.142  0.00  0.00    +0.000 A 
ATOM      2  C   UNL     1       7.795   6.811  18.313  0.00  0.00    +0.000 A 
ATOM      3  C   UNL     1       6.934   7.264  17.320  0.00  0.00    +0.000 A 
ATOM      4  C   UNL     1       5.694   6.656  17.133  0.00  0.00    +0.000 A 
ATOM      5  C   UNL     1       5.273   5.578  17.954  0.00  0.00    +0.000 A 
ATOM      6  C   UNL     1       6.157   5.147  18.971  0.00  0.00    +0.000 A 
ENDROOT
BRANCH   1   7
ATOM      7  N   UNL     1       8.305   5.285  20.141  0.00  0.00    +0.000 N 
ATOM      8  H   UNL     1       9.171   4.787  19.884  0.00  0.00    +0.000 HD
ATOM      9  H   UNL     1       8.095   5.421  21.140  0.00  0.00    +0.000 HD
ENDBRANCH   1   7
BRANCH   5  10
ATOM     10  N   UNL     1       3.995   4.933  17.734  0.00  0.00    +0.000 N 
BRANCH  10  11
ATOM     11  C   UNL     1       2.729   5.602  18.053  0.00  0.00    +0.000 C 
BRANCH  11  12
ATOM     12  C   UNL     1       2.715   6.141  19.489  0.00  0.00    +0.000 C 
ATOM     13 CL   UNL     1       1.620   5.180  20.519  0.00  0.00    +0.000 Cl
ENDBRANCH  11  12
ENDBRANCH  10  11
BRANCH  10  14
ATOM     14  C   UNL     1       3.933   3.559  17.227  0.00  0.00    +0.000 C 
BRANCH  14  15
ATOM     15  C   UNL     1       3.152   2.652  18.190  0.00  0.00    +0.000 C 
ATOM     16 CL   UNL     1       4.050   2.423  19.715  0.00  0.00    +0.000 Cl
ENDBRANCH  14  15
ENDBRANCH  10  14
ENDBRANCH   5  10
TORSDOF 6
ENDMDL
MODEL 3
REMARK VINA RESULT:      -5.5      3.180      4.984
REMARK  Name = 
REMARK  6 active torsions:
REMARK  status: ('A' for Active; 'I' for Inactive)
REMARK    1  A    between atoms: N_1  and  C_2
REMARK    2  A    between atoms: C_6  and  N_7
REMARK    3  A    between atoms: N_7  and  C_8
REMARK    4  A    between atoms: N_7  and  C_11
REMARK    5  A    between atoms: C_8  and  C_9
REMARK    6  A    between atoms: C_11  and  C_12
REMARK                            x       y       z     vdW  Elec       q    Type
REMARK                         _______ _______ _______ _____ _____    ______ ____
ROOT
ATOM      1  C   UNL     1       3.017   2.963  17.960  0.00  0.00    +0.000 A 
ATOM      2  C   UNL     1       1.992   3.871  18.246  0.00  0.00    +0.000 A 
ATOM      3  C   UNL     1       2.194   5.235  18.062  0.00  0.00    +0.000 A 
ATOM      4  C   UNL     1       3.424   5.707  17.606  0.00  0.00    +0.000 A 
ATOM      5  C   UNL     1       4.488   4.817  17.305  0.00  0.00    +0.000 A 
ATOM      6  C   UNL     1       4.252   3.433  17.480  0.00  0.00    +0.000 A 
ENDROOT
BRANCH   1   7
ATOM      7  N   UNL     1       2.806   1.578  18.165  0.00  0.00    +0.000 N 
ATOM      8  H   UNL     1       3.232   0.882  17.533  0.00  0.00    +0.000 HD
ATOM      9  H   UNL     1       2.211   1.242  18.936  0.00  0.00    +0.000 HD
ENDBRANCH   1   7
BRANCH   5  10
ATOM     10  N   UNL     1       5.771   5.319  16.860  0.00  0.00    +0.000 N 
BRANCH  10  11
ATOM     11  C   UNL     1       6.766   4.444  16.230  0.00  0.00    +0.000 C 
BRANCH  11  12
ATOM     12  C   UNL     1       6.991   4.804  14.757  0.00  0.00    +0.000 C 
ATOM     13 CL   UNL     1       5.765   4.026  13.718  0.00  0.00    +0.000 Cl
ENDBRANCH  11  12
ENDBRANCH  10  11
BRANCH  10  14
ATOM     14  C   UNL     1       6.135   6.723  17.073  0.00  0.00    +0.000 C 
BRANCH  14  15
ATOM     15  C   UNL     1       7.463   6.837  17.836  0.00  0.00    +0.000 C 
ATOM     16 CL   UNL     1       8.074   8.514  17.801  0.00  0.00    +0.000 Cl
ENDBRANCH  14  15
ENDBRANCH  10  14
ENDBRANCH   5  10
TORSDOF 6
ENDMDL
MODEL 4
REMARK VINA RESULT:      -5.4      3.181      5.388
REMARK  Name = 
REMARK  6 active torsions:
REMARK  status: ('A' for Active; 'I' for Inactive)
REMARK    1  A    between atoms: N_1  and  C_2
REMARK    2  A    between atoms: C_6  and  N_7
REMARK    3  A    between atoms: N_7  and  C_8
REMARK    4  A    between atoms: N_7  and  C_11
REMARK    5  A    between atoms: C_8  and  C_9
REMARK    6  A    between atoms: C_11  and  C_12
REMARK                            x       y       z     vdW  Elec       q    Type
REMARK                         _______ _______ _______ _____ _____    ______ ____
ROOT
ATOM      1  C   UNL     1       2.840   3.112  17.722  0.00  0.00    +0.000 A 
ATOM      2  C   UNL     1       2.082   4.215  18.129  0.00  0.00    +0.000 A 
ATOM      3  C   UNL     1       2.593   5.502  17.996  0.00  0.00    +0.000 A 
ATOM      4  C   UNL     1       3.869   5.700  17.471  0.00  0.00    +0.000 A 
ATOM      5  C   UNL     1       4.667   4.607  17.046  0.00  0.00    +0.000 A 
ATOM      6  C   UNL     1       4.119   3.309  17.171  0.00  0.00    +0.000 A 
ENDROOT
BRANCH   1   7
ATOM      7  N   UNL     1       2.317   1.805  17.874  0.00  0.00    +0.000 N 
ATOM      8  H   UNL     1       2.007   1.264  17.052  0.00  0.00    +0.000 HD
ATOM      9  H   UNL     1       2.222   1.380  18.807  0.00  0.00    +0.000 HD
ENDBRANCH   1   7
BRANCH   5  10
ATOM     10  N   UNL     1       6.003   4.822  16.529  0.00  0.00    +0.000 N 
BRANCH  10  11
ATOM     11  C   UNL     1       7.190   4.689  17.380  0.00  0.00    +0.000 C 
BRANCH  11  12
ATOM     12  C   UNL     1       7.293   5.831  18.398  0.00  0.00    +0.000 C 
ATOM     13 CL   UNL     1       7.586   7.389  17.578  0.00  0.00    +0.000 Cl
ENDBRANCH  11  12
ENDBRANCH  10  11
BRANCH  10  14
ATOM     14  C   UNL     1       6.203   5.231  15.135  0.00  0.00    +0.000 C 
BRANCH  14  15
ATOM     15  C   UNL     1       6.513   4.017  14.245  0.00  0.00    +0.000 C 
ATOM     16 CL   UNL     1       5.262   3.817  12.988  0.00  0.00    +0.000 Cl
ENDBRANCH  14  15
ENDBRANCH  10  14
ENDBRANCH   5  10
TORSDOF 6
ENDMDL
MODEL 5
REMARK VINA RESULT:      -5.3      2.040      2.937
REMARK  Name = 
REMARK  6 active torsions:
REMARK  status: ('A' for Active; 'I' for Inactive)
REMARK    1  A    between atoms: N_1  and  C_2
REMARK    2  A    between atoms: C_6  and  N_7
REMARK    3  A    between atoms: N_7  and  C_8
REMARK    4  A    between atoms: N_7  and  C_11
REMARK    5  A    between atoms: C_8  and  C_9
REMARK    6  A    between atoms: C_11  and  C_12
REMARK                            x       y       z     vdW  Elec       q    Type
REMARK                         _______ _______ _______ _____ _____    ______ ____
ROOT
ATOM      1  C   UNL     1       6.875   5.161  16.680  0.00  0.00    +0.000 A 
ATOM      2  C   UNL     1       7.546   5.738  17.762  0.00  0.00    +0.000 A 
ATOM      3  C   UNL     1       7.010   5.655  19.043  0.00  0.00    +0.000 A 
ATOM      4  C   UNL     1       5.792   5.010  19.254  0.00  0.00    +0.000 A 
ATOM      5  C   UNL     1       5.082   4.411  18.181  0.00  0.00    +0.000 A 
ATOM      6  C   UNL     1       5.657   4.491  16.891  0.00  0.00    +0.000 A 
ENDROOT
BRANCH   1   7
ATOM      7  N   UNL     1       7.422   5.264  15.378  0.00  0.00    +0.000 N 
ATOM      8  H   UNL     1       7.680   4.417  14.848  0.00  0.00    +0.000 HD
ATOM      9  H   UNL     1       7.587   6.184  14.945  0.00  0.00    +0.000 HD
ENDBRANCH   1   7
BRANCH   5  10
ATOM     10  N   UNL     1       3.804   3.768  18.406  0.00  0.00    +0.000 N 
BRANCH  10  11
ATOM     11  C   UNL     1       2.559   4.313  17.855  0.00  0.00    +0.000 C 
BRANCH  11  12
ATOM     12  C   UNL     1       2.398   5.804  18.176  0.00  0.00    +0.000 C 
ATOM     13 CL   UNL     1       2.286   6.067  19.938  0.00  0.00    +0.000 Cl
ENDBRANCH  11  12
ENDBRANCH  10  11
BRANCH  10  14
ATOM     14  C   UNL     1       3.713   2.567  19.241  0.00  0.00    +0.000 C 
BRANCH  14  15
ATOM     15  C   UNL     1       2.312   2.429  19.855  0.00  0.00    +0.000 C 
ATOM     16 CL   UNL     1       2.327   2.886  21.580  0.00  0.00    +0.000 Cl
ENDBRANCH  14  15
ENDBRANCH  10  14
ENDBRANCH   5  10
TORSDOF 6
ENDMDL
MODEL 6
REMARK VINA RESULT:      -5.3      3.088      4.909
REMARK  Name = 
REMARK  6 active torsions:
REMARK  status: ('A' for Active; 'I' for Inactive)
REMARK    1  A    between atoms: N_1  and  C_2
REMARK    2  A    between atoms: C_6  and  N_7
REMARK    3  A    between atoms: N_7  and  C_8
REMARK    4  A    between atoms: N_7  and  C_11
REMARK    5  A    between atoms: C_8  and  C_9
REMARK    6  A    between atoms: C_11  and  C_12
REMARK                            x       y       z     vdW  Elec       q    Type
REMARK                         _______ _______ _______ _____ _____    ______ ____
ROOT
ATOM      1  C   UNL     1       2.685   3.014  18.112  0.00  0.00    +0.000 A 
ATOM      2  C   UNL     1       2.006   4.136  18.598  0.00  0.00    +0.000 A 
ATOM      3  C   UNL     1       2.489   5.413  18.335  0.00  0.00    +0.000 A 
ATOM      4  C   UNL     1       3.660   5.584  17.598  0.00  0.00    +0.000 A 
ATOM      5  C   UNL     1       4.376   4.470  17.087  0.00  0.00    +0.000 A 
ATOM      6  C   UNL     1       3.854   3.182  17.350  0.00  0.00    +0.000 A 
ENDROOT
BRANCH   1   7
ATOM      7  N   UNL     1       2.193   1.717  18.397  0.00  0.00    +0.000 N 
ATOM      8  H   UNL     1       2.579   1.169  19.182  0.00  0.00    +0.000 HD
ATOM      9  H   UNL     1       1.456   1.292  17.817  0.00  0.00    +0.000 HD
ENDBRANCH   1   7
BRANCH   5  10
ATOM     10  N   UNL     1       5.606   4.656  16.347  0.00  0.00    +0.000 N 
BRANCH  10  11
ATOM     11  C   UNL     1       5.605   4.974  14.915  0.00  0.00    +0.000 C 
BRANCH  11  12
ATOM     12  C   UNL     1       6.376   3.929  14.098  0.00  0.00    +0.000 C 
ATOM     13 CL   UNL     1       5.517   3.549  12.580  0.00  0.00    +0.000 Cl
ENDBRANCH  11  12
ENDBRANCH  10  11
BRANCH  10  14
ATOM     14  C   UNL     1       6.904   4.480  17.006  0.00  0.00    +0.000 C 
BRANCH  14  15
ATOM     15  C   UNL     1       7.337   5.770  17.720  0.00  0.00    +0.000 C 
ATOM     16 CL   UNL     1       7.089   5.633  19.482  0.00  0.00    +0.000 Cl
ENDBRANCH  14  15
ENDBRANCH  10  14
ENDBRANCH   5  10
TORSDOF 6
ENDMDL
MODEL 7
REMARK VINA RESULT:      -5.3      3.152      5.080
REMARK  Name = 
REMARK  6 active torsions:
REMARK  status: ('A' for Active; 'I' for Inactive)
REMARK    1  A    between atoms: N_1  and  C_2
REMARK    2  A    between atoms: C_6  and  N_7
REMARK    3  A    between atoms: N_7  and  C_8
REMARK    4  A    between atoms: N_7  and  C_11
REMARK    5  A    between atoms: C_8  and  C_9
REMARK    6  A    between atoms: C_11  and  C_12
REMARK                            x       y       z     vdW  Elec       q    Type
REMARK                         _______ _______ _______ _____ _____    ______ ____
ROOT
ATOM      1  C   UNL     1       2.426   2.878  18.362  0.00  0.00    +0.000 A 
ATOM      2  C   UNL     1       1.495   3.914  18.238  0.00  0.00    +0.000 A 
ATOM      3  C   UNL     1       1.923   5.212  17.985  0.00  0.00    +0.000 A 
ATOM      4  C   UNL     1       3.283   5.493  17.869  0.00  0.00    +0.000 A 
ATOM      5  C   UNL     1       4.258   4.469  17.987  0.00  0.00    +0.000 A 
ATOM      6  C   UNL     1       3.798   3.153  18.224  0.00  0.00    +0.000 A 
ENDROOT
BRANCH   1   7
ATOM      7  N   UNL     1       1.981   1.561  18.634  0.00  0.00    +0.000 N 
ATOM      8  H   UNL     1       0.983   1.369  18.809  0.00  0.00    +0.000 HD
ATOM      9  H   UNL     1       2.648   0.777  18.680  0.00  0.00    +0.000 HD
ENDBRANCH   1   7
BRANCH   5  10
ATOM     10  N   UNL     1       5.670   4.776  17.894  0.00  0.00    +0.000 N 
BRANCH  10  11
ATOM     11  C   UNL     1       6.458   4.426  16.706  0.00  0.00    +0.000 C 
BRANCH  11  12
ATOM     12  C   UNL     1       5.850   5.011  15.426  0.00  0.00    +0.000 C 
ATOM     13 CL   UNL     1       6.952   4.790  14.040  0.00  0.00    +0.000 Cl
ENDBRANCH  11  12
ENDBRANCH  10  11
BRANCH  10  14
ATOM     14  C   UNL     1       6.371   5.407  19.016  0.00  0.00    +0.000 C 
BRANCH  14  15
ATOM     15  C   UNL     1       7.757   5.910  18.587  0.00  0.00    +0.000 C 
ATOM     16 CL   UNL     1       7.635   7.497  17.780  0.00  0.00    +0.000 Cl
ENDBRANCH  14  15
ENDBRANCH  10  14
ENDBRANCH   5  10
TORSDOF 6
ENDMDL
MODEL 8
REMARK VINA RESULT:      -5.3      1.229      1.346
REMARK  Name = 
REMARK  6 active torsions:
REMARK  status: ('A' for Active; 'I' for Inactive)
REMARK    1  A    between atoms: N_1  and  C_2
REMARK    2  A    between atoms: C_6  and  N_7
REMARK    3  A    between atoms: N_7  and  C_8
REMARK    4  A    between atoms: N_7  and  C_11
REMARK    5  A    between atoms: C_8  and  C_9
REMARK    6  A    between atoms: C_11  and  C_12
REMARK                            x       y       z     vdW  Elec       q    Type
REMARK                         _______ _______ _______ _____ _____    ______ ____
ROOT
ATOM      1  C   UNL     1       7.179   5.718  19.109  0.00  0.00    +0.000 A 
ATOM      2  C   UNL     1       7.441   6.500  17.979  0.00  0.00    +0.000 A 
ATOM      3  C   UNL     1       6.417   6.806  17.088  0.00  0.00    +0.000 A 
ATOM      4  C   UNL     1       5.127   6.325  17.308  0.00  0.00    +0.000 A 
ATOM      5  C   UNL     1       4.823   5.531  18.444  0.00  0.00    +0.000 A 
ATOM      6  C   UNL     1       5.875   5.249  19.346  0.00  0.00    +0.000 A 
ENDROOT
BRANCH   1   7
ATOM      7  N   UNL     1       8.231   5.399  20.001  0.00  0.00    +0.000 N 
ATOM      8  H   UNL     1       8.373   5.948  20.863  0.00  0.00    +0.000 HD
ATOM      9  H   UNL     1       8.881   4.627  19.797  0.00  0.00    +0.000 HD
ENDBRANCH   1   7
BRANCH   5  10
ATOM     10  N   UNL     1       3.486   5.011  18.648  0.00  0.00    +0.000 N 
BRANCH  10  11
ATOM     11  C   UNL     1       2.900   4.013  17.747  0.00  0.00    +0.000 C 
BRANCH  11  12
ATOM     12  C   UNL     1       1.373   3.956  17.876  0.00  0.00    +0.000 C 
ATOM     13 CL   UNL     1       0.862   2.472  18.725  0.00  0.00    +0.000 Cl
ENDBRANCH  11  12
ENDBRANCH  10  11
BRANCH  10  14
ATOM     14  C   UNL     1       2.654   5.512  19.747  0.00  0.00    +0.000 C 
BRANCH  14  15
ATOM     15  C   UNL     1       2.403   7.020  19.603  0.00  0.00    +0.000 C 
ATOM     16 CL   UNL     1       1.387   7.625  20.940  0.00  0.00    +0.000 Cl
ENDBRANCH  14  15
ENDBRANCH  10  14
ENDBRANCH   5  10
TORSDOF 6
ENDMDL
MODEL 9
REMARK VINA RESULT:      -5.3      2.360      2.644
REMARK  Name = 
REMARK  6 active torsions:
REMARK  status: ('A' for Active; 'I' for Inactive)
REMARK    1  A    between atoms: N_1  and  C_2
REMARK    2  A    between atoms: C_6  and  N_7
REMARK    3  A    between atoms: N_7  and  C_8
REMARK    4  A    between atoms: N_7  and  C_11
REMARK    5  A    between atoms: C_8  and  C_9
REMARK    6  A    between atoms: C_11  and  C_12
REMARK                            x       y       z     vdW  Elec       q    Type
REMARK                         _______ _______ _______ _____ _____    ______ ____
ROOT
ATOM      1  C   UNL     1       7.795   5.778  19.042  0.00  0.00    +0.000 A 
ATOM      2  C   UNL     1       8.057   7.073  18.583  0.00  0.00    +0.000 A 
ATOM      3  C   UNL     1       7.372   7.576  17.482  0.00  0.00    +0.000 A 
ATOM      4  C   UNL     1       6.431   6.788  16.820  0.00  0.00    +0.000 A 
ATOM      5  C   UNL     1       6.138   5.471  17.257  0.00  0.00    +0.000 A 
ATOM      6  C   UNL     1       6.832   4.988  18.391  0.00  0.00    +0.000 A 
ENDROOT
BRANCH   1   7
ATOM      7  N   UNL     1       8.509   5.269  20.155  0.00  0.00    +0.000 N 
ATOM      8  H   UNL     1       9.038   5.902  20.774  0.00  0.00    +0.000 HD
ATOM      9  H   UNL     1       8.525   4.259  20.355  0.00  0.00    +0.000 HD
ENDBRANCH   1   7
BRANCH   5  10
ATOM     10  N   UNL     1       5.180   4.650  16.546  0.00  0.00    +0.000 N 
BRANCH  10  11
ATOM     11  C   UNL     1       5.126   4.623  15.080  0.00  0.00    +0.000 C 
BRANCH  11  12
ATOM     12  C   UNL     1       6.418   4.062  14.472  0.00  0.00    +0.000 C 
ATOM     13 CL   UNL     1       6.150   3.532  12.789  0.00  0.00    +0.000 Cl
ENDBRANCH  11  12
ENDBRANCH  10  11
BRANCH  10  14
ATOM     14  C   UNL     1       4.194   3.852  17.280  0.00  0.00    +0.000 C 
BRANCH  14  15
ATOM     15  C   UNL     1       3.102   4.748  17.885  0.00  0.00    +0.000 C 
ATOM     16 CL   UNL     1       3.363   4.972  19.636  0.00  0.00    +0.000 Cl
ENDBRANCH  14  15
ENDBRANCH  10  14
ENDBRANCH   5  10
TORSDOF 6
ENDMDL
