MODEL 1
REMARK VINA RESULT:      -7.8      0.000      0.000
REMARK  Name = 
REMARK  6 active torsions:
REMARK  status: ('A' for Active; 'I' for Inactive)
REMARK    1  A    between atoms: C_1  and  C_2
REMARK    2  A    between atoms: C_5  and  C_6
REMARK    3  A    between atoms: C_7  and  N_8
REMARK    4  A    between atoms: N_11  and  C_12
REMARK    5  A    between atoms: C_12  and  C_13
REMARK    6  A    between atoms: C_13  and  N_14
REMARK                            x       y       z     vdW  Elec       q    Type
REMARK                         _______ _______ _______ _____ _____    ______ ____
ROOT
ATOM      1  N   UNL     1      -0.418  11.237  20.172  0.00  0.00    +0.000 N 
ATOM      2  C   UNL     1      -1.040  10.138  19.415  0.00  0.00    +0.000 C 
ATOM      3  C   UNL     1      -0.481  10.086  17.982  0.00  0.00    +0.000 C 
ATOM      4  N   UNL     1       0.997  10.013  17.899  0.00  0.00    +0.000 NA
ATOM      5  C   UNL     1       1.537  11.178  18.657  0.00  0.00    +0.000 C 
ATOM      6  C   UNL     1       1.047  11.309  20.124  0.00  0.00    +0.000 C 
ENDROOT
BRANCH   1  13
ATOM      7  C   UNL     1      -3.209  15.148  21.102  0.00  0.00    +0.000 C 
ATOM      8  C   UNL     1      -2.572  13.881  21.590  0.00  0.00    +0.000 A 
ATOM      9  C   UNL     1      -2.865  13.367  22.848  0.00  0.00    +0.000 A 
ATOM     10  C   UNL     1      -2.281  12.173  23.267  0.00  0.00    +0.000 A 
ATOM     11  C   UNL     1      -1.403  11.458  22.433  0.00  0.00    +0.000 A 
ATOM     12  C   UNL     1      -0.775  10.215  23.017  0.00  0.00    +0.000 C 
ATOM     13  C   UNL     1      -1.128  11.936  21.132  0.00  0.00    +0.000 A 
ATOM     14  C   UNL     1      -1.707  13.171  20.756  0.00  0.00    +0.000 A 
ENDBRANCH   1  13
BRANCH   4  15
ATOM     15  C   UNL     1       1.480   8.753  18.483  0.00  0.00    +0.000 C 
BRANCH  15  16
ATOM     16  C   UNL     1       2.900   8.325  18.030  0.00  0.00    +0.000 C 
BRANCH  16  17
ATOM     17  N   UNL     1       2.997   6.880  18.078  0.00  0.00    +0.000 N 
ATOM     18  C   UNL     1       2.516   6.230  19.197  0.00  0.00    +0.000 C 
ATOM     19  O   UNL     1       2.359   6.733  20.295  0.00  0.00    +0.000 OA
ATOM     20  C   UNL     1       2.128   4.806  18.885  0.00  0.00    +0.000 C 
ATOM     21  C   UNL     1       3.270   4.039  18.202  0.00  0.00    +0.000 C 
ATOM     22  C   UNL     1       2.724   2.708  17.633  0.00  0.00    +0.000 C 
ATOM     23  C   UNL     1       3.519   1.600  18.307  0.00  0.00    +0.000 C 
ATOM     24  C   UNL     1       3.969   2.207  19.623  0.00  0.00    +0.000 C 
ATOM     25  C   UNL     1       4.343   3.630  19.235  0.00  0.00    +0.000 C 
ATOM     26  C   UNL     1       3.875   4.877  17.073  0.00  0.00    +0.000 C 
ATOM     27  C   UNL     1       4.103   6.308  17.474  0.00  0.00    +0.000 C 
ATOM     28  O   UNL     1       5.133   6.907  17.184  0.00  0.00    +0.000 OA
ENDBRANCH  16  17
ENDBRANCH  15  16
ENDBRANCH   4  15
TORSDOF 4
ENDMDL
MODEL 2
REMARK VINA RESULT:      -7.5      2.521      9.451
REMARK  Name = 
REMARK  6 active torsions:
REMARK  status: ('A' for Active; 'I' for Inactive)
REMARK    1  A    between atoms: C_1  and  C_2
REMARK    2  A    between atoms: C_5  and  C_6
REMARK    3  A    between atoms: C_7  and  N_8
REMARK    4  A    between atoms: N_11  and  C_12
REMARK    5  A    between atoms: C_12  and  C_13
REMARK    6  A    between atoms: C_13  and  N_14
REMARK                            x       y       z     vdW  Elec       q    Type
REMARK                         _______ _______ _______ _____ _____    ______ ____
ROOT
ATOM      1  N   UNL     1       4.565   4.671  17.274  0.00  0.00    +0.000 N 
ATOM      2  C   UNL     1       3.181   4.196  17.115  0.00  0.00    +0.000 C 
ATOM      3  C   UNL     1       2.655   3.612  18.438  0.00  0.00    +0.000 C 
ATOM      4  N   UNL     1       2.769   4.523  19.602  0.00  0.00    +0.000 NA
ATOM      5  C   UNL     1       4.202   4.922  19.709  0.00  0.00    +0.000 C 
ATOM      6  C   UNL     1       4.822   5.540  18.429  0.00  0.00    +0.000 C 
ENDROOT
BRANCH   1  13
ATOM      7  C   UNL     1       5.240   3.545  12.560  0.00  0.00    +0.000 C 
ATOM      8  C   UNL     1       5.803   4.070  13.847  0.00  0.00    +0.000 A 
ATOM      9  C   UNL     1       7.076   4.623  13.902  0.00  0.00    +0.000 A 
ATOM     10  C   UNL     1       7.566   5.128  15.105  0.00  0.00    +0.000 A 
ATOM     11  C   UNL     1       6.789   5.106  16.276  0.00  0.00    +0.000 A 
ATOM     12  C   UNL     1       7.447   5.616  17.536  0.00  0.00    +0.000 C 
ATOM     13  C   UNL     1       5.473   4.592  16.234  0.00  0.00    +0.000 A 
ATOM     14  C   UNL     1       5.025   4.052  15.006  0.00  0.00    +0.000 A 
ENDBRANCH   1  13
BRANCH   4  15
ATOM     15  C   UNL     1       1.920   5.709  19.408  0.00  0.00    +0.000 C 
BRANCH  15  16
ATOM     16  C   UNL     1       2.310   6.938  20.269  0.00  0.00    +0.000 C 
BRANCH  16  17
ATOM     17  N   UNL     1       1.516   8.077  19.854  0.00  0.00    +0.000 N 
ATOM     18  C   UNL     1       1.840   8.701  18.666  0.00  0.00    +0.000 C 
ATOM     19  O   UNL     1       2.924   8.649  18.112  0.00  0.00    +0.000 OA
ATOM     20  C   UNL     1       0.652   9.418  18.076  0.00  0.00    +0.000 C 
ATOM     21  C   UNL     1       0.001  10.375  19.086  0.00  0.00    +0.000 C 
ATOM     22  C   UNL     1      -1.370  10.839  18.541  0.00  0.00    +0.000 C 
ATOM     23  C   UNL     1      -1.295  12.354  18.438  0.00  0.00    +0.000 C 
ATOM     24  C   UNL     1       0.184  12.648  18.271  0.00  0.00    +0.000 C 
ATOM     25  C   UNL     1       0.839  11.665  19.230  0.00  0.00    +0.000 C 
ATOM     26  C   UNL     1      -0.185   9.678  20.436  0.00  0.00    +0.000 C 
ATOM     27  C   UNL     1       1.031   8.899  20.856  0.00  0.00    +0.000 C 
ATOM     28  O   UNL     1       1.456   8.929  22.006  0.00  0.00    +0.000 OA
ENDBRANCH  16  17
ENDBRANCH  15  16
ENDBRANCH   4  15
TORSDOF 4
ENDMDL
MODEL 3
REMARK VINA RESULT:      -7.4      2.638      9.521
REMARK  Name = 
REMARK  6 active torsions:
REMARK  status: ('A' for Active; 'I' for Inactive)
REMARK    1  A    between atoms: C_1  and  C_2
REMARK    2  A    between atoms: C_5  and  C_6
REMARK    3  A    between atoms: C_7  and  N_8
REMARK    4  A    between atoms: N_11  and  C_12
REMARK    5  A    between atoms: C_12  and  C_13
REMARK    6  A    between atoms: C_13  and  N_14
REMARK                            x       y       z     vdW  Elec       q    Type
REMARK                         _______ _______ _______ _____ _____    ______ ____
ROOT
ATOM      1  N   UNL     1       1.803   8.194  19.046  0.00  0.00    +0.000 N 
ATOM      2  C   UNL     1       1.526   9.255  18.064  0.00  0.00    +0.000 C 
ATOM      3  C   UNL     1       0.115   9.832  18.279  0.00  0.00    +0.000 C 
ATOM      4  N   UNL     1      -0.154  10.307  19.657  0.00  0.00    +0.000 NA
ATOM      5  C   UNL     1       0.117   9.163  20.576  0.00  0.00    +0.000 C 
ATOM      6  C   UNL     1       1.524   8.521  20.449  0.00  0.00    +0.000 C 
ENDROOT
BRANCH   1  13
ATOM      7  C   UNL     1       5.466   6.529  16.260  0.00  0.00    +0.000 C 
ATOM      8  C   UNL     1       4.465   6.277  17.348  0.00  0.00    +0.000 A 
ATOM      9  C   UNL     1       4.494   5.106  18.094  0.00  0.00    +0.000 A 
ATOM     10  C   UNL     1       3.570   4.908  19.119  0.00  0.00    +0.000 A 
ATOM     11  C   UNL     1       2.607   5.884  19.431  0.00  0.00    +0.000 A 
ATOM     12  C   UNL     1       1.613   5.534  20.513  0.00  0.00    +0.000 C 
ATOM     13  C   UNL     1       2.589   7.104  18.718  0.00  0.00    +0.000 A 
ATOM     14  C   UNL     1       3.516   7.253  17.660  0.00  0.00    +0.000 A 
ENDBRANCH   1  13
BRANCH   4  15
ATOM     15  C   UNL     1       0.719  11.445  19.986  0.00  0.00    +0.000 C 
BRANCH  15  16
ATOM     16  C   UNL     1       0.852  11.748  21.500  0.00  0.00    +0.000 C 
BRANCH  16  17
ATOM     17  N   UNL     1      -0.321  12.475  21.942  0.00  0.00    +0.000 N 
ATOM     18  C   UNL     1      -0.210  13.837  22.137  0.00  0.00    +0.000 C 
ATOM     19  O   UNL     1       0.828  14.442  22.340  0.00  0.00    +0.000 OA
ATOM     20  C   UNL     1      -1.546  14.526  21.999  0.00  0.00    +0.000 C 
ATOM     21  C   UNL     1      -2.614  13.886  22.897  0.00  0.00    +0.000 C 
ATOM     22  C   UNL     1      -4.009  14.419  22.491  0.00  0.00    +0.000 C 
ATOM     23  C   UNL     1      -4.584  15.090  23.729  0.00  0.00    +0.000 C 
ATOM     24  C   UNL     1      -3.366  15.509  24.530  0.00  0.00    +0.000 C 
ATOM     25  C   UNL     1      -2.423  14.326  24.366  0.00  0.00    +0.000 C 
ATOM     26  C   UNL     1      -2.581  12.362  22.763  0.00  0.00    +0.000 C 
ATOM     27  C   UNL     1      -1.182  11.810  22.797  0.00  0.00    +0.000 C 
ATOM     28  O   UNL     1      -0.897  10.806  23.441  0.00  0.00    +0.000 OA
ENDBRANCH  16  17
ENDBRANCH  15  16
ENDBRANCH   4  15
TORSDOF 4
ENDMDL
MODEL 4
REMARK VINA RESULT:      -7.4      4.590      8.538
REMARK  Name = 
REMARK  6 active torsions:
REMARK  status: ('A' for Active; 'I' for Inactive)
REMARK    1  A    between atoms: C_1  and  C_2
REMARK    2  A    between atoms: C_5  and  C_6
REMARK    3  A    between atoms: C_7  and  N_8
REMARK    4  A    between atoms: N_11  and  C_12
REMARK    5  A    between atoms: C_12  and  C_13
REMARK    6  A    between atoms: C_13  and  N_14
REMARK                            x       y       z     vdW  Elec       q    Type
REMARK                         _______ _______ _______ _____ _____    ______ ____
ROOT
ATOM      1  N   UNL     1       0.270  11.096  19.869  0.00  0.00    +0.000 N 
ATOM      2  C   UNL     1      -0.718  11.508  18.860  0.00  0.00    +0.000 C 
ATOM      3  C   UNL     1      -1.666  12.574  19.438  0.00  0.00    +0.000 C 
ATOM      4  N   UNL     1      -0.985  13.755  20.020  0.00  0.00    +0.000 NA
ATOM      5  C   UNL     1      -0.035  13.248  21.053  0.00  0.00    +0.000 C 
ATOM      6  C   UNL     1       0.978  12.179  20.563  0.00  0.00    +0.000 C 
ENDROOT
BRANCH   1  13
ATOM      7  C   UNL     1       3.029   7.710  17.662  0.00  0.00    +0.000 C 
ATOM      8  C   UNL     1       2.175   8.107  18.829  0.00  0.00    +0.000 A 
ATOM      9  C   UNL     1       2.065   7.294  19.950  0.00  0.00    +0.000 A 
ATOM     10  C   UNL     1       1.287   7.699  21.033  0.00  0.00    +0.000 A 
ATOM     11  C   UNL     1       0.613   8.933  21.025  0.00  0.00    +0.000 A 
ATOM     12  C   UNL     1      -0.257   9.238  22.222  0.00  0.00    +0.000 C 
ATOM     13  C   UNL     1       0.747   9.799  19.916  0.00  0.00    +0.000 A 
ATOM     14  C   UNL     1       1.513   9.337  18.820  0.00  0.00    +0.000 A 
ENDBRANCH   1  13
BRANCH   4  15
ATOM     15  C   UNL     1      -0.260  14.494  18.976  0.00  0.00    +0.000 C 
BRANCH  15  16
ATOM     16  C   UNL     1       0.487  15.759  19.471  0.00  0.00    +0.000 C 
BRANCH  16  17
ATOM     17  N   UNL     1       1.892  15.640  19.137  0.00  0.00    +0.000 N 
ATOM     18  C   UNL     1       2.792  15.441  20.164  0.00  0.00    +0.000 C 
ATOM     19  O   UNL     1       2.603  15.719  21.336  0.00  0.00    +0.000 OA
ATOM     20  C   UNL     1       4.046  14.758  19.677  0.00  0.00    +0.000 C 
ATOM     21  C   UNL     1       4.669  15.492  18.481  0.00  0.00    +0.000 C 
ATOM     22  C   UNL     1       5.752  14.594  17.837  0.00  0.00    +0.000 C 
ATOM     23  C   UNL     1       7.053  15.378  17.911  0.00  0.00    +0.000 C 
ATOM     24  C   UNL     1       6.864  16.308  19.095  0.00  0.00    +0.000 C 
ATOM     25  C   UNL     1       5.418  16.758  18.951  0.00  0.00    +0.000 C 
ATOM     26  C   UNL     1       3.594  15.833  17.446  0.00  0.00    +0.000 C 
ATOM     27  C   UNL     1       2.348  16.396  18.072  0.00  0.00    +0.000 C 
ATOM     28  O   UNL     1       1.762  17.362  17.595  0.00  0.00    +0.000 OA
ENDBRANCH  16  17
ENDBRANCH  15  16
ENDBRANCH   4  15
TORSDOF 4
ENDMDL
MODEL 5
REMARK VINA RESULT:      -7.3      3.390      9.554
REMARK  Name = 
REMARK  6 active torsions:
REMARK  status: ('A' for Active; 'I' for Inactive)
REMARK    1  A    between atoms: C_1  and  C_2
REMARK    2  A    between atoms: C_5  and  C_6
REMARK    3  A    between atoms: C_7  and  N_8
REMARK    4  A    between atoms: N_11  and  C_12
REMARK    5  A    between atoms: C_12  and  C_13
REMARK    6  A    between atoms: C_13  and  N_14
REMARK                            x       y       z     vdW  Elec       q    Type
REMARK                         _______ _______ _______ _____ _____    ______ ____
ROOT
ATOM      1  N   UNL     1       1.679   8.062  19.655  0.00  0.00    +0.000 N 
ATOM      2  C   UNL     1       1.048   8.529  20.900  0.00  0.00    +0.000 C 
ATOM      3  C   UNL     1       1.150  10.060  21.015  0.00  0.00    +0.000 C 
ATOM      4  N   UNL     1       0.621  10.803  19.847  0.00  0.00    +0.000 NA
ATOM      5  C   UNL     1       1.339  10.294  18.642  0.00  0.00    +0.000 C 
ATOM      6  C   UNL     1       1.279   8.758  18.426  0.00  0.00    +0.000 C 
ENDROOT
BRANCH   1  13
ATOM      7  C   UNL     1       1.965   3.529  21.476  0.00  0.00    +0.000 C 
ATOM      8  C   UNL     1       2.442   4.544  20.481  0.00  0.00    +0.000 A 
ATOM      9  C   UNL     1       3.313   4.193  19.457  0.00  0.00    +0.000 A 
ATOM     10  C   UNL     1       3.720   5.149  18.528  0.00  0.00    +0.000 A 
ATOM     11  C   UNL     1       3.253   6.474  18.592  0.00  0.00    +0.000 A 
ATOM     12  C   UNL     1       3.814   7.440  17.576  0.00  0.00    +0.000 C 
ATOM     13  C   UNL     1       2.329   6.843  19.595  0.00  0.00    +0.000 A 
ATOM     14  C   UNL     1       1.970   5.856  20.544  0.00  0.00    +0.000 A 
ENDBRANCH   1  13
BRANCH   4  15
ATOM     15  C   UNL     1      -0.827  10.581  19.712  0.00  0.00    +0.000 C 
BRANCH  15  16
ATOM     16  C   UNL     1      -1.532  11.490  18.673  0.00  0.00    +0.000 C 
BRANCH  16  17
ATOM     17  N   UNL     1      -2.878  11.774  19.129  0.00  0.00    +0.000 N 
ATOM     18  C   UNL     1      -3.916  11.627  18.231  0.00  0.00    +0.000 C 
ATOM     19  O   UNL     1      -3.811  11.647  17.017  0.00  0.00    +0.000 OA
ATOM     20  C   UNL     1      -5.224  11.362  18.936  0.00  0.00    +0.000 C 
ATOM     21  C   UNL     1      -5.518  12.418  20.011  0.00  0.00    +0.000 C 
ATOM     22  C   UNL     1      -6.691  11.933  20.897  0.00  0.00    +0.000 C 
ATOM     23  C   UNL     1      -7.781  12.985  20.771  0.00  0.00    +0.000 C 
ATOM     24  C   UNL     1      -7.532  13.626  19.418  0.00  0.00    +0.000 C 
ATOM     25  C   UNL     1      -6.015  13.730  19.362  0.00  0.00    +0.000 C 
ATOM     26  C   UNL     1      -4.279  12.659  20.875  0.00  0.00    +0.000 C 
ATOM     27  C   UNL     1      -3.022  12.788  20.059  0.00  0.00    +0.000 C 
ATOM     28  O   UNL     1      -2.181  13.650  20.294  0.00  0.00    +0.000 OA
ENDBRANCH  16  17
ENDBRANCH  15  16
ENDBRANCH   4  15
TORSDOF 4
ENDMDL
MODEL 6
REMARK VINA RESULT:      -7.3      3.426      9.077
REMARK  Name = 
REMARK  6 active torsions:
REMARK  status: ('A' for Active; 'I' for Inactive)
REMARK    1  A    between atoms: C_1  and  C_2
REMARK    2  A    between atoms: C_5  and  C_6
REMARK    3  A    between atoms: C_7  and  N_8
REMARK    4  A    between atoms: N_11  and  C_12
REMARK    5  A    between atoms: C_12  and  C_13
REMARK    6  A    between atoms: C_13  and  N_14
REMARK                            x       y       z     vdW  Elec       q    Type
REMARK                         _______ _______ _______ _____ _____    ______ ____
ROOT
ATOM      1  N   UNL     1       1.748   7.816  19.590  0.00  0.00    +0.000 N 
ATOM      2  C   UNL     1       1.521   9.100  18.910  0.00  0.00    +0.000 C 
ATOM      3  C   UNL     1       0.143   9.673  19.285  0.00  0.00    +0.000 C 
ATOM      4  N   UNL     1      -0.097   9.799  20.742  0.00  0.00    +0.000 NA
ATOM      5  C   UNL     1       0.118   8.449  21.340  0.00  0.00    +0.000 C 
ATOM      6  C   UNL     1       1.490   7.793  21.035  0.00  0.00    +0.000 C 
ENDROOT
BRANCH   1  13
ATOM      7  C   UNL     1       5.159   6.712  16.258  0.00  0.00    +0.000 C 
ATOM      8  C   UNL     1       4.229   6.255  17.342  0.00  0.00    +0.000 A 
ATOM      9  C   UNL     1       4.273   4.953  17.826  0.00  0.00    +0.000 A 
ATOM     10  C   UNL     1       3.417   4.560  18.853  0.00  0.00    +0.000 A 
ATOM     11  C   UNL     1       2.507   5.464  19.430  0.00  0.00    +0.000 A 
ATOM     12  C   UNL     1       1.581   4.911  20.486  0.00  0.00    +0.000 C 
ATOM     13  C   UNL     1       2.477   6.806  18.988  0.00  0.00    +0.000 A 
ATOM     14  C   UNL     1       3.332   7.158  17.917  0.00  0.00    +0.000 A 
ENDBRANCH   1  13
BRANCH   4  15
ATOM     15  C   UNL     1       0.832  10.775  21.331  0.00  0.00    +0.000 C 
BRANCH  15  16
ATOM     16  C   UNL     1       0.237  12.187  21.561  0.00  0.00    +0.000 C 
BRANCH  16  17
ATOM     17  N   UNL     1       0.872  13.122  20.654  0.00  0.00    +0.000 N 
ATOM     18  C   UNL     1       1.560  14.190  21.194  0.00  0.00    +0.000 C 
ATOM     19  O   UNL     1       1.393  14.649  22.310  0.00  0.00    +0.000 OA
ATOM     20  C   UNL     1       2.621  14.699  20.249  0.00  0.00    +0.000 C 
ATOM     21  C   UNL     1       2.048  15.007  18.858  0.00  0.00    +0.000 C 
ATOM     22  C   UNL     1       3.212  15.222  17.862  0.00  0.00    +0.000 C 
ATOM     23  C   UNL     1       3.045  16.630  17.311  0.00  0.00    +0.000 C 
ATOM     24  C   UNL     1       2.291  17.373  18.398  0.00  0.00    +0.000 C 
ATOM     25  C   UNL     1       1.275  16.345  18.874  0.00  0.00    +0.000 C 
ATOM     26  C   UNL     1       1.160  13.857  18.380  0.00  0.00    +0.000 C 
ATOM     27  C   UNL     1       0.229  13.361  19.452  0.00  0.00    +0.000 C 
ATOM     28  O   UNL     1      -0.948  13.103  19.222  0.00  0.00    +0.000 OA
ENDBRANCH  16  17
ENDBRANCH  15  16
ENDBRANCH   4  15
TORSDOF 4
ENDMDL
MODEL 7
REMARK VINA RESULT:      -7.3      3.280      9.340
REMARK  Name = 
REMARK  6 active torsions:
REMARK  status: ('A' for Active; 'I' for Inactive)
REMARK    1  A    between atoms: C_1  and  C_2
REMARK    2  A    between atoms: C_5  and  C_6
REMARK    3  A    between atoms: C_7  and  N_8
REMARK    4  A    between atoms: N_11  and  C_12
REMARK    5  A    between atoms: C_12  and  C_13
REMARK    6  A    between atoms: C_13  and  N_14
REMARK                            x       y       z     vdW  Elec       q    Type
REMARK                         _______ _______ _______ _____ _____    ______ ____
ROOT
ATOM      1  N   UNL     1       2.091   7.227  18.740  0.00  0.00    +0.000 N 
ATOM      2  C   UNL     1       1.498   7.391  20.076  0.00  0.00    +0.000 C 
ATOM      3  C   UNL     1       1.685   8.834  20.576  0.00  0.00    +0.000 C 
ATOM      4  N   UNL     1       1.187   9.878  19.648  0.00  0.00    +0.000 NA
ATOM      5  C   UNL     1       1.865   9.658  18.337  0.00  0.00    +0.000 C 
ATOM      6  C   UNL     1       1.720   8.234  17.738  0.00  0.00    +0.000 C 
ENDROOT
BRANCH   1  13
ATOM      7  C   UNL     1       1.540   2.376  18.405  0.00  0.00    +0.000 C 
ATOM      8  C   UNL     1       2.376   3.593  18.144  0.00  0.00    +0.000 A 
ATOM      9  C   UNL     1       3.537   3.518  17.385  0.00  0.00    +0.000 A 
ATOM     10  C   UNL     1       4.282   4.669  17.134  0.00  0.00    +0.000 A 
ATOM     11  C   UNL     1       3.875   5.923  17.623  0.00  0.00    +0.000 A 
ATOM     12  C   UNL     1       4.795   7.089  17.349  0.00  0.00    +0.000 C 
ATOM     13  C   UNL     1       2.672   6.032  18.356  0.00  0.00    +0.000 A 
ATOM     14  C   UNL     1       1.963   4.837  18.625  0.00  0.00    +0.000 A 
ENDBRANCH   1  13
BRANCH   4  15
ATOM     15  C   UNL     1      -0.272   9.772  19.494  0.00  0.00    +0.000 C 
BRANCH  15  16
ATOM     16  C   UNL     1      -0.826  10.302  18.146  0.00  0.00    +0.000 C 
BRANCH  16  17
ATOM     17  N   UNL     1      -2.211  10.691  18.324  0.00  0.00    +0.000 N 
ATOM     18  C   UNL     1      -3.148  10.183  17.448  0.00  0.00    +0.000 C 
ATOM     19  O   UNL     1      -2.915   9.750  16.333  0.00  0.00    +0.000 OA
ATOM     20  C   UNL     1      -4.525  10.157  18.065  0.00  0.00    +0.000 C 
ATOM     21  C   UNL     1      -4.925  11.529  18.628  0.00  0.00    +0.000 C 
ATOM     22  C   UNL     1      -6.188  11.372  19.508  0.00  0.00    +0.000 C 
ATOM     23  C   UNL     1      -7.252  12.262  18.886  0.00  0.00    +0.000 C 
ATOM     24  C   UNL     1      -6.856  12.358  17.425  0.00  0.00    +0.000 C 
ATOM     25  C   UNL     1      -5.341  12.484  17.487  0.00  0.00    +0.000 C 
ATOM     26  C   UNL     1      -3.782  12.118  19.458  0.00  0.00    +0.000 C 
ATOM     27  C   UNL     1      -2.445  11.974  18.784  0.00  0.00    +0.000 C 
ATOM     28  O   UNL     1      -1.629  12.889  18.761  0.00  0.00    +0.000 OA
ENDBRANCH  16  17
ENDBRANCH  15  16
ENDBRANCH   4  15
TORSDOF 4
ENDMDL
MODEL 8
REMARK VINA RESULT:      -7.3      2.424      3.999
REMARK  Name = 
REMARK  6 active torsions:
REMARK  status: ('A' for Active; 'I' for Inactive)
REMARK    1  A    between atoms: C_1  and  C_2
REMARK    2  A    between atoms: C_5  and  C_6
REMARK    3  A    between atoms: C_7  and  N_8
REMARK    4  A    between atoms: N_11  and  C_12
REMARK    5  A    between atoms: C_12  and  C_13
REMARK    6  A    between atoms: C_13  and  N_14
REMARK                            x       y       z     vdW  Elec       q    Type
REMARK                         _______ _______ _______ _____ _____    ______ ____
ROOT
ATOM      1  N   UNL     1       0.965  12.186  19.654  0.00  0.00    +0.000 N 
ATOM      2  C   UNL     1       1.139  11.659  21.017  0.00  0.00    +0.000 C 
ATOM      3  C   UNL     1       0.209  10.456  21.253  0.00  0.00    +0.000 C 
ATOM      4  N   UNL     1       0.334   9.373  20.248  0.00  0.00    +0.000 NA
ATOM      5  C   UNL     1       0.107   9.988  18.909  0.00  0.00    +0.000 C 
ATOM      6  C   UNL     1       1.013  11.201  18.567  0.00  0.00    +0.000 C 
ENDROOT
BRANCH   1  13
ATOM      7  C   UNL     1       3.804  15.689  17.752  0.00  0.00    +0.000 C 
ATOM      8  C   UNL     1       2.504  15.296  18.387  0.00  0.00    +0.000 A 
ATOM      9  C   UNL     1       1.453  16.198  18.491  0.00  0.00    +0.000 A 
ATOM     10  C   UNL     1       0.245  15.799  19.061  0.00  0.00    +0.000 A 
ATOM     11  C   UNL     1       0.056  14.486  19.526  0.00  0.00    +0.000 A 
ATOM     12  C   UNL     1      -1.268  14.185  20.188  0.00  0.00    +0.000 C 
ATOM     13  C   UNL     1       1.094  13.538  19.388  0.00  0.00    +0.000 A 
ATOM     14  C   UNL     1       2.319  13.988  18.841  0.00  0.00    +0.000 A 
ENDBRANCH   1  13
BRANCH   4  15
ATOM     15  C   UNL     1       1.674   8.767  20.314  0.00  0.00    +0.000 C 
BRANCH  15  16
ATOM     16  C   UNL     1       1.690   7.217  20.294  0.00  0.00    +0.000 C 
BRANCH  16  17
ATOM     17  N   UNL     1       2.793   6.767  19.468  0.00  0.00    +0.000 N 
ATOM     18  C   UNL     1       2.793   7.116  18.132  0.00  0.00    +0.000 C 
ATOM     19  O   UNL     1       1.812   7.436  17.484  0.00  0.00    +0.000 OA
ATOM     20  C   UNL     1       4.190   7.125  17.563  0.00  0.00    +0.000 C 
ATOM     21  C   UNL     1       4.924   5.802  17.827  0.00  0.00    +0.000 C 
ATOM     22  C   UNL     1       6.427   5.978  17.505  0.00  0.00    +0.000 C 
ATOM     23  C   UNL     1       6.751   4.961  16.422  0.00  0.00    +0.000 C 
ATOM     24  C   UNL     1       5.428   4.729  15.716  0.00  0.00    +0.000 C 
ATOM     25  C   UNL     1       4.427   4.703  16.862  0.00  0.00    +0.000 C 
ATOM     26  C   UNL     1       4.752   5.380  19.288  0.00  0.00    +0.000 C 
ATOM     27  C   UNL     1       3.335   5.530  19.770  0.00  0.00    +0.000 C 
ATOM     28  O   UNL     1       2.787   4.670  20.451  0.00  0.00    +0.000 OA
ENDBRANCH  16  17
ENDBRANCH  15  16
ENDBRANCH   4  15
TORSDOF 4
ENDMDL
MODEL 9
REMARK VINA RESULT:      -7.2      3.238      9.319
REMARK  Name = 
REMARK  6 active torsions:
REMARK  status: ('A' for Active; 'I' for Inactive)
REMARK    1  A    between atoms: C_1  and  C_2
REMARK    2  A    between atoms: C_5  and  C_6
REMARK    3  A    between atoms: C_7  and  N_8
REMARK    4  A    between atoms: N_11  and  C_12
REMARK    5  A    between atoms: C_12  and  C_13
REMARK    6  A    between atoms: C_13  and  N_14
REMARK                            x       y       z     vdW  Elec       q    Type
REMARK                         _______ _______ _______ _____ _____    ______ ____
ROOT
ATOM      1  N   UNL     1       2.582   7.320  18.567  0.00  0.00    +0.000 N 
ATOM      2  C   UNL     1       2.377   8.645  17.962  0.00  0.00    +0.000 C 
ATOM      3  C   UNL     1       0.978   9.185  18.308  0.00  0.00    +0.000 C 
ATOM      4  N   UNL     1       0.670   9.214  19.758  0.00  0.00    +0.000 NA
ATOM      5  C   UNL     1       0.868   7.830  20.277  0.00  0.00    +0.000 C 
ATOM      6  C   UNL     1       2.258   7.201  19.994  0.00  0.00    +0.000 C 
ENDROOT
BRANCH   1  13
ATOM      7  C   UNL     1       7.010   6.140  16.848  0.00  0.00    +0.000 C 
ATOM      8  C   UNL     1       5.588   5.742  17.111  0.00  0.00    +0.000 A 
ATOM      9  C   UNL     1       5.161   4.434  16.921  0.00  0.00    +0.000 A 
ATOM     10  C   UNL     1       3.841   4.084  17.199  0.00  0.00    +0.000 A 
ATOM     11  C   UNL     1       2.922   5.030  17.688  0.00  0.00    +0.000 A 
ATOM     12  C   UNL     1       1.502   4.556  17.888  0.00  0.00    +0.000 C 
ATOM     13  C   UNL     1       3.346   6.355  17.935  0.00  0.00    +0.000 A 
ATOM     14  C   UNL     1       4.682   6.683  17.604  0.00  0.00    +0.000 A 
ENDBRANCH   1  13
BRANCH   4  15
ATOM     15  C   UNL     1       1.564  10.155  20.452  0.00  0.00    +0.000 C 
BRANCH  15  16
ATOM     16  C   UNL     1       0.886  11.462  20.937  0.00  0.00    +0.000 C 
BRANCH  16  17
ATOM     17  N   UNL     1       1.400  12.575  20.164  0.00  0.00    +0.000 N 
ATOM     18  C   UNL     1       1.853  13.688  20.845  0.00  0.00    +0.000 C 
ATOM     19  O   UNL     1       1.540  14.000  21.980  0.00  0.00    +0.000 OA
ATOM     20  C   UNL     1       2.863  14.460  20.031  0.00  0.00    +0.000 C 
ATOM     21  C   UNL     1       2.330  14.800  18.632  0.00  0.00    +0.000 C 
ATOM     22  C   UNL     1       3.496  15.307  17.750  0.00  0.00    +0.000 C 
ATOM     23  C   UNL     1       3.116  16.712  17.310  0.00  0.00    +0.000 C 
ATOM     24  C   UNL     1       2.177  17.205  18.395  0.00  0.00    +0.000 C 
ATOM     25  C   UNL     1       1.332  15.978  18.702  0.00  0.00    +0.000 C 
ATOM     26  C   UNL     1       1.691  13.566  17.990  0.00  0.00    +0.000 C 
ATOM     27  C   UNL     1       0.799  12.817  18.942  0.00  0.00    +0.000 C 
ATOM     28  O   UNL     1      -0.297  12.385  18.600  0.00  0.00    +0.000 OA
ENDBRANCH  16  17
ENDBRANCH  15  16
ENDBRANCH   4  15
TORSDOF 4
ENDMDL
