MODEL 1
REMARK VINA RESULT:      -7.8      0.000      0.000
REMARK  Name = 
REMARK  7 active torsions:
REMARK  status: ('A' for Active; 'I' for Inactive)
REMARK    1  A    between atoms: C_1  and  N_2
REMARK    2  A    between atoms: C_6  and  C_7
REMARK    3  A    between atoms: C_7  and  O_8
REMARK    4  A    between atoms: O_8  and  C_9
REMARK    5  A    between atoms: C_12  and  C_13
REMARK    6  A    between atoms: C_13  and  N_14
REMARK    7  A    between atoms: C_17  and  C_18
REMARK                            x       y       z     vdW  Elec       q    Type
REMARK                         _______ _______ _______ _____ _____    ______ ____
ROOT
ATOM      1  C   UNL     1       5.130   6.774  17.406  0.00  0.00    +0.000 A 
ATOM      2  C   UNL     1       5.272   5.895  18.480  0.00  0.00    +0.000 A 
ATOM      3  C   UNL     1       4.222   5.688  19.373  0.00  0.00    +0.000 A 
ATOM      4  C   UNL     1       3.013   6.378  19.215  0.00  0.00    +0.000 A 
ATOM      5  C   UNL     1       2.873   7.258  18.132  0.00  0.00    +0.000 A 
ATOM      6  C   UNL     1       3.929   7.462  17.235  0.00  0.00    +0.000 A 
ENDROOT
BRANCH   1   7
ATOM      7  O   UNL     1       6.238   6.884  16.612  0.00  0.00    +0.000 OA
BRANCH   7   8
ATOM      8  C   UNL     1       7.124   5.766  16.595  0.00  0.00    +0.000 C 
BRANCH   8  14
ATOM      9  C   UNL     1       5.188   3.492  15.846  0.00  0.00    +0.000 C 
ATOM     10  N   UNL     1       6.114   4.129  14.940  0.00  0.00    +0.000 N 
ATOM     11  C   UNL     1       6.234   3.843  13.608  0.00  0.00    +0.000 A 
ATOM     12  C   UNL     1       7.224   4.683  13.150  0.00  0.00    +0.000 A 
ATOM     13  N   UNL     1       7.691   5.476  14.164  0.00  0.00    +0.000 NA
ATOM     14  C   UNL     1       7.009   5.131  15.244  0.00  0.00    +0.000 A 
ENDBRANCH   8  14
ENDBRANCH   7   8
ENDBRANCH   1   7
BRANCH   4  15
ATOM     15  C   UNL     1       1.891   6.176  20.212  0.00  0.00    +0.000 C 
BRANCH  15  16
ATOM     16  N   UNL     1       1.444   4.766  20.334  0.00  0.00    +0.000 NA
ATOM     17  C   UNL     1       1.497   4.095  19.025  0.00  0.00    +0.000 C 
ATOM     18  C   UNL     1       1.232   2.589  19.104  0.00  0.00    +0.000 C 
ATOM     19  C   UNL     1       2.183   1.902  20.081  0.00  0.00    +0.000 C 
ATOM     20  C   UNL     1       2.055   2.587  21.443  0.00  0.00    +0.000 C 
ATOM     21  C   UNL     1       2.264   4.101  21.359  0.00  0.00    +0.000 C 
BRANCH  19  22
ATOM     22  C   UNL     1       3.620   1.888  19.565  0.00  0.00    +0.000 C 
ATOM     23  N   UNL     1       3.777   1.426  18.290  0.00  0.00    +0.000 N 
ATOM     24  O   UNL     1       4.599   2.243  20.212  0.00  0.00    +0.000 OA
ATOM     25  H   UNL     1       3.044   0.929  17.802  0.00  0.00    +0.000 HD
ATOM     26  H   UNL     1       4.723   1.335  17.949  0.00  0.00    +0.000 HD
ENDBRANCH  19  22
ENDBRANCH  15  16
ENDBRANCH   4  15
TORSDOF 6
ENDMDL
MODEL 2
REMARK VINA RESULT:      -7.7      0.239      1.011
REMARK  Name = 
REMARK  7 active torsions:
REMARK  status: ('A' for Active; 'I' for Inactive)
REMARK    1  A    between atoms: C_1  and  N_2
REMARK    2  A    between atoms: C_6  and  C_7
REMARK    3  A    between atoms: C_7  and  O_8
REMARK    4  A    between atoms: O_8  and  C_9
REMARK    5  A    between atoms: C_12  and  C_13
REMARK    6  A    between atoms: C_13  and  N_14
REMARK    7  A    between atoms: C_17  and  C_18
REMARK                            x       y       z     vdW  Elec       q    Type
REMARK                         _______ _______ _______ _____ _____    ______ ____
ROOT
ATOM      1  C   UNL     1       5.326   6.529  17.536  0.00  0.00    +0.000 A 
ATOM      2  C   UNL     1       4.133   7.191  17.243  0.00  0.00    +0.000 A 
ATOM      3  C   UNL     1       3.029   7.072  18.085  0.00  0.00    +0.000 A 
ATOM      4  C   UNL     1       3.095   6.265  19.228  0.00  0.00    +0.000 A 
ATOM      5  C   UNL     1       4.296   5.604  19.521  0.00  0.00    +0.000 A 
ATOM      6  C   UNL     1       5.406   5.728  18.675  0.00  0.00    +0.000 A 
ENDROOT
BRANCH   1   7
ATOM      7  O   UNL     1       6.326   6.732  16.626  0.00  0.00    +0.000 OA
BRANCH   7   8
ATOM      8  C   UNL     1       7.288   5.686  16.492  0.00  0.00    +0.000 C 
BRANCH   8  14
ATOM      9  C   UNL     1       5.288   3.437  15.841  0.00  0.00    +0.000 C 
ATOM     10  N   UNL     1       6.163   4.075  14.886  0.00  0.00    +0.000 N 
ATOM     11  C   UNL     1       6.198   3.803  13.547  0.00  0.00    +0.000 A 
ATOM     12  C   UNL     1       7.166   4.639  13.038  0.00  0.00    +0.000 A 
ATOM     13  N   UNL     1       7.701   5.417  14.029  0.00  0.00    +0.000 NA
ATOM     14  C   UNL     1       7.084   5.066  15.145  0.00  0.00    +0.000 A 
ENDBRANCH   8  14
ENDBRANCH   7   8
ENDBRANCH   1   7
BRANCH   4  15
ATOM     15  C   UNL     1       1.878   6.110  20.115  0.00  0.00    +0.000 C 
BRANCH  15  16
ATOM     16  N   UNL     1       1.356   4.722  20.182  0.00  0.00    +0.000 NA
ATOM     17  C   UNL     1       1.400   4.092  18.853  0.00  0.00    +0.000 C 
ATOM     18  C   UNL     1       1.058   2.601  18.877  0.00  0.00    +0.000 C 
ATOM     19  C   UNL     1       1.953   1.834  19.847  0.00  0.00    +0.000 C 
ATOM     20  C   UNL     1       1.833   2.479  21.228  0.00  0.00    +0.000 C 
ATOM     21  C   UNL     1       2.120   3.983  21.199  0.00  0.00    +0.000 C 
BRANCH  19  22
ATOM     22  C   UNL     1       3.397   1.762  19.357  0.00  0.00    +0.000 C 
ATOM     23  N   UNL     1       3.565   1.219  18.116  0.00  0.00    +0.000 N 
ATOM     24  O   UNL     1       4.372   2.139  19.996  0.00  0.00    +0.000 OA
ATOM     25  H   UNL     1       2.831   0.705  17.648  0.00  0.00    +0.000 HD
ATOM     26  H   UNL     1       4.514   1.089  17.797  0.00  0.00    +0.000 HD
ENDBRANCH  19  22
ENDBRANCH  15  16
ENDBRANCH   4  15
TORSDOF 6
ENDMDL
MODEL 3
REMARK VINA RESULT:      -7.4      4.430      5.651
REMARK  Name = 
REMARK  7 active torsions:
REMARK  status: ('A' for Active; 'I' for Inactive)
REMARK    1  A    between atoms: C_1  and  N_2
REMARK    2  A    between atoms: C_6  and  C_7
REMARK    3  A    between atoms: C_7  and  O_8
REMARK    4  A    between atoms: O_8  and  C_9
REMARK    5  A    between atoms: C_12  and  C_13
REMARK    6  A    between atoms: C_13  and  N_14
REMARK    7  A    between atoms: C_17  and  C_18
REMARK                            x       y       z     vdW  Elec       q    Type
REMARK                         _______ _______ _______ _____ _____    ______ ____
ROOT
ATOM      1  C   UNL     1       7.973   8.074  17.984  0.00  0.00    +0.000 A 
ATOM      2  C   UNL     1       6.831   8.008  17.184  0.00  0.00    +0.000 A 
ATOM      3  C   UNL     1       5.989   6.898  17.238  0.00  0.00    +0.000 A 
ATOM      4  C   UNL     1       6.291   5.822  18.082  0.00  0.00    +0.000 A 
ATOM      5  C   UNL     1       7.437   5.893  18.887  0.00  0.00    +0.000 A 
ATOM      6  C   UNL     1       8.280   7.011  18.833  0.00  0.00    +0.000 A 
ENDROOT
BRANCH   1   7
ATOM      7  O   UNL     1       8.709   9.215  17.829  0.00  0.00    +0.000 OA
BRANCH   7   8
ATOM      8  C   UNL     1       9.058   9.916  19.022  0.00  0.00    +0.000 C 
BRANCH   8  14
ATOM      9  C   UNL     1      11.304  11.712  20.124  0.00  0.00    +0.000 C 
ATOM     10  N   UNL     1      10.324  12.112  19.142  0.00  0.00    +0.000 N 
ATOM     11  C   UNL     1      10.280  13.333  18.528  0.00  0.00    +0.000 A 
ATOM     12  C   UNL     1       9.197  13.266  17.680  0.00  0.00    +0.000 A 
ATOM     13  N   UNL     1       8.601  12.036  17.754  0.00  0.00    +0.000 NA
ATOM     14  C   UNL     1       9.294  11.345  18.644  0.00  0.00    +0.000 A 
ENDBRANCH   8  14
ENDBRANCH   7   8
ENDBRANCH   1   7
BRANCH   4  15
ATOM     15  C   UNL     1       5.391   4.604  18.105  0.00  0.00    +0.000 C 
BRANCH  15  16
ATOM     16  N   UNL     1       3.951   4.925  18.258  0.00  0.00    +0.000 NA
ATOM     17  C   UNL     1       3.130   3.994  17.467  0.00  0.00    +0.000 C 
ATOM     18  C   UNL     1       1.628   4.142  17.722  0.00  0.00    +0.000 C 
ATOM     19  C   UNL     1       1.294   4.000  19.206  0.00  0.00    +0.000 C 
ATOM     20  C   UNL     1       2.120   5.023  19.987  0.00  0.00    +0.000 C 
ATOM     21  C   UNL     1       3.618   4.916  19.691  0.00  0.00    +0.000 C 
BRANCH  19  22
ATOM     22  C   UNL     1       1.505   2.573  19.705  0.00  0.00    +0.000 C 
ATOM     23  N   UNL     1       1.358   1.598  18.761  0.00  0.00    +0.000 N 
ATOM     24  O   UNL     1       1.776   2.269  20.861  0.00  0.00    +0.000 OA
ATOM     25  H   UNL     1       0.932   1.776  17.862  0.00  0.00    +0.000 HD
ATOM     26  H   UNL     1       1.418   0.640  19.078  0.00  0.00    +0.000 HD
ENDBRANCH  19  22
ENDBRANCH  15  16
ENDBRANCH   4  15
TORSDOF 6
ENDMDL
MODEL 4
REMARK VINA RESULT:      -7.4      4.707      7.317
REMARK  Name = 
REMARK  7 active torsions:
REMARK  status: ('A' for Active; 'I' for Inactive)
REMARK    1  A    between atoms: C_1  and  N_2
REMARK    2  A    between atoms: C_6  and  C_7
REMARK    3  A    between atoms: C_7  and  O_8
REMARK    4  A    between atoms: O_8  and  C_9
REMARK    5  A    between atoms: C_12  and  C_13
REMARK    6  A    between atoms: C_13  and  N_14
REMARK    7  A    between atoms: C_17  and  C_18
REMARK                            x       y       z     vdW  Elec       q    Type
REMARK                         _______ _______ _______ _____ _____    ______ ____
ROOT
ATOM      1  C   UNL     1       0.530  10.175  19.686  0.00  0.00    +0.000 A 
ATOM      2  C   UNL     1       1.041   9.875  18.423  0.00  0.00    +0.000 A 
ATOM      3  C   UNL     1       1.781   8.713  18.213  0.00  0.00    +0.000 A 
ATOM      4  C   UNL     1       2.042   7.839  19.275  0.00  0.00    +0.000 A 
ATOM      5  C   UNL     1       1.525   8.141  20.543  0.00  0.00    +0.000 A 
ATOM      6  C   UNL     1       0.779   9.308  20.751  0.00  0.00    +0.000 A 
ENDROOT
BRANCH   1   7
ATOM      7  O   UNL     1      -0.173  11.345  19.752  0.00  0.00    +0.000 OA
BRANCH   7   8
ATOM      8  C   UNL     1      -0.635  11.882  18.513  0.00  0.00    +0.000 C 
BRANCH   8  14
ATOM      9  C   UNL     1      -2.427  10.539  16.400  0.00  0.00    +0.000 C 
ATOM     10  N   UNL     1      -2.900  11.209  17.588  0.00  0.00    +0.000 N 
ATOM     11  C   UNL     1      -4.210  11.305  17.968  0.00  0.00    +0.000 A 
ATOM     12  C   UNL     1      -4.188  12.015  19.147  0.00  0.00    +0.000 A 
ATOM     13  N   UNL     1      -2.903  12.334  19.495  0.00  0.00    +0.000 NA
ATOM     14  C   UNL     1      -2.131  11.839  18.542  0.00  0.00    +0.000 A 
ENDBRANCH   8  14
ENDBRANCH   7   8
ENDBRANCH   1   7
BRANCH   4  15
ATOM     15  C   UNL     1       2.881   6.599  19.046  0.00  0.00    +0.000 C 
BRANCH  15  16
ATOM     16  N   UNL     1       2.145   5.329  19.261  0.00  0.00    +0.000 NA
ATOM     17  C   UNL     1       2.277   4.453  18.086  0.00  0.00    +0.000 C 
ATOM     18  C   UNL     1       1.705   3.050  18.307  0.00  0.00    +0.000 C 
ATOM     19  C   UNL     1       2.324   2.378  19.531  0.00  0.00    +0.000 C 
ATOM     20  C   UNL     1       2.113   3.289  20.741  0.00  0.00    +0.000 C 
ATOM     21  C   UNL     1       2.634   4.709  20.503  0.00  0.00    +0.000 C 
BRANCH  19  22
ATOM     22  C   UNL     1       3.794   2.029  19.309  0.00  0.00    +0.000 C 
ATOM     23  N   UNL     1       4.062   1.341  18.160  0.00  0.00    +0.000 N 
ATOM     24  O   UNL     1       4.704   2.311  20.079  0.00  0.00    +0.000 OA
ATOM     25  H   UNL     1       3.335   0.905  17.610  0.00  0.00    +0.000 HD
ATOM     26  H   UNL     1       5.014   1.032  18.023  0.00  0.00    +0.000 HD
ENDBRANCH  19  22
ENDBRANCH  15  16
ENDBRANCH   4  15
TORSDOF 6
ENDMDL
MODEL 5
REMARK VINA RESULT:      -7.3      4.911      7.638
REMARK  Name = 
REMARK  7 active torsions:
REMARK  status: ('A' for Active; 'I' for Inactive)
REMARK    1  A    between atoms: C_1  and  N_2
REMARK    2  A    between atoms: C_6  and  C_7
REMARK    3  A    between atoms: C_7  and  O_8
REMARK    4  A    between atoms: O_8  and  C_9
REMARK    5  A    between atoms: C_12  and  C_13
REMARK    6  A    between atoms: C_13  and  N_14
REMARK    7  A    between atoms: C_17  and  C_18
REMARK                            x       y       z     vdW  Elec       q    Type
REMARK                         _______ _______ _______ _____ _____    ______ ____
ROOT
ATOM      1  C   UNL     1       0.534  10.043  19.095  0.00  0.00    +0.000 A 
ATOM      2  C   UNL     1       0.667   9.361  20.305  0.00  0.00    +0.000 A 
ATOM      3  C   UNL     1       1.481   8.232  20.400  0.00  0.00    +0.000 A 
ATOM      4  C   UNL     1       2.160   7.754  19.272  0.00  0.00    +0.000 A 
ATOM      5  C   UNL     1       2.027   8.444  18.058  0.00  0.00    +0.000 A 
ATOM      6  C   UNL     1       1.211   9.580  17.967  0.00  0.00    +0.000 A 
ENDROOT
BRANCH   1   7
ATOM      7  O   UNL     1      -0.295  11.128  19.144  0.00  0.00    +0.000 OA
BRANCH   7   8
ATOM      8  C   UNL     1      -1.372  11.150  18.208  0.00  0.00    +0.000 C 
BRANCH   8  14
ATOM      9  C   UNL     1      -4.263  11.175  17.149  0.00  0.00    +0.000 C 
ATOM     10  N   UNL     1      -3.832  11.743  18.405  0.00  0.00    +0.000 N 
ATOM     11  C   UNL     1      -4.653  12.334  19.324  0.00  0.00    +0.000 A 
ATOM     12  C   UNL     1      -3.820  12.719  20.350  0.00  0.00    +0.000 A 
ATOM     13  N   UNL     1      -2.526  12.362  20.082  0.00  0.00    +0.000 NA
ATOM     14  C   UNL     1      -2.546  11.770  18.899  0.00  0.00    +0.000 A 
ENDBRANCH   8  14
ENDBRANCH   7   8
ENDBRANCH   1   7
BRANCH   4  15
ATOM     15  C   UNL     1       3.010   6.505  19.375  0.00  0.00    +0.000 C 
BRANCH  15  16
ATOM     16  N   UNL     1       2.226   5.246  19.398  0.00  0.00    +0.000 NA
ATOM     17  C   UNL     1       2.444   4.483  18.159  0.00  0.00    +0.000 C 
ATOM     18  C   UNL     1       1.819   3.085  18.189  0.00  0.00    +0.000 C 
ATOM     19  C   UNL     1       2.305   2.278  19.391  0.00  0.00    +0.000 C 
ATOM     20  C   UNL     1       2.007   3.076  20.661  0.00  0.00    +0.000 C 
ATOM     21  C   UNL     1       2.582   4.494  20.611  0.00  0.00    +0.000 C 
BRANCH  19  22
ATOM     22  C   UNL     1       3.780   1.902  19.268  0.00  0.00    +0.000 C 
ATOM     23  N   UNL     1       4.110   1.198  18.146  0.00  0.00    +0.000 N 
ATOM     24  O   UNL     1       4.643   2.178  20.093  0.00  0.00    +0.000 OA
ATOM     25  H   UNL     1       3.413   0.768  17.553  0.00  0.00    +0.000 HD
ATOM     26  H   UNL     1       5.063   0.871  18.074  0.00  0.00    +0.000 HD
ENDBRANCH  19  22
ENDBRANCH  15  16
ENDBRANCH   4  15
TORSDOF 6
ENDMDL
MODEL 6
REMARK VINA RESULT:      -7.3      4.177      5.443
REMARK  Name = 
REMARK  7 active torsions:
REMARK  status: ('A' for Active; 'I' for Inactive)
REMARK    1  A    between atoms: C_1  and  N_2
REMARK    2  A    between atoms: C_6  and  C_7
REMARK    3  A    between atoms: C_7  and  O_8
REMARK    4  A    between atoms: O_8  and  C_9
REMARK    5  A    between atoms: C_12  and  C_13
REMARK    6  A    between atoms: C_13  and  N_14
REMARK    7  A    between atoms: C_17  and  C_18
REMARK                            x       y       z     vdW  Elec       q    Type
REMARK                         _______ _______ _______ _____ _____    ______ ____
ROOT
ATOM      1  C   UNL     1       7.923   7.893  17.879  0.00  0.00    +0.000 A 
ATOM      2  C   UNL     1       6.775   7.866  17.087  0.00  0.00    +0.000 A 
ATOM      3  C   UNL     1       5.887   6.794  17.159  0.00  0.00    +0.000 A 
ATOM      4  C   UNL     1       6.147   5.716  18.014  0.00  0.00    +0.000 A 
ATOM      5  C   UNL     1       7.300   5.748  18.812  0.00  0.00    +0.000 A 
ATOM      6  C   UNL     1       8.190   6.828  18.740  0.00  0.00    +0.000 A 
ENDROOT
BRANCH   1   7
ATOM      7  O   UNL     1       8.706   9.000  17.707  0.00  0.00    +0.000 OA
BRANCH   7   8
ATOM      8  C   UNL     1       8.569  10.037  18.678  0.00  0.00    +0.000 C 
BRANCH   8  14
ATOM      9  C   UNL     1       7.697  12.615  17.239  0.00  0.00    +0.000 C 
ATOM     10  N   UNL     1       9.047  12.303  17.642  0.00  0.00    +0.000 N 
ATOM     11  C   UNL     1      10.126  13.128  17.483  0.00  0.00    +0.000 A 
ATOM     12  C   UNL     1      11.190  12.429  18.008  0.00  0.00    +0.000 A 
ATOM     13  N   UNL     1      10.779  11.217  18.493  0.00  0.00    +0.000 NA
ATOM     14  C   UNL     1       9.477  11.153  18.267  0.00  0.00    +0.000 A 
ENDBRANCH   8  14
ENDBRANCH   7   8
ENDBRANCH   1   7
BRANCH   4  15
ATOM     15  C   UNL     1       5.197   4.538  18.056  0.00  0.00    +0.000 C 
BRANCH  15  16
ATOM     16  N   UNL     1       3.791   4.911  18.350  0.00  0.00    +0.000 NA
ATOM     17  C   UNL     1       2.877   3.834  17.938  0.00  0.00    +0.000 C 
ATOM     18  C   UNL     1       1.429   4.064  18.380  0.00  0.00    +0.000 C 
ATOM     19  C   UNL     1       1.331   4.284  19.888  0.00  0.00    +0.000 C 
ATOM     20  C   UNL     1       2.247   5.449  20.268  0.00  0.00    +0.000 C 
ATOM     21  C   UNL     1       3.684   5.248  19.778  0.00  0.00    +0.000 C 
BRANCH  19  22
ATOM     22  C   UNL     1       1.644   3.012  20.672  0.00  0.00    +0.000 C 
ATOM     23  N   UNL     1       1.978   3.202  21.982  0.00  0.00    +0.000 N 
ATOM     24  O   UNL     1       1.623   1.879  20.204  0.00  0.00    +0.000 OA
ATOM     25  H   UNL     1       2.214   4.112  22.352  0.00  0.00    +0.000 HD
ATOM     26  H   UNL     1       2.263   2.386  22.505  0.00  0.00    +0.000 HD
ENDBRANCH  19  22
ENDBRANCH  15  16
ENDBRANCH   4  15
TORSDOF 6
ENDMDL
MODEL 7
REMARK VINA RESULT:      -7.3      4.462      5.621
REMARK  Name = 
REMARK  7 active torsions:
REMARK  status: ('A' for Active; 'I' for Inactive)
REMARK    1  A    between atoms: C_1  and  N_2
REMARK    2  A    between atoms: C_6  and  C_7
REMARK    3  A    between atoms: C_7  and  O_8
REMARK    4  A    between atoms: O_8  and  C_9
REMARK    5  A    between atoms: C_12  and  C_13
REMARK    6  A    between atoms: C_13  and  N_14
REMARK    7  A    between atoms: C_17  and  C_18
REMARK                            x       y       z     vdW  Elec       q    Type
REMARK                         _______ _______ _______ _____ _____    ______ ____
ROOT
ATOM      1  C   UNL     1       7.796   8.086  17.840  0.00  0.00    +0.000 A 
ATOM      2  C   UNL     1       8.247   7.164  18.785  0.00  0.00    +0.000 A 
ATOM      3  C   UNL     1       7.629   5.922  18.919  0.00  0.00    +0.000 A 
ATOM      4  C   UNL     1       6.529   5.590  18.118  0.00  0.00    +0.000 A 
ATOM      5  C   UNL     1       6.080   6.517  17.166  0.00  0.00    +0.000 A 
ATOM      6  C   UNL     1       6.705   7.764  17.032  0.00  0.00    +0.000 A 
ENDROOT
BRANCH   1   7
ATOM      7  O   UNL     1       8.490   9.263  17.818  0.00  0.00    +0.000 OA
BRANCH   7   8
ATOM      8  C   UNL     1       9.058   9.692  19.055  0.00  0.00    +0.000 C 
BRANCH   8  14
ATOM      9  C   UNL     1       9.388  11.964  21.108  0.00  0.00    +0.000 C 
ATOM     10  N   UNL     1       9.883  11.989  19.752  0.00  0.00    +0.000 N 
ATOM     11  C   UNL     1      10.608  13.007  19.198  0.00  0.00    +0.000 A 
ATOM     12  C   UNL     1      10.862  12.602  17.906  0.00  0.00    +0.000 A 
ATOM     13  N   UNL     1      10.325  11.365  17.674  0.00  0.00    +0.000 NA
ATOM     14  C   UNL     1       9.735  11.003  18.801  0.00  0.00    +0.000 A 
ENDBRANCH   8  14
ENDBRANCH   7   8
ENDBRANCH   1   7
BRANCH   4  15
ATOM     15  C   UNL     1       5.839   4.254  18.297  0.00  0.00    +0.000 C 
BRANCH  15  16
ATOM     16  N   UNL     1       4.758   4.268  19.313  0.00  0.00    +0.000 NA
ATOM     17  C   UNL     1       3.643   5.117  18.866  0.00  0.00    +0.000 C 
ATOM     18  C   UNL     1       2.412   5.031  19.773  0.00  0.00    +0.000 C 
ATOM     19  C   UNL     1       1.937   3.589  19.939  0.00  0.00    +0.000 C 
ATOM     20  C   UNL     1       3.105   2.752  20.463  0.00  0.00    +0.000 C 
ATOM     21  C   UNL     1       4.355   2.880  19.589  0.00  0.00    +0.000 C 
BRANCH  19  22
ATOM     22  C   UNL     1       1.348   3.030  18.646  0.00  0.00    +0.000 C 
ATOM     23  N   UNL     1       1.233   1.671  18.598  0.00  0.00    +0.000 N 
ATOM     24  O   UNL     1       0.998   3.708  17.686  0.00  0.00    +0.000 OA
ATOM     25  H   UNL     1       1.696   1.066  19.262  0.00  0.00    +0.000 HD
ATOM     26  H   UNL     1       0.917   1.268  17.727  0.00  0.00    +0.000 HD
ENDBRANCH  19  22
ENDBRANCH  15  16
ENDBRANCH   4  15
TORSDOF 6
ENDMDL
MODEL 8
REMARK VINA RESULT:      -7.3      4.817      7.629
REMARK  Name = 
REMARK  7 active torsions:
REMARK  status: ('A' for Active; 'I' for Inactive)
REMARK    1  A    between atoms: C_1  and  N_2
REMARK    2  A    between atoms: C_6  and  C_7
REMARK    3  A    between atoms: C_7  and  O_8
REMARK    4  A    between atoms: O_8  and  C_9
REMARK    5  A    between atoms: C_12  and  C_13
REMARK    6  A    between atoms: C_13  and  N_14
REMARK    7  A    between atoms: C_17  and  C_18
REMARK                            x       y       z     vdW  Elec       q    Type
REMARK                         _______ _______ _______ _____ _____    ______ ____
ROOT
ATOM      1  C   UNL     1       0.713  10.031  19.091  0.00  0.00    +0.000 A 
ATOM      2  C   UNL     1       1.353   9.597  17.930  0.00  0.00    +0.000 A 
ATOM      3  C   UNL     1       2.100   8.420  17.928  0.00  0.00    +0.000 A 
ATOM      4  C   UNL     1       2.235   7.666  19.101  0.00  0.00    +0.000 A 
ATOM      5  C   UNL     1       1.588   8.104  20.265  0.00  0.00    +0.000 A 
ATOM      6  C   UNL     1       0.836   9.286  20.264  0.00  0.00    +0.000 A 
ENDROOT
BRANCH   1   7
ATOM      7  O   UNL     1       0.018  11.200  18.953  0.00  0.00    +0.000 OA
BRANCH   7   8
ATOM      8  C   UNL     1      -1.261  11.113  18.327  0.00  0.00    +0.000 C 
BRANCH   8  14
ATOM      9  C   UNL     1      -4.261  11.490  17.744  0.00  0.00    +0.000 C 
ATOM     10  N   UNL     1      -3.577  11.962  18.925  0.00  0.00    +0.000 N 
ATOM     11  C   UNL     1      -4.172  12.605  19.974  0.00  0.00    +0.000 A 
ATOM     12  C   UNL     1      -3.150  12.861  20.861  0.00  0.00    +0.000 A 
ATOM     13  N   UNL     1      -1.963  12.375  20.383  0.00  0.00    +0.000 NA
ATOM     14  C   UNL     1      -2.235  11.831  19.208  0.00  0.00    +0.000 A 
ENDBRANCH   8  14
ENDBRANCH   7   8
ENDBRANCH   1   7
BRANCH   4  15
ATOM     15  C   UNL     1       3.081   6.410  19.099  0.00  0.00    +0.000 C 
BRANCH  15  16
ATOM     16  N   UNL     1       2.294   5.157  19.217  0.00  0.00    +0.000 NA
ATOM     17  C   UNL     1       2.510   4.301  18.040  0.00  0.00    +0.000 C 
ATOM     18  C   UNL     1       1.883   2.912  18.176  0.00  0.00    +0.000 C 
ATOM     19  C   UNL     1       2.367   2.198  19.436  0.00  0.00    +0.000 C 
ATOM     20  C   UNL     1       2.070   3.090  20.641  0.00  0.00    +0.000 C 
ATOM     21  C   UNL     1       2.648   4.499  20.484  0.00  0.00    +0.000 C 
BRANCH  19  22
ATOM     22  C   UNL     1       3.841   1.810  19.342  0.00  0.00    +0.000 C 
ATOM     23  N   UNL     1       4.150   0.933  18.343  0.00  0.00    +0.000 N 
ATOM     24  O   UNL     1       4.721   2.220  20.091  0.00  0.00    +0.000 OA
ATOM     25  H   UNL     1       3.443   0.410  17.846  0.00  0.00    +0.000 HD
ATOM     26  H   UNL     1       5.104   0.601  18.304  0.00  0.00    +0.000 HD
ENDBRANCH  19  22
ENDBRANCH  15  16
ENDBRANCH   4  15
TORSDOF 6
ENDMDL
MODEL 9
REMARK VINA RESULT:      -7.3      0.874      1.768
REMARK  Name = 
REMARK  7 active torsions:
REMARK  status: ('A' for Active; 'I' for Inactive)
REMARK    1  A    between atoms: C_1  and  N_2
REMARK    2  A    between atoms: C_6  and  C_7
REMARK    3  A    between atoms: C_7  and  O_8
REMARK    4  A    between atoms: O_8  and  C_9
REMARK    5  A    between atoms: C_12  and  C_13
REMARK    6  A    between atoms: C_13  and  N_14
REMARK    7  A    between atoms: C_17  and  C_18
REMARK                            x       y       z     vdW  Elec       q    Type
REMARK                         _______ _______ _______ _____ _____    ______ ____
ROOT
ATOM      1  C   UNL     1       5.310   6.293  16.811  0.00  0.00    +0.000 A 
ATOM      2  C   UNL     1       4.232   7.173  16.711  0.00  0.00    +0.000 A 
ATOM      3  C   UNL     1       3.269   7.237  17.717  0.00  0.00    +0.000 A 
ATOM      4  C   UNL     1       3.360   6.399  18.836  0.00  0.00    +0.000 A 
ATOM      5  C   UNL     1       4.447   5.519  18.936  0.00  0.00    +0.000 A 
ATOM      6  C   UNL     1       5.415   5.459  17.924  0.00  0.00    +0.000 A 
ENDROOT
BRANCH   1   7
ATOM      7  O   UNL     1       6.176   6.332  15.754  0.00  0.00    +0.000 OA
BRANCH   7   8
ATOM      8  C   UNL     1       7.024   5.198  15.583  0.00  0.00    +0.000 C 
BRANCH   8  14
ATOM      9  C   UNL     1       8.527   5.788  12.960  0.00  0.00    +0.000 C 
ATOM     10  N   UNL     1       7.415   4.876  13.096  0.00  0.00    +0.000 N 
ATOM     11  C   UNL     1       6.898   4.111  12.088  0.00  0.00    +0.000 A 
ATOM     12  C   UNL     1       5.867   3.406  12.668  0.00  0.00    +0.000 A 
ATOM     13  N   UNL     1       5.761   3.713  13.998  0.00  0.00    +0.000 NA
ATOM     14  C   UNL     1       6.706   4.605  14.246  0.00  0.00    +0.000 A 
ENDBRANCH   8  14
ENDBRANCH   7   8
ENDBRANCH   1   7
BRANCH   4  15
ATOM     15  C   UNL     1       2.289   6.447  19.905  0.00  0.00    +0.000 C 
BRANCH  15  16
ATOM     16  N   UNL     1       1.618   5.145  20.141  0.00  0.00    +0.000 NA
ATOM     17  C   UNL     1       1.510   4.387  18.884  0.00  0.00    +0.000 C 
ATOM     18  C   UNL     1       1.001   2.957  19.080  0.00  0.00    +0.000 C 
ATOM     19  C   UNL     1       1.860   2.187  20.081  0.00  0.00    +0.000 C 
ATOM     20  C   UNL     1       1.898   2.975  21.392  0.00  0.00    +0.000 C 
ATOM     21  C   UNL     1       2.352   4.423  21.192  0.00  0.00    +0.000 C 
BRANCH  19  22
ATOM     22  C   UNL     1       3.254   1.895  19.532  0.00  0.00    +0.000 C 
ATOM     23  N   UNL     1       3.283   1.301  18.303  0.00  0.00    +0.000 N 
ATOM     24  O   UNL     1       4.302   2.146  20.116  0.00  0.00    +0.000 OA
ATOM     25  H   UNL     1       2.463   0.887  17.884  0.00  0.00    +0.000 HD
ATOM     26  H   UNL     1       4.189   1.028  17.948  0.00  0.00    +0.000 HD
ENDBRANCH  19  22
ENDBRANCH  15  16
ENDBRANCH   4  15
TORSDOF 6
ENDMDL
