MODEL 1
REMARK VINA RESULT:      -7.6      0.000      0.000
REMARK  Name = 
REMARK  8 active torsions:
REMARK  status: ('A' for Active; 'I' for Inactive)
REMARK    1  A    between atoms: C_1  and  C_2
REMARK    2  A    between atoms: C_2  and  C_3
REMARK    3  A    between atoms: C_2  and  C_4
REMARK    4  A    between atoms: C_2  and  O_5
REMARK    5  A    between atoms: O_5  and  C_6
REMARK    6  A    between atoms: N_8  and  C_9
REMARK    7  A    between atoms: C_9  and  C_10
REMARK    8  A    between atoms: C_14  and  C_16
REMARK                            x       y       z     vdW  Elec       q    Type
REMARK                         _______ _______ _______ _____ _____    ______ ____
ROOT
ATOM      1  C   UNL     1       6.001   4.741  18.217  0.00  0.00    +0.000 C 
ATOM      2  C   UNL     1       7.259   5.384  17.606  0.00  0.00    +0.000 C 
ATOM      3  C   UNL     1       6.958   6.095  16.284  0.00  0.00    +0.000 C 
ATOM      4  N   UNL     1       6.273   5.204  15.341  0.00  0.00    +0.000 N 
ATOM      5  C   UNL     1       6.934   4.868  14.154  0.00  0.00    +0.000 C 
ATOM      6  O   UNL     1       8.081   5.260  13.937  0.00  0.00    +0.000 OA
ATOM      7  C   UNL     1       5.066   4.562  15.865  0.00  0.00    +0.000 C 
ATOM      8  C   UNL     1       5.357   3.823  17.168  0.00  0.00    +0.000 C 
ENDROOT
BRANCH   5   9
ATOM      9  C   UNL     1       6.256   4.038  13.173  0.00  0.00    +0.000 A 
ATOM     10  C   UNL     1       4.965   4.199  12.692  0.00  0.00    +0.000 A 
ATOM     11  C   UNL     1       4.723   3.197  11.728  0.00  0.00    +0.000 A 
ATOM     12 CL   UNL     1       3.303   3.030  10.821  0.00  0.00    +0.000 Cl
ATOM     13  C   UNL     1       5.845   2.408  11.669  0.00  0.00    +0.000 A 
ATOM     14  N   UNL     1       6.724   2.867  12.614  0.00  0.00    +0.000 N 
ATOM     15  H   UNL     1       7.612   2.436  12.837  0.00  0.00    +0.000 HD
ENDBRANCH   5   9
BRANCH   1  16
ATOM     16  C   UNL     1       4.989   5.784  18.729  0.00  0.00    +0.000 C 
BRANCH  16  19
ATOM     17  C   UNL     1       2.695   5.060  19.151  0.00  0.00    +0.000 C 
ATOM     18  O   UNL     1       2.306   5.408  18.048  0.00  0.00    +0.000 OA
ATOM     19  N   UNL     1       3.978   5.206  19.583  0.00  0.00    +0.000 N 
ATOM     20  H   UNL     1       4.197   4.853  20.503  0.00  0.00    +0.000 HD
BRANCH  17  21
ATOM     21  O   UNL     1       1.942   4.478  20.118  0.00  0.00    +0.000 OA
BRANCH  21  23
ATOM     22  C   UNL     1       3.115   2.346  19.756  0.00  0.00    +0.000 C 
ATOM     23  C   UNL     1       1.790   3.034  20.108  0.00  0.00    +0.000 C 
ATOM     24  C   UNL     1       0.642   2.605  19.180  0.00  0.00    +0.000 C 
ATOM     25  C   UNL     1       1.414   2.631  21.544  0.00  0.00    +0.000 C 
ENDBRANCH  21  23
ENDBRANCH  17  21
ENDBRANCH  16  19
ENDBRANCH   1  16
TORSDOF 5
ENDMDL
MODEL 2
REMARK VINA RESULT:      -7.2      4.928      8.039
REMARK  Name = 
REMARK  8 active torsions:
REMARK  status: ('A' for Active; 'I' for Inactive)
REMARK    1  A    between atoms: C_1  and  C_2
REMARK    2  A    between atoms: C_2  and  C_3
REMARK    3  A    between atoms: C_2  and  C_4
REMARK    4  A    between atoms: C_2  and  O_5
REMARK    5  A    between atoms: O_5  and  C_6
REMARK    6  A    between atoms: N_8  and  C_9
REMARK    7  A    between atoms: C_9  and  C_10
REMARK    8  A    between atoms: C_14  and  C_16
REMARK                            x       y       z     vdW  Elec       q    Type
REMARK                         _______ _______ _______ _____ _____    ______ ____
ROOT
ATOM      1  C   UNL     1       7.849   6.638  17.585  0.00  0.00    +0.000 C 
ATOM      2  C   UNL     1       7.129   6.049  16.360  0.00  0.00    +0.000 C 
ATOM      3  C   UNL     1       5.610   6.003  16.551  0.00  0.00    +0.000 C 
ATOM      4  N   UNL     1       5.248   5.316  17.795  0.00  0.00    +0.000 N 
ATOM      5  C   UNL     1       4.527   4.120  17.701  0.00  0.00    +0.000 C 
ATOM      6  O   UNL     1       4.258   3.629  16.603  0.00  0.00    +0.000 OA
ATOM      7  C   UNL     1       5.902   5.833  18.999  0.00  0.00    +0.000 C 
ATOM      8  C   UNL     1       7.419   5.856  18.835  0.00  0.00    +0.000 C 
ENDROOT
BRANCH   5   9
ATOM      9  C   UNL     1       4.101   3.449  18.917  0.00  0.00    +0.000 A 
ATOM     10  C   UNL     1       2.899   3.619  19.588  0.00  0.00    +0.000 A 
ATOM     11  C   UNL     1       2.882   2.746  20.696  0.00  0.00    +0.000 A 
ATOM     12 CL   UNL     1       1.593   2.555  21.777  0.00  0.00    +0.000 Cl
ATOM     13  C   UNL     1       4.090   2.092  20.719  0.00  0.00    +0.000 A 
ATOM     14  N   UNL     1       4.852   2.595  19.698  0.00  0.00    +0.000 N 
ATOM     15  H   UNL     1       5.814   2.342  19.514  0.00  0.00    +0.000 HD
ENDBRANCH   5   9
BRANCH   1  16
ATOM     16  C   UNL     1       7.584   8.146  17.763  0.00  0.00    +0.000 C 
BRANCH  16  19
ATOM     17  C   UNL     1       8.802  10.132  18.494  0.00  0.00    +0.000 C 
ATOM     18  O   UNL     1       8.210  10.868  17.721  0.00  0.00    +0.000 OA
ATOM     19  N   UNL     1       8.577   8.793  18.587  0.00  0.00    +0.000 N 
ATOM     20  H   UNL     1       9.101   8.285  19.286  0.00  0.00    +0.000 HD
BRANCH  17  21
ATOM     21  O   UNL     1       9.762  10.505  19.379  0.00  0.00    +0.000 OA
BRANCH  21  23
ATOM     22  C   UNL     1      11.671  11.880  20.097  0.00  0.00    +0.000 C 
ATOM     23  C   UNL     1      10.462  11.758  19.161  0.00  0.00    +0.000 C 
ATOM     24  C   UNL     1       9.505  12.955  19.282  0.00  0.00    +0.000 C 
ATOM     25  C   UNL     1      10.984  11.713  17.715  0.00  0.00    +0.000 C 
ENDBRANCH  21  23
ENDBRANCH  17  21
ENDBRANCH  16  19
ENDBRANCH   1  16
TORSDOF 5
ENDMDL
MODEL 3
REMARK VINA RESULT:      -7.0      4.681      7.849
REMARK  Name = 
REMARK  8 active torsions:
REMARK  status: ('A' for Active; 'I' for Inactive)
REMARK    1  A    between atoms: C_1  and  C_2
REMARK    2  A    between atoms: C_2  and  C_3
REMARK    3  A    between atoms: C_2  and  C_4
REMARK    4  A    between atoms: C_2  and  O_5
REMARK    5  A    between atoms: O_5  and  C_6
REMARK    6  A    between atoms: N_8  and  C_9
REMARK    7  A    between atoms: C_9  and  C_10
REMARK    8  A    between atoms: C_14  and  C_16
REMARK                            x       y       z     vdW  Elec       q    Type
REMARK                         _______ _______ _______ _____ _____    ______ ____
ROOT
ATOM      1  C   UNL     1       7.655   5.835  18.290  0.00  0.00    +0.000 C 
ATOM      2  C   UNL     1       7.363   4.869  17.128  0.00  0.00    +0.000 C 
ATOM      3  C   UNL     1       5.932   5.013  16.605  0.00  0.00    +0.000 C 
ATOM      4  N   UNL     1       4.951   4.894  17.689  0.00  0.00    +0.000 N 
ATOM      5  C   UNL     1       4.063   3.812  17.657  0.00  0.00    +0.000 C 
ATOM      6  O   UNL     1       4.144   2.954  16.777  0.00  0.00    +0.000 OA
ATOM      7  C   UNL     1       5.175   5.790  18.826  0.00  0.00    +0.000 C 
ATOM      8  C   UNL     1       6.589   5.635  19.378  0.00  0.00    +0.000 C 
ENDROOT
BRANCH   5   9
ATOM      9  C   UNL     1       3.041   3.701  18.684  0.00  0.00    +0.000 A 
ATOM     10  C   UNL     1       3.079   2.902  19.817  0.00  0.00    +0.000 A 
ATOM     11  C   UNL     1       1.901   3.129  20.560  0.00  0.00    +0.000 A 
ATOM     12 CL   UNL     1       1.529   2.423  22.053  0.00  0.00    +0.000 Cl
ATOM     13  C   UNL     1       1.137   4.023  19.849  0.00  0.00    +0.000 A 
ATOM     14  N   UNL     1       1.791   4.286  18.675  0.00  0.00    +0.000 N 
ATOM     15  H   UNL     1       1.431   4.863  17.927  0.00  0.00    +0.000 HD
ENDBRANCH   5   9
BRANCH   1  16
ATOM     16  C   UNL     1       7.710   7.308  17.840  0.00  0.00    +0.000 C 
BRANCH  16  19
ATOM     17  C   UNL     1       8.607   9.469  18.539  0.00  0.00    +0.000 C 
ATOM     18  O   UNL     1       7.971  10.086  17.699  0.00  0.00    +0.000 OA
ATOM     19  N   UNL     1       8.556   8.116  18.685  0.00  0.00    +0.000 N 
ATOM     20  H   UNL     1       9.099   7.714  19.436  0.00  0.00    +0.000 HD
BRANCH  17  21
ATOM     21  O   UNL     1       9.452  10.005  19.457  0.00  0.00    +0.000 OA
BRANCH  21  23
ATOM     22  C   UNL     1      10.608  11.307  17.719  0.00  0.00    +0.000 C 
ATOM     23  C   UNL     1      10.086  11.277  19.161  0.00  0.00    +0.000 C 
ATOM     24  C   UNL     1      11.183  11.601  20.187  0.00  0.00    +0.000 C 
ATOM     25  C   UNL     1       8.987  12.346  19.289  0.00  0.00    +0.000 C 
ENDBRANCH  21  23
ENDBRANCH  17  21
ENDBRANCH  16  19
ENDBRANCH   1  16
TORSDOF 5
ENDMDL
MODEL 4
REMARK VINA RESULT:      -7.0      3.905      6.023
REMARK  Name = 
REMARK  8 active torsions:
REMARK  status: ('A' for Active; 'I' for Inactive)
REMARK    1  A    between atoms: C_1  and  C_2
REMARK    2  A    between atoms: C_2  and  C_3
REMARK    3  A    between atoms: C_2  and  C_4
REMARK    4  A    between atoms: C_2  and  O_5
REMARK    5  A    between atoms: O_5  and  C_6
REMARK    6  A    between atoms: N_8  and  C_9
REMARK    7  A    between atoms: C_9  and  C_10
REMARK    8  A    between atoms: C_14  and  C_16
REMARK                            x       y       z     vdW  Elec       q    Type
REMARK                         _______ _______ _______ _____ _____    ______ ____
ROOT
ATOM      1  C   UNL     1       1.330   5.939  19.946  0.00  0.00    +0.000 C 
ATOM      2  C   UNL     1       1.353   4.408  20.096  0.00  0.00    +0.000 C 
ATOM      3  C   UNL     1       2.747   3.884  20.451  0.00  0.00    +0.000 C 
ATOM      4  N   UNL     1       3.757   4.367  19.504  0.00  0.00    +0.000 N 
ATOM      5  C   UNL     1       4.418   3.423  18.708  0.00  0.00    +0.000 C 
ATOM      6  O   UNL     1       4.115   2.230  18.760  0.00  0.00    +0.000 OA
ATOM      7  C   UNL     1       3.786   5.819  19.318  0.00  0.00    +0.000 C 
ATOM      8  C   UNL     1       2.408   6.352  18.933  0.00  0.00    +0.000 C 
ENDROOT
BRANCH   5   9
ATOM      9  C   UNL     1       5.466   3.864  17.805  0.00  0.00    +0.000 A 
ATOM     10  C   UNL     1       5.386   3.977  16.424  0.00  0.00    +0.000 A 
ATOM     11  C   UNL     1       6.617   4.478  15.948  0.00  0.00    +0.000 A 
ATOM     12 CL   UNL     1       6.971   4.840  14.332  0.00  0.00    +0.000 Cl
ATOM     13  C   UNL     1       7.448   4.615  17.033  0.00  0.00    +0.000 A 
ATOM     14  N   UNL     1       6.775   4.152  18.132  0.00  0.00    +0.000 N 
ATOM     15  H   UNL     1       7.167   4.074  19.061  0.00  0.00    +0.000 HD
ENDBRANCH   5   9
BRANCH   1  16
ATOM     16  C   UNL     1       1.527   6.671  21.287  0.00  0.00    +0.000 C 
BRANCH  16  19
ATOM     17  C   UNL     1       0.555   8.911  21.327  0.00  0.00    +0.000 C 
ATOM     18  O   UNL     1      -0.554   8.503  21.629  0.00  0.00    +0.000 OA
ATOM     19  N   UNL     1       1.633   8.102  21.130  0.00  0.00    +0.000 N 
ATOM     20  H   UNL     1       2.512   8.551  20.914  0.00  0.00    +0.000 HD
BRANCH  17  21
ATOM     21  O   UNL     1       0.908  10.209  21.141  0.00  0.00    +0.000 OA
BRANCH  21  23
ATOM     22  C   UNL     1      -0.982  11.298  20.004  0.00  0.00    +0.000 C 
ATOM     23  C   UNL     1       0.491  10.877  19.922  0.00  0.00    +0.000 C 
ATOM     24  C   UNL     1       0.783  10.010  18.687  0.00  0.00    +0.000 C 
ATOM     25  C   UNL     1       1.343  12.153  19.817  0.00  0.00    +0.000 C 
ENDBRANCH  21  23
ENDBRANCH  17  21
ENDBRANCH  16  19
ENDBRANCH   1  16
TORSDOF 5
ENDMDL
MODEL 5
REMARK VINA RESULT:      -6.9      4.619      8.381
REMARK  Name = 
REMARK  8 active torsions:
REMARK  status: ('A' for Active; 'I' for Inactive)
REMARK    1  A    between atoms: C_1  and  C_2
REMARK    2  A    between atoms: C_2  and  C_3
REMARK    3  A    between atoms: C_2  and  C_4
REMARK    4  A    between atoms: C_2  and  O_5
REMARK    5  A    between atoms: O_5  and  C_6
REMARK    6  A    between atoms: N_8  and  C_9
REMARK    7  A    between atoms: C_9  and  C_10
REMARK    8  A    between atoms: C_14  and  C_16
REMARK                            x       y       z     vdW  Elec       q    Type
REMARK                         _______ _______ _______ _____ _____    ______ ____
ROOT
ATOM      1  C   UNL     1       2.018   4.291  19.104  0.00  0.00    +0.000 C 
ATOM      2  C   UNL     1       2.073   5.378  18.017  0.00  0.00    +0.000 C 
ATOM      3  C   UNL     1       2.779   6.646  18.504  0.00  0.00    +0.000 C 
ATOM      4  N   UNL     1       2.191   7.138  19.755  0.00  0.00    +0.000 N 
ATOM      5  C   UNL     1       1.560   8.388  19.739  0.00  0.00    +0.000 C 
ATOM      6  O   UNL     1       1.450   9.027  18.692  0.00  0.00    +0.000 OA
ATOM      7  C   UNL     1       2.111   6.148  20.831  0.00  0.00    +0.000 C 
ATOM      8  C   UNL     1       1.383   4.889  20.368  0.00  0.00    +0.000 C 
ENDROOT
BRANCH   5   9
ATOM      9  C   UNL     1       1.023   8.928  20.976  0.00  0.00    +0.000 A 
ATOM     10  C   UNL     1      -0.093   9.741  21.117  0.00  0.00    +0.000 A 
ATOM     11  C   UNL     1      -0.281  10.001  22.491  0.00  0.00    +0.000 A 
ATOM     12 CL   UNL     1      -1.554  10.898  23.156  0.00  0.00    +0.000 Cl
ATOM     13  C   UNL     1       0.747   9.390  23.166  0.00  0.00    +0.000 A 
ATOM     14  N   UNL     1       1.579   8.828  22.235  0.00  0.00    +0.000 N 
ATOM     15  H   UNL     1       2.454   8.365  22.442  0.00  0.00    +0.000 HD
ENDBRANCH   5   9
BRANCH   1  16
ATOM     16  C   UNL     1       3.402   3.691  19.416  0.00  0.00    +0.000 C 
BRANCH  16  19
ATOM     17  C   UNL     1       5.511   4.246  18.317  0.00  0.00    +0.000 C 
ATOM     18  O   UNL     1       5.961   4.808  19.302  0.00  0.00    +0.000 OA
ATOM     19  N   UNL     1       4.275   3.677  18.266  0.00  0.00    +0.000 N 
ATOM     20  H   UNL     1       4.018   3.209  17.409  0.00  0.00    +0.000 HD
BRANCH  17  21
ATOM     21  O   UNL     1       6.145   4.087  17.127  0.00  0.00    +0.000 OA
BRANCH  21  23
ATOM     22  C   UNL     1       5.123   6.042  16.037  0.00  0.00    +0.000 C 
ATOM     23  C   UNL     1       6.414   5.262  16.318  0.00  0.00    +0.000 C 
ATOM     24  C   UNL     1       7.164   4.888  15.030  0.00  0.00    +0.000 C 
ATOM     25  C   UNL     1       7.336   6.161  17.159  0.00  0.00    +0.000 C 
ENDBRANCH  21  23
ENDBRANCH  17  21
ENDBRANCH  16  19
ENDBRANCH   1  16
TORSDOF 5
ENDMDL
MODEL 6
REMARK VINA RESULT:      -6.9      4.579      8.334
REMARK  Name = 
REMARK  8 active torsions:
REMARK  status: ('A' for Active; 'I' for Inactive)
REMARK    1  A    between atoms: C_1  and  C_2
REMARK    2  A    between atoms: C_2  and  C_3
REMARK    3  A    between atoms: C_2  and  C_4
REMARK    4  A    between atoms: C_2  and  O_5
REMARK    5  A    between atoms: O_5  and  C_6
REMARK    6  A    between atoms: N_8  and  C_9
REMARK    7  A    between atoms: C_9  and  C_10
REMARK    8  A    between atoms: C_14  and  C_16
REMARK                            x       y       z     vdW  Elec       q    Type
REMARK                         _______ _______ _______ _____ _____    ______ ____
ROOT
ATOM      1  C   UNL     1       1.865   4.252  18.910  0.00  0.00    +0.000 C 
ATOM      2  C   UNL     1       1.909   5.355  17.838  0.00  0.00    +0.000 C 
ATOM      3  C   UNL     1       2.669   6.594  18.318  0.00  0.00    +0.000 C 
ATOM      4  N   UNL     1       2.146   7.081  19.599  0.00  0.00    +0.000 N 
ATOM      5  C   UNL     1       1.551   8.348  19.628  0.00  0.00    +0.000 C 
ATOM      6  O   UNL     1       1.417   9.007  18.596  0.00  0.00    +0.000 OA
ATOM      7  C   UNL     1       2.081   6.075  20.661  0.00  0.00    +0.000 C 
ATOM      8  C   UNL     1       1.299   4.845  20.208  0.00  0.00    +0.000 C 
ENDROOT
BRANCH   5   9
ATOM      9  C   UNL     1       1.079   8.882  20.894  0.00  0.00    +0.000 A 
ATOM     10  C   UNL     1      -0.048   9.664  21.103  0.00  0.00    +0.000 A 
ATOM     11  C   UNL     1      -0.155   9.928  22.484  0.00  0.00    +0.000 A 
ATOM     12 CL   UNL     1      -1.407  10.794  23.225  0.00  0.00    +0.000 Cl
ATOM     13  C   UNL     1       0.932   9.351  23.095  0.00  0.00    +0.000 A 
ATOM     14  N   UNL     1       1.717   8.806  22.115  0.00  0.00    +0.000 N 
ATOM     15  H   UNL     1       2.616   8.369  22.268  0.00  0.00    +0.000 HD
ENDBRANCH   5   9
BRANCH   1  16
ATOM     16  C   UNL     1       3.243   3.608  19.156  0.00  0.00    +0.000 C 
BRANCH  16  19
ATOM     17  C   UNL     1       5.197   3.971  17.737  0.00  0.00    +0.000 C 
ATOM     18  O   UNL     1       5.736   4.711  18.544  0.00  0.00    +0.000 OA
ATOM     19  N   UNL     1       3.982   3.389  17.935  0.00  0.00    +0.000 N 
ATOM     20  H   UNL     1       3.646   2.768  17.214  0.00  0.00    +0.000 HD
BRANCH  17  21
ATOM     21  O   UNL     1       5.699   3.600  16.531  0.00  0.00    +0.000 OA
BRANCH  21  23
ATOM     22  C   UNL     1       7.548   5.021  15.747  0.00  0.00    +0.000 C 
ATOM     23  C   UNL     1       6.072   4.635  15.584  0.00  0.00    +0.000 C 
ATOM     24  C   UNL     1       5.134   5.848  15.690  0.00  0.00    +0.000 C 
ATOM     25  C   UNL     1       5.895   4.020  14.185  0.00  0.00    +0.000 C 
ENDBRANCH  21  23
ENDBRANCH  17  21
ENDBRANCH  16  19
ENDBRANCH   1  16
TORSDOF 5
ENDMDL
MODEL 7
REMARK VINA RESULT:      -6.9      0.934      1.417
REMARK  Name = 
REMARK  8 active torsions:
REMARK  status: ('A' for Active; 'I' for Inactive)
REMARK    1  A    between atoms: C_1  and  C_2
REMARK    2  A    between atoms: C_2  and  C_3
REMARK    3  A    between atoms: C_2  and  C_4
REMARK    4  A    between atoms: C_2  and  O_5
REMARK    5  A    between atoms: O_5  and  C_6
REMARK    6  A    between atoms: N_8  and  C_9
REMARK    7  A    between atoms: C_9  and  C_10
REMARK    8  A    between atoms: C_14  and  C_16
REMARK                            x       y       z     vdW  Elec       q    Type
REMARK                         _______ _______ _______ _____ _____    ______ ____
ROOT
ATOM      1  C   UNL     1       5.962   4.973  18.419  0.00  0.00    +0.000 C 
ATOM      2  C   UNL     1       7.188   5.672  17.808  0.00  0.00    +0.000 C 
ATOM      3  C   UNL     1       6.867   6.326  16.461  0.00  0.00    +0.000 C 
ATOM      4  N   UNL     1       6.250   5.371  15.536  0.00  0.00    +0.000 N 
ATOM      5  C   UNL     1       6.948   5.041  14.367  0.00  0.00    +0.000 C 
ATOM      6  O   UNL     1       8.073   5.495  14.155  0.00  0.00    +0.000 OA
ATOM      7  C   UNL     1       5.074   4.673  16.061  0.00  0.00    +0.000 C 
ATOM      8  C   UNL     1       5.389   3.989  17.389  0.00  0.00    +0.000 C 
ENDROOT
BRANCH   5   9
ATOM      9  C   UNL     1       6.335   4.145  13.402  0.00  0.00    +0.000 A 
ATOM     10  C   UNL     1       6.969   3.168  12.649  0.00  0.00    +0.000 A 
ATOM     11  C   UNL     1       5.996   2.506  11.871  0.00  0.00    +0.000 A 
ATOM     12 CL   UNL     1       6.289   1.196  10.839  0.00  0.00    +0.000 Cl
ATOM     13  C   UNL     1       4.792   3.118  12.118  0.00  0.00    +0.000 A 
ATOM     14  N   UNL     1       5.025   4.165  12.968  0.00  0.00    +0.000 N 
ATOM     15  H   UNL     1       4.328   4.832  13.272  0.00  0.00    +0.000 HD
ENDBRANCH   5   9
BRANCH   1  16
ATOM     16  C   UNL     1       4.883   5.968  18.888  0.00  0.00    +0.000 C 
BRANCH  16  19
ATOM     17  C   UNL     1       2.641   5.135  19.384  0.00  0.00    +0.000 C 
ATOM     18  O   UNL     1       2.211   5.422  18.278  0.00  0.00    +0.000 OA
ATOM     19  N   UNL     1       3.922   5.367  19.783  0.00  0.00    +0.000 N 
ATOM     20  H   UNL     1       4.178   5.059  20.710  0.00  0.00    +0.000 HD
BRANCH  17  21
ATOM     21  O   UNL     1       1.940   4.548  20.388  0.00  0.00    +0.000 OA
BRANCH  21  23
ATOM     22  C   UNL     1       0.667   2.739  19.312  0.00  0.00    +0.000 C 
ATOM     23  C   UNL     1       1.736   3.111  20.347  0.00  0.00    +0.000 C 
ATOM     24  C   UNL     1       1.417   2.557  21.744  0.00  0.00    +0.000 C 
ATOM     25  C   UNL     1       3.071   2.500  19.889  0.00  0.00    +0.000 C 
ENDBRANCH  21  23
ENDBRANCH  17  21
ENDBRANCH  16  19
ENDBRANCH   1  16
TORSDOF 5
ENDMDL
MODEL 8
REMARK VINA RESULT:      -6.9      4.694      7.950
REMARK  Name = 
REMARK  8 active torsions:
REMARK  status: ('A' for Active; 'I' for Inactive)
REMARK    1  A    between atoms: C_1  and  C_2
REMARK    2  A    between atoms: C_2  and  C_3
REMARK    3  A    between atoms: C_2  and  C_4
REMARK    4  A    between atoms: C_2  and  O_5
REMARK    5  A    between atoms: O_5  and  C_6
REMARK    6  A    between atoms: N_8  and  C_9
REMARK    7  A    between atoms: C_9  and  C_10
REMARK    8  A    between atoms: C_14  and  C_16
REMARK                            x       y       z     vdW  Elec       q    Type
REMARK                         _______ _______ _______ _____ _____    ______ ____
ROOT
ATOM      1  C   UNL     1       7.534   6.107  17.832  0.00  0.00    +0.000 C 
ATOM      2  C   UNL     1       7.006   5.266  16.657  0.00  0.00    +0.000 C 
ATOM      3  C   UNL     1       5.521   5.522  16.387  0.00  0.00    +0.000 C 
ATOM      4  N   UNL     1       4.718   5.350  17.603  0.00  0.00    +0.000 N 
ATOM      5  C   UNL     1       3.772   4.318  17.626  0.00  0.00    +0.000 C 
ATOM      6  O   UNL     1       3.662   3.541  16.677  0.00  0.00    +0.000 OA
ATOM      7  C   UNL     1       5.172   6.128  18.758  0.00  0.00    +0.000 C 
ATOM      8  C   UNL     1       6.644   5.858  19.058  0.00  0.00    +0.000 C 
ENDROOT
BRANCH   5   9
ATOM      9  C   UNL     1       2.920   4.161  18.792  0.00  0.00    +0.000 A 
ATOM     10  C   UNL     1       2.904   3.093  19.677  0.00  0.00    +0.000 A 
ATOM     11  C   UNL     1       1.955   3.366  20.685  0.00  0.00    +0.000 A 
ATOM     12 CL   UNL     1       1.627   2.378  22.020  0.00  0.00    +0.000 Cl
ATOM     13  C   UNL     1       1.367   4.569  20.376  0.00  0.00    +0.000 A 
ATOM     14  N   UNL     1       1.890   4.991  19.183  0.00  0.00    +0.000 N 
ATOM     15  H   UNL     1       1.595   5.818  18.681  0.00  0.00    +0.000 HD
ENDBRANCH   5   9
BRANCH   1  16
ATOM     16  C   UNL     1       7.607   7.610  17.502  0.00  0.00    +0.000 C 
BRANCH  16  19
ATOM     17  C   UNL     1       8.518   9.699  18.380  0.00  0.00    +0.000 C 
ATOM     18  O   UNL     1       7.882  10.389  17.600  0.00  0.00    +0.000 OA
ATOM     19  N   UNL     1       8.461   8.339  18.409  0.00  0.00    +0.000 N 
ATOM     20  H   UNL     1       9.005   7.871  19.120  0.00  0.00    +0.000 HD
BRANCH  17  21
ATOM     21  O   UNL     1       9.370  10.150  19.337  0.00  0.00    +0.000 OA
BRANCH  21  23
ATOM     22  C   UNL     1       9.096  12.595  19.324  0.00  0.00    +0.000 C 
ATOM     23  C   UNL     1      10.053  11.412  19.122  0.00  0.00    +0.000 C 
ATOM     24  C   UNL     1      10.740  11.444  17.748  0.00  0.00    +0.000 C 
ATOM     25  C   UNL     1      11.146  11.498  20.201  0.00  0.00    +0.000 C 
ENDBRANCH  21  23
ENDBRANCH  17  21
ENDBRANCH  16  19
ENDBRANCH   1  16
TORSDOF 5
ENDMDL
MODEL 9
REMARK VINA RESULT:      -6.7      4.839      8.246
REMARK  Name = 
REMARK  8 active torsions:
REMARK  status: ('A' for Active; 'I' for Inactive)
REMARK    1  A    between atoms: C_1  and  C_2
REMARK    2  A    between atoms: C_2  and  C_3
REMARK    3  A    between atoms: C_2  and  C_4
REMARK    4  A    between atoms: C_2  and  O_5
REMARK    5  A    between atoms: O_5  and  C_6
REMARK    6  A    between atoms: N_8  and  C_9
REMARK    7  A    between atoms: C_9  and  C_10
REMARK    8  A    between atoms: C_14  and  C_16
REMARK                            x       y       z     vdW  Elec       q    Type
REMARK                         _______ _______ _______ _____ _____    ______ ____
ROOT
ATOM      1  C   UNL     1       2.136   4.944  19.495  0.00  0.00    +0.000 C 
ATOM      2  C   UNL     1       2.126   5.666  18.137  0.00  0.00    +0.000 C 
ATOM      3  C   UNL     1       2.752   7.061  18.220  0.00  0.00    +0.000 C 
ATOM      4  N   UNL     1       2.134   7.862  19.282  0.00  0.00    +0.000 N 
ATOM      5  C   UNL     1       1.428   9.013  18.912  0.00  0.00    +0.000 C 
ATOM      6  O   UNL     1       1.280   9.309  17.726  0.00  0.00    +0.000 OA
ATOM      7  C   UNL     1       2.114   7.228  20.602  0.00  0.00    +0.000 C 
ATOM      8  C   UNL     1       1.465   5.848  20.540  0.00  0.00    +0.000 C 
ENDROOT
BRANCH   5   9
ATOM      9  C   UNL     1       0.857   9.859  19.946  0.00  0.00    +0.000 A 
ATOM     10  C   UNL     1      -0.006   9.471  20.961  0.00  0.00    +0.000 A 
ATOM     11  C   UNL     1      -0.282  10.599  21.763  0.00  0.00    +0.000 A 
ATOM     12 CL   UNL     1      -1.239  10.600  23.160  0.00  0.00    +0.000 Cl
ATOM     13  C   UNL     1       0.370  11.669  21.201  0.00  0.00    +0.000 A 
ATOM     14  N   UNL     1       0.974  11.230  20.053  0.00  0.00    +0.000 N 
ATOM     15  H   UNL     1       1.475  11.818  19.400  0.00  0.00    +0.000 HD
ENDBRANCH   5   9
BRANCH   1  16
ATOM     16  C   UNL     1       3.555   4.545  19.946  0.00  0.00    +0.000 C 
BRANCH  16  19
ATOM     17  C   UNL     1       5.698   4.742  18.790  0.00  0.00    +0.000 C 
ATOM     18  O   UNL     1       6.177   5.463  19.651  0.00  0.00    +0.000 OA
ATOM     19  N   UNL     1       4.429   4.249  18.836  0.00  0.00    +0.000 N 
ATOM     20  H   UNL     1       4.147   3.635  18.085  0.00  0.00    +0.000 HD
BRANCH  17  21
ATOM     21  O   UNL     1       6.324   4.311  17.666  0.00  0.00    +0.000 OA
BRANCH  21  23
ATOM     22  C   UNL     1       5.894   6.498  16.626  0.00  0.00    +0.000 C 
ATOM     23  C   UNL     1       6.049   4.987  16.412  0.00  0.00    +0.000 C 
ATOM     24  C   UNL     1       4.833   4.368  15.704  0.00  0.00    +0.000 C 
ATOM     25  C   UNL     1       7.282   4.760  15.521  0.00  0.00    +0.000 C 
ENDBRANCH  21  23
ENDBRANCH  17  21
ENDBRANCH  16  19
ENDBRANCH   1  16
TORSDOF 5
ENDMDL
