MODEL 1
REMARK VINA RESULT:      -7.7      0.000      0.000
REMARK  Name = 
REMARK  8 active torsions:
REMARK  status: ('A' for Active; 'I' for Inactive)
REMARK    1  A    between atoms: C_1  and  C_2
REMARK    2  A    between atoms: C_2  and  C_3
REMARK    3  A    between atoms: C_6  and  C_7
REMARK    4  A    between atoms: C_7  and  N_8
REMARK    5  A    between atoms: C_9  and  C_11
REMARK    6  A    between atoms: N_14  and  C_15
REMARK    7  A    between atoms: C_18  and  C_19
REMARK    8  A    between atoms: C_22  and  C_23
REMARK                            x       y       z     vdW  Elec       q    Type
REMARK                         _______ _______ _______ _____ _____    ______ ____
ROOT
ATOM      1  C   UNL     1       2.055   3.721  19.536  0.00  0.00    +0.000 A 
ATOM      2  N   UNL     1       1.808   5.033  19.207  0.00  0.00    +0.000 N 
ATOM      3  C   UNL     1       2.891   5.583  18.550  0.00  0.00    +0.000 A 
ATOM      4  C   UNL     1       3.079   6.883  18.026  0.00  0.00    +0.000 A 
ATOM      5  C   UNL     1       4.329   7.131  17.419  0.00  0.00    +0.000 A 
ATOM      6  C   UNL     1       5.321   6.151  17.314  0.00  0.00    +0.000 A 
ATOM      7  C   UNL     1       6.632   6.437  16.644  0.00  0.00    +0.000 C 
ATOM      8  C   UNL     1       5.084   4.873  17.838  0.00  0.00    +0.000 A 
ATOM      9  C   UNL     1       3.857   4.582  18.466  0.00  0.00    +0.000 A 
ATOM     10  C   UNL     1       3.326   3.405  19.087  0.00  0.00    +0.000 A 
ATOM     11  C   UNL     1       4.005   2.089  19.233  0.00  0.00    +0.000 C 
ATOM     12  H   UNL     1       0.966   5.550  19.440  0.00  0.00    +0.000 HD
ENDROOT
BRANCH   1  14
ATOM     13  C   UNL     1       1.434   2.650  21.709  0.00  0.00    +0.000 C 
ATOM     14  C   UNL     1       1.054   2.874  20.254  0.00  0.00    +0.000 C 
ENDBRANCH   1  14
BRANCH   4  15
ATOM     15  C   UNL     1       2.032   7.967  18.069  0.00  0.00    +0.000 C 
BRANCH  15  16
ATOM     16  N   UNL     1       1.905   8.568  19.379  0.00  0.00    +0.000 N 
ATOM     17  C   UNL     1       0.979   9.552  19.639  0.00  0.00    +0.000 C 
ATOM     18  O   UNL     1       0.227   9.993  18.767  0.00  0.00    +0.000 OA
ATOM     19  H   UNL     1       2.460   8.188  20.134  0.00  0.00    +0.000 HD
BRANCH  17  20
ATOM     20  C   UNL     1       1.033  10.109  21.055  0.00  0.00    +0.000 C 
ATOM     21  C   UNL     1       0.898   9.046  22.150  0.00  0.00    +0.000 C 
ATOM     22  C   UNL     1      -0.321   9.462  22.962  0.00  0.00    +0.000 C 
ATOM     23  N   UNL     1      -0.371  10.910  22.763  0.00  0.00    +0.000 NA
ATOM     24  C   UNL     1      -1.662  11.469  23.149  0.00  0.00    +0.000 C 
ATOM     25  C   UNL     1      -0.102  11.093  21.331  0.00  0.00    +0.000 C 
ENDBRANCH  17  20
ENDBRANCH  15  16
ENDBRANCH   4  15
TORSDOF 4
ENDMDL
MODEL 2
REMARK VINA RESULT:      -7.6      2.898      6.885
REMARK  Name = 
REMARK  8 active torsions:
REMARK  status: ('A' for Active; 'I' for Inactive)
REMARK    1  A    between atoms: C_1  and  C_2
REMARK    2  A    between atoms: C_2  and  C_3
REMARK    3  A    between atoms: C_6  and  C_7
REMARK    4  A    between atoms: C_7  and  N_8
REMARK    5  A    between atoms: C_9  and  C_11
REMARK    6  A    between atoms: N_14  and  C_15
REMARK    7  A    between atoms: C_18  and  C_19
REMARK    8  A    between atoms: C_22  and  C_23
REMARK                            x       y       z     vdW  Elec       q    Type
REMARK                         _______ _______ _______ _____ _____    ______ ____
ROOT
ATOM      1  C   UNL     1       2.192   7.816  18.901  0.00  0.00    +0.000 A 
ATOM      2  N   UNL     1       2.642   6.734  18.180  0.00  0.00    +0.000 N 
ATOM      3  C   UNL     1       2.454   5.565  18.890  0.00  0.00    +0.000 A 
ATOM      4  C   UNL     1       2.756   4.227  18.543  0.00  0.00    +0.000 A 
ATOM      5  C   UNL     1       2.450   3.251  19.516  0.00  0.00    +0.000 A 
ATOM      6  C   UNL     1       1.861   3.573  20.743  0.00  0.00    +0.000 A 
ATOM      7  C   UNL     1       1.526   2.512  21.749  0.00  0.00    +0.000 C 
ATOM      8  C   UNL     1       1.569   4.912  21.037  0.00  0.00    +0.000 A 
ATOM      9  C   UNL     1       1.870   5.923  20.103  0.00  0.00    +0.000 A 
ATOM     10  C   UNL     1       1.702   7.346  20.107  0.00  0.00    +0.000 A 
ATOM     11  C   UNL     1       1.118   8.172  21.198  0.00  0.00    +0.000 C 
ATOM     12  H   UNL     1       3.085   6.778  17.268  0.00  0.00    +0.000 HD
ENDROOT
BRANCH   1  14
ATOM     13  C   UNL     1       0.905   9.735  17.943  0.00  0.00    +0.000 C 
ATOM     14  C   UNL     1       2.266   9.214  18.376  0.00  0.00    +0.000 C 
ENDBRANCH   1  14
BRANCH   4  15
ATOM     15  C   UNL     1       3.350   3.813  17.220  0.00  0.00    +0.000 C 
BRANCH  15  16
ATOM     16  N   UNL     1       4.609   4.472  16.944  0.00  0.00    +0.000 N 
ATOM     17  C   UNL     1       5.687   4.359  17.791  0.00  0.00    +0.000 C 
ATOM     18  O   UNL     1       5.633   3.715  18.840  0.00  0.00    +0.000 OA
ATOM     19  H   UNL     1       4.711   4.956  16.062  0.00  0.00    +0.000 HD
BRANCH  17  20
ATOM     20  C   UNL     1       6.905   5.171  17.371  0.00  0.00    +0.000 C 
ATOM     21  C   UNL     1       7.984   5.283  18.453  0.00  0.00    +0.000 C 
ATOM     22  C   UNL     1       8.152   6.777  18.694  0.00  0.00    +0.000 C 
ATOM     23  N   UNL     1       7.748   7.366  17.418  0.00  0.00    +0.000 NA
ATOM     24  C   UNL     1       7.484   8.795  17.537  0.00  0.00    +0.000 C 
ATOM     25  C   UNL     1       6.545   6.617  17.033  0.00  0.00    +0.000 C 
ENDBRANCH  17  20
ENDBRANCH  15  16
ENDBRANCH   4  15
TORSDOF 4
ENDMDL
MODEL 3
REMARK VINA RESULT:      -7.5      1.647      2.169
REMARK  Name = 
REMARK  8 active torsions:
REMARK  status: ('A' for Active; 'I' for Inactive)
REMARK    1  A    between atoms: C_1  and  C_2
REMARK    2  A    between atoms: C_2  and  C_3
REMARK    3  A    between atoms: C_6  and  C_7
REMARK    4  A    between atoms: C_7  and  N_8
REMARK    5  A    between atoms: C_9  and  C_11
REMARK    6  A    between atoms: N_14  and  C_15
REMARK    7  A    between atoms: C_18  and  C_19
REMARK    8  A    between atoms: C_22  and  C_23
REMARK                            x       y       z     vdW  Elec       q    Type
REMARK                         _______ _______ _______ _____ _____    ______ ____
ROOT
ATOM      1  C   UNL     1       2.072   4.115  19.269  0.00  0.00    +0.000 A 
ATOM      2  N   UNL     1       2.425   5.413  18.984  0.00  0.00    +0.000 N 
ATOM      3  C   UNL     1       3.352   5.452  17.961  0.00  0.00    +0.000 A 
ATOM      4  C   UNL     1       3.983   6.555  17.340  0.00  0.00    +0.000 A 
ATOM      5  C   UNL     1       4.909   6.246  16.321  0.00  0.00    +0.000 A 
ATOM      6  C   UNL     1       5.176   4.932  15.922  0.00  0.00    +0.000 A 
ATOM      7  C   UNL     1       6.149   4.634  14.820  0.00  0.00    +0.000 C 
ATOM      8  C   UNL     1       4.516   3.872  16.558  0.00  0.00    +0.000 A 
ATOM      9  C   UNL     1       3.595   4.130  17.592  0.00  0.00    +0.000 A 
ATOM     10  C   UNL     1       2.783   3.286  18.418  0.00  0.00    +0.000 A 
ATOM     11  C   UNL     1       2.714   1.801  18.380  0.00  0.00    +0.000 C 
ATOM     12  H   UNL     1       2.087   6.236  19.472  0.00  0.00    +0.000 HD
ENDROOT
BRANCH   1  14
ATOM     13  C   UNL     1       1.750   3.188  21.570  0.00  0.00    +0.000 C 
ATOM     14  C   UNL     1       1.081   3.771  20.335  0.00  0.00    +0.000 C 
ENDBRANCH   1  14
BRANCH   4  15
ATOM     15  C   UNL     1       3.704   7.994  17.695  0.00  0.00    +0.000 C 
BRANCH  15  16
ATOM     16  N   UNL     1       2.351   8.200  18.165  0.00  0.00    +0.000 N 
ATOM     17  C   UNL     1       1.723   9.419  18.055  0.00  0.00    +0.000 C 
ATOM     18  O   UNL     1       2.283  10.405  17.574  0.00  0.00    +0.000 OA
ATOM     19  H   UNL     1       1.837   7.399  18.506  0.00  0.00    +0.000 HD
BRANCH  17  20
ATOM     20  C   UNL     1       0.326   9.465  18.660  0.00  0.00    +0.000 C 
ATOM     21  C   UNL     1      -0.731  10.091  17.745  0.00  0.00    +0.000 C 
ATOM     22  C   UNL     1      -1.294  11.267  18.532  0.00  0.00    +0.000 C 
ATOM     23  N   UNL     1      -1.078  10.867  19.923  0.00  0.00    +0.000 NA
ATOM     24  C   UNL     1      -1.208  11.993  20.840  0.00  0.00    +0.000 C 
ATOM     25  C   UNL     1       0.279  10.304  19.936  0.00  0.00    +0.000 C 
ENDBRANCH  17  20
ENDBRANCH  15  16
ENDBRANCH   4  15
TORSDOF 4
ENDMDL
MODEL 4
REMARK VINA RESULT:      -7.4      1.307      3.733
REMARK  Name = 
REMARK  8 active torsions:
REMARK  status: ('A' for Active; 'I' for Inactive)
REMARK    1  A    between atoms: C_1  and  C_2
REMARK    2  A    between atoms: C_2  and  C_3
REMARK    3  A    between atoms: C_6  and  C_7
REMARK    4  A    between atoms: C_7  and  N_8
REMARK    5  A    between atoms: C_9  and  C_11
REMARK    6  A    between atoms: N_14  and  C_15
REMARK    7  A    between atoms: C_18  and  C_19
REMARK    8  A    between atoms: C_22  and  C_23
REMARK                            x       y       z     vdW  Elec       q    Type
REMARK                         _______ _______ _______ _____ _____    ______ ____
ROOT
ATOM      1  C   UNL     1       6.398   6.782  17.332  0.00  0.00    +0.000 A 
ATOM      2  N   UNL     1       5.147   7.338  17.471  0.00  0.00    +0.000 N 
ATOM      3  C   UNL     1       4.219   6.370  17.800  0.00  0.00    +0.000 A 
ATOM      4  C   UNL     1       2.830   6.481  18.044  0.00  0.00    +0.000 A 
ATOM      5  C   UNL     1       2.156   5.278  18.344  0.00  0.00    +0.000 A 
ATOM      6  C   UNL     1       2.815   4.047  18.422  0.00  0.00    +0.000 A 
ATOM      7  C   UNL     1       2.076   2.787  18.765  0.00  0.00    +0.000 C 
ATOM      8  C   UNL     1       4.195   3.988  18.184  0.00  0.00    +0.000 A 
ATOM      9  C   UNL     1       4.908   5.161  17.866  0.00  0.00    +0.000 A 
ATOM     10  C   UNL     1       6.286   5.423  17.574  0.00  0.00    +0.000 A 
ATOM     11  C   UNL     1       7.394   4.431  17.528  0.00  0.00    +0.000 C 
ATOM     12  H   UNL     1       4.917   8.314  17.320  0.00  0.00    +0.000 HD
ENDROOT
BRANCH   1  14
ATOM     13  C   UNL     1       8.092   8.428  18.155  0.00  0.00    +0.000 C 
ATOM     14  C   UNL     1       7.601   7.597  16.980  0.00  0.00    +0.000 C 
ENDBRANCH   1  14
BRANCH   4  15
ATOM     15  C   UNL     1       2.073   7.785  18.019  0.00  0.00    +0.000 C 
BRANCH  15  16
ATOM     16  N   UNL     1       1.958   8.389  19.328  0.00  0.00    +0.000 N 
ATOM     17  C   UNL     1       1.134   9.466  19.560  0.00  0.00    +0.000 C 
ATOM     18  O   UNL     1       0.469   9.990  18.664  0.00  0.00    +0.000 OA
ATOM     19  H   UNL     1       2.438   7.948  20.101  0.00  0.00    +0.000 HD
BRANCH  17  20
ATOM     20  C   UNL     1       1.190  10.007  20.982  0.00  0.00    +0.000 C 
ATOM     21  C   UNL     1       1.046   8.933  22.065  0.00  0.00    +0.000 C 
ATOM     22  C   UNL     1      -0.170   9.349  22.880  0.00  0.00    +0.000 C 
ATOM     23  N   UNL     1      -0.211  10.800  22.697  0.00  0.00    +0.000 NA
ATOM     24  C   UNL     1      -1.498  11.362  23.089  0.00  0.00    +0.000 C 
ATOM     25  C   UNL     1       0.060  10.996  21.267  0.00  0.00    +0.000 C 
ENDBRANCH  17  20
ENDBRANCH  15  16
ENDBRANCH   4  15
TORSDOF 4
ENDMDL
MODEL 5
REMARK VINA RESULT:      -7.4      2.841      6.017
REMARK  Name = 
REMARK  8 active torsions:
REMARK  status: ('A' for Active; 'I' for Inactive)
REMARK    1  A    between atoms: C_1  and  C_2
REMARK    2  A    between atoms: C_2  and  C_3
REMARK    3  A    between atoms: C_6  and  C_7
REMARK    4  A    between atoms: C_7  and  N_8
REMARK    5  A    between atoms: C_9  and  C_11
REMARK    6  A    between atoms: N_14  and  C_15
REMARK    7  A    between atoms: C_18  and  C_19
REMARK    8  A    between atoms: C_22  and  C_23
REMARK                            x       y       z     vdW  Elec       q    Type
REMARK                         _______ _______ _______ _____ _____    ______ ____
ROOT
ATOM      1  C   UNL     1       2.329   3.268  19.265  0.00  0.00    +0.000 A 
ATOM      2  N   UNL     1       2.638   4.320  18.434  0.00  0.00    +0.000 N 
ATOM      3  C   UNL     1       2.345   5.524  19.044  0.00  0.00    +0.000 A 
ATOM      4  C   UNL     1       2.503   6.849  18.574  0.00  0.00    +0.000 A 
ATOM      5  C   UNL     1       2.083   7.871  19.452  0.00  0.00    +0.000 A 
ATOM      6  C   UNL     1       1.563   7.604  20.722  0.00  0.00    +0.000 A 
ATOM      7  C   UNL     1       1.145   8.713  21.643  0.00  0.00    +0.000 C 
ATOM      8  C   UNL     1       1.436   6.275  21.149  0.00  0.00    +0.000 A 
ATOM      9  C   UNL     1       1.828   5.220  20.302  0.00  0.00    +0.000 A 
ATOM     10  C   UNL     1       1.822   3.794  20.442  0.00  0.00    +0.000 A 
ATOM     11  C   UNL     1       1.355   3.015  21.620  0.00  0.00    +0.000 C 
ATOM     12  H   UNL     1       2.997   4.237  17.489  0.00  0.00    +0.000 HD
ENDROOT
BRANCH   1  14
ATOM     13  C   UNL     1       3.696   1.693  17.885  0.00  0.00    +0.000 C 
ATOM     14  C   UNL     1       2.544   1.844  18.867  0.00  0.00    +0.000 C 
ENDBRANCH   1  14
BRANCH   4  15
ATOM     15  C   UNL     1       3.098   7.201  17.234  0.00  0.00    +0.000 C 
BRANCH  15  16
ATOM     16  N   UNL     1       4.544   7.230  17.256  0.00  0.00    +0.000 N 
ATOM     17  C   UNL     1       5.297   6.164  16.818  0.00  0.00    +0.000 C 
ATOM     18  O   UNL     1       4.784   5.122  16.407  0.00  0.00    +0.000 OA
ATOM     19  H   UNL     1       5.000   8.091  17.525  0.00  0.00    +0.000 HD
BRANCH  17  20
ATOM     20  C   UNL     1       6.800   6.349  16.974  0.00  0.00    +0.000 C 
ATOM     21  C   UNL     1       7.406   5.573  18.148  0.00  0.00    +0.000 C 
ATOM     22  C   UNL     1       8.060   6.629  19.029  0.00  0.00    +0.000 C 
ATOM     23  N   UNL     1       8.374   7.700  18.084  0.00  0.00    +0.000 NA
ATOM     24  C   UNL     1       8.674   8.956  18.762  0.00  0.00    +0.000 C 
ATOM     25  C   UNL     1       7.177   7.806  17.239  0.00  0.00    +0.000 C 
ENDBRANCH  17  20
ENDBRANCH  15  16
ENDBRANCH   4  15
TORSDOF 4
ENDMDL
MODEL 6
REMARK VINA RESULT:      -7.3      3.005      7.011
REMARK  Name = 
REMARK  8 active torsions:
REMARK  status: ('A' for Active; 'I' for Inactive)
REMARK    1  A    between atoms: C_1  and  C_2
REMARK    2  A    between atoms: C_2  and  C_3
REMARK    3  A    between atoms: C_6  and  C_7
REMARK    4  A    between atoms: C_7  and  N_8
REMARK    5  A    between atoms: C_9  and  C_11
REMARK    6  A    between atoms: N_14  and  C_15
REMARK    7  A    between atoms: C_18  and  C_19
REMARK    8  A    between atoms: C_22  and  C_23
REMARK                            x       y       z     vdW  Elec       q    Type
REMARK                         _______ _______ _______ _____ _____    ______ ____
ROOT
ATOM      1  C   UNL     1       2.549   7.078  18.895  0.00  0.00    +0.000 A 
ATOM      2  N   UNL     1       3.115   5.918  18.418  0.00  0.00    +0.000 N 
ATOM      3  C   UNL     1       2.769   4.844  19.216  0.00  0.00    +0.000 A 
ATOM      4  C   UNL     1       3.111   3.476  19.104  0.00  0.00    +0.000 A 
ATOM      5  C   UNL     1       2.600   2.627  20.110  0.00  0.00    +0.000 A 
ATOM      6  C   UNL     1       1.785   3.094  21.145  0.00  0.00    +0.000 A 
ATOM      7  C   UNL     1       1.238   2.165  22.188  0.00  0.00    +0.000 C 
ATOM      8  C   UNL     1       1.463   4.457  21.207  0.00  0.00    +0.000 A 
ATOM      9  C   UNL     1       1.962   5.346  20.234  0.00  0.00    +0.000 A 
ATOM     10  C   UNL     1       1.821   6.757  20.029  0.00  0.00    +0.000 A 
ATOM     11  C   UNL     1       1.047   7.709  20.870  0.00  0.00    +0.000 C 
ATOM     12  H   UNL     1       3.731   5.851  17.615  0.00  0.00    +0.000 HD
ENDROOT
BRANCH   1  14
ATOM     13  C   UNL     1       1.452   8.963  17.672  0.00  0.00    +0.000 C 
ATOM     14  C   UNL     1       2.751   8.400  18.228  0.00  0.00    +0.000 C 
ENDBRANCH   1  14
BRANCH   4  15
ATOM     15  C   UNL     1       3.948   2.905  17.988  0.00  0.00    +0.000 C 
BRANCH  15  16
ATOM     16  N   UNL     1       5.178   3.640  17.782  0.00  0.00    +0.000 N 
ATOM     17  C   UNL     1       5.376   4.425  16.670  0.00  0.00    +0.000 C 
ATOM     18  O   UNL     1       4.531   4.526  15.778  0.00  0.00    +0.000 OA
ATOM     19  H   UNL     1       5.867   3.633  18.522  0.00  0.00    +0.000 HD
BRANCH  17  20
ATOM     20  C   UNL     1       6.752   5.071  16.592  0.00  0.00    +0.000 C 
ATOM     21  C   UNL     1       7.646   4.784  17.804  0.00  0.00    +0.000 C 
ATOM     22  C   UNL     1       7.993   6.151  18.376  0.00  0.00    +0.000 C 
ATOM     23  N   UNL     1       7.893   7.032  17.213  0.00  0.00    +0.000 NA
ATOM     24  C   UNL     1       7.828   8.437  17.598  0.00  0.00    +0.000 C 
ATOM     25  C   UNL     1       6.671   6.595  16.526  0.00  0.00    +0.000 C 
ENDBRANCH  17  20
ENDBRANCH  15  16
ENDBRANCH   4  15
TORSDOF 4
ENDMDL
MODEL 7
REMARK VINA RESULT:      -7.3      3.666      6.437
REMARK  Name = 
REMARK  8 active torsions:
REMARK  status: ('A' for Active; 'I' for Inactive)
REMARK    1  A    between atoms: C_1  and  C_2
REMARK    2  A    between atoms: C_2  and  C_3
REMARK    3  A    between atoms: C_6  and  C_7
REMARK    4  A    between atoms: C_7  and  N_8
REMARK    5  A    between atoms: C_9  and  C_11
REMARK    6  A    between atoms: N_14  and  C_15
REMARK    7  A    between atoms: C_18  and  C_19
REMARK    8  A    between atoms: C_22  and  C_23
REMARK                            x       y       z     vdW  Elec       q    Type
REMARK                         _______ _______ _______ _____ _____    ______ ____
ROOT
ATOM      1  C   UNL     1       6.257   3.715  13.162  0.00  0.00    +0.000 A 
ATOM      2  N   UNL     1       5.559   3.290  14.268  0.00  0.00    +0.000 N 
ATOM      3  C   UNL     1       5.940   4.002  15.389  0.00  0.00    +0.000 A 
ATOM      4  C   UNL     1       5.490   3.912  16.726  0.00  0.00    +0.000 A 
ATOM      5  C   UNL     1       6.106   4.786  17.647  0.00  0.00    +0.000 A 
ATOM      6  C   UNL     1       7.087   5.707  17.268  0.00  0.00    +0.000 A 
ATOM      7  C   UNL     1       7.709   6.640  18.265  0.00  0.00    +0.000 C 
ATOM      8  C   UNL     1       7.493   5.768  15.927  0.00  0.00    +0.000 A 
ATOM      9  C   UNL     1       6.917   4.906  14.974  0.00  0.00    +0.000 A 
ATOM     10  C   UNL     1       7.114   4.726  13.566  0.00  0.00    +0.000 A 
ATOM     11  C   UNL     1       8.061   5.472  12.695  0.00  0.00    +0.000 C 
ATOM     12  H   UNL     1       4.882   2.534  14.282  0.00  0.00    +0.000 HD
ENDROOT
BRANCH   1  14
ATOM     13  C   UNL     1       4.577   3.083  11.421  0.00  0.00    +0.000 C 
ATOM     14  C   UNL     1       6.048   3.121  11.807  0.00  0.00    +0.000 C 
ENDBRANCH   1  14
BRANCH   4  15
ATOM     15  C   UNL     1       4.405   2.971  17.188  0.00  0.00    +0.000 C 
BRANCH  15  16
ATOM     16  N   UNL     1       3.683   3.473  18.336  0.00  0.00    +0.000 N 
ATOM     17  C   UNL     1       3.692   2.813  19.543  0.00  0.00    +0.000 C 
ATOM     18  O   UNL     1       4.292   1.749  19.706  0.00  0.00    +0.000 OA
ATOM     19  H   UNL     1       3.233   4.375  18.260  0.00  0.00    +0.000 HD
BRANCH  17  20
ATOM     20  C   UNL     1       2.825   3.455  20.618  0.00  0.00    +0.000 C 
ATOM     21  C   UNL     1       1.328   3.165  20.469  0.00  0.00    +0.000 C 
ATOM     22  C   UNL     1       0.668   4.531  20.345  0.00  0.00    +0.000 C 
ATOM     23  N   UNL     1       1.596   5.413  21.052  0.00  0.00    +0.000 NA
ATOM     24  C   UNL     1       1.351   6.818  20.749  0.00  0.00    +0.000 C 
ATOM     25  C   UNL     1       2.926   4.980  20.605  0.00  0.00    +0.000 C 
ENDBRANCH  17  20
ENDBRANCH  15  16
ENDBRANCH   4  15
TORSDOF 4
ENDMDL
MODEL 8
REMARK VINA RESULT:      -7.3      2.021      4.180
REMARK  Name = 
REMARK  8 active torsions:
REMARK  status: ('A' for Active; 'I' for Inactive)
REMARK    1  A    between atoms: C_1  and  C_2
REMARK    2  A    between atoms: C_2  and  C_3
REMARK    3  A    between atoms: C_6  and  C_7
REMARK    4  A    between atoms: C_7  and  N_8
REMARK    5  A    between atoms: C_9  and  C_11
REMARK    6  A    between atoms: N_14  and  C_15
REMARK    7  A    between atoms: C_18  and  C_19
REMARK    8  A    between atoms: C_22  and  C_23
REMARK                            x       y       z     vdW  Elec       q    Type
REMARK                         _______ _______ _______ _____ _____    ______ ____
ROOT
ATOM      1  C   UNL     1       5.191   6.030  17.222  0.00  0.00    +0.000 A 
ATOM      2  N   UNL     1       4.398   6.464  18.259  0.00  0.00    +0.000 N 
ATOM      3  C   UNL     1       3.400   5.546  18.527  0.00  0.00    +0.000 A 
ATOM      4  C   UNL     1       2.374   5.570  19.499  0.00  0.00    +0.000 A 
ATOM      5  C   UNL     1       1.493   4.467  19.496  0.00  0.00    +0.000 A 
ATOM      6  C   UNL     1       1.632   3.397  18.606  0.00  0.00    +0.000 A 
ATOM      7  C   UNL     1       0.694   2.227  18.640  0.00  0.00    +0.000 C 
ATOM      8  C   UNL     1       2.673   3.413  17.667  0.00  0.00    +0.000 A 
ATOM      9  C   UNL     1       3.568   4.499  17.622  0.00  0.00    +0.000 A 
ATOM     10  C   UNL     1       4.702   4.805  16.801  0.00  0.00    +0.000 A 
ATOM     11  C   UNL     1       5.254   3.974  15.697  0.00  0.00    +0.000 C 
ATOM     12  H   UNL     1       4.497   7.349  18.746  0.00  0.00    +0.000 HD
ENDROOT
BRANCH   1  14
ATOM     13  C   UNL     1       7.457   6.941  17.758  0.00  0.00    +0.000 C 
ATOM     14  C   UNL     1       6.353   6.823  16.718  0.00  0.00    +0.000 C 
ENDBRANCH   1  14
BRANCH   4  15
ATOM     15  C   UNL     1       2.199   6.672  20.513  0.00  0.00    +0.000 C 
BRANCH  15  16
ATOM     16  N   UNL     1       1.667   7.886  19.932  0.00  0.00    +0.000 N 
ATOM     17  C   UNL     1       1.109   8.876  20.706  0.00  0.00    +0.000 C 
ATOM     18  O   UNL     1       1.008   8.774  21.930  0.00  0.00    +0.000 OA
ATOM     19  H   UNL     1       1.790   8.033  18.939  0.00  0.00    +0.000 HD
BRANCH  17  20
ATOM     20  C   UNL     1       0.545  10.049  19.917  0.00  0.00    +0.000 C 
ATOM     21  C   UNL     1       1.210  10.262  18.553  0.00  0.00    +0.000 C 
ATOM     22  C   UNL     1       1.765  11.679  18.596  0.00  0.00    +0.000 C 
ATOM     23  N   UNL     1       0.889  12.348  19.556  0.00  0.00    +0.000 NA
ATOM     24  C   UNL     1       1.455  13.608  20.025  0.00  0.00    +0.000 C 
ATOM     25  C   UNL     1       0.732  11.378  20.648  0.00  0.00    +0.000 C 
ENDBRANCH  17  20
ENDBRANCH  15  16
ENDBRANCH   4  15
TORSDOF 4
ENDMDL
MODEL 9
REMARK VINA RESULT:      -7.3      2.074      4.221
REMARK  Name = 
REMARK  8 active torsions:
REMARK  status: ('A' for Active; 'I' for Inactive)
REMARK    1  A    between atoms: C_1  and  C_2
REMARK    2  A    between atoms: C_2  and  C_3
REMARK    3  A    between atoms: C_6  and  C_7
REMARK    4  A    between atoms: C_7  and  N_8
REMARK    5  A    between atoms: C_9  and  C_11
REMARK    6  A    between atoms: N_14  and  C_15
REMARK    7  A    between atoms: C_18  and  C_19
REMARK    8  A    between atoms: C_22  and  C_23
REMARK                            x       y       z     vdW  Elec       q    Type
REMARK                         _______ _______ _______ _____ _____    ______ ____
ROOT
ATOM      1  C   UNL     1       5.165   6.064  17.244  0.00  0.00    +0.000 A 
ATOM      2  N   UNL     1       4.348   6.500  18.262  0.00  0.00    +0.000 N 
ATOM      3  C   UNL     1       3.363   5.569  18.528  0.00  0.00    +0.000 A 
ATOM      4  C   UNL     1       2.321   5.589  19.483  0.00  0.00    +0.000 A 
ATOM      5  C   UNL     1       1.460   4.470  19.484  0.00  0.00    +0.000 A 
ATOM      6  C   UNL     1       1.632   3.390  18.613  0.00  0.00    +0.000 A 
ATOM      7  C   UNL     1       0.714   2.203  18.652  0.00  0.00    +0.000 C 
ATOM      8  C   UNL     1       2.688   3.409  17.691  0.00  0.00    +0.000 A 
ATOM      9  C   UNL     1       3.564   4.511  17.643  0.00  0.00    +0.000 A 
ATOM     10  C   UNL     1       4.705   4.824  16.835  0.00  0.00    +0.000 A 
ATOM     11  C   UNL     1       5.290   3.986  15.754  0.00  0.00    +0.000 C 
ATOM     12  H   UNL     1       4.424   7.394  18.736  0.00  0.00    +0.000 HD
ENDROOT
BRANCH   1  14
ATOM     13  C   UNL     1       7.473   6.892  17.741  0.00  0.00    +0.000 C 
ATOM     14  C   UNL     1       6.322   6.870  16.746  0.00  0.00    +0.000 C 
ENDBRANCH   1  14
BRANCH   4  15
ATOM     15  C   UNL     1       2.111   6.704  20.477  0.00  0.00    +0.000 C 
BRANCH  15  16
ATOM     16  N   UNL     1       1.696   7.940  19.849  0.00  0.00    +0.000 N 
ATOM     17  C   UNL     1       1.245   9.011  20.585  0.00  0.00    +0.000 C 
ATOM     18  O   UNL     1       1.145   8.969  21.812  0.00  0.00    +0.000 OA
ATOM     19  H   UNL     1       1.824   8.034  18.850  0.00  0.00    +0.000 HD
BRANCH  17  20
ATOM     20  C   UNL     1       0.793  10.202  19.750  0.00  0.00    +0.000 C 
ATOM     21  C   UNL     1      -0.261  11.079  20.433  0.00  0.00    +0.000 C 
ATOM     22  C   UNL     1      -1.457  11.071  19.491  0.00  0.00    +0.000 C 
ATOM     23  N   UNL     1      -0.848  10.825  18.185  0.00  0.00    +0.000 NA
ATOM     24  C   UNL     1      -1.834  10.417  17.191  0.00  0.00    +0.000 C 
ATOM     25  C   UNL     1       0.144   9.772  18.435  0.00  0.00    +0.000 C 
ENDBRANCH  17  20
ENDBRANCH  15  16
ENDBRANCH   4  15
TORSDOF 4
ENDMDL
