MODEL 1
REMARK VINA RESULT:      -7.5      0.000      0.000
REMARK  Name = 
REMARK  12 active torsions:
REMARK  status: ('A' for Active; 'I' for Inactive)
REMARK    1  A    between atoms: C_1  and  C_2
REMARK    2  A    between atoms: C_2  and  C_3
REMARK    3  A    between atoms: C_3  and  C_4
REMARK    4  A    between atoms: C_4  and  C_5
REMARK    5  A    between atoms: C_4  and  C_6
REMARK    6  A    between atoms: C_4  and  C_7
REMARK    7  A    between atoms: C_10  and  C_11
REMARK    8  A    between atoms: C_13  and  C_14
REMARK    9  A    between atoms: C_17  and  C_18
REMARK   10  A    between atoms: C_18  and  C_19
REMARK   11  A    between atoms: C_18  and  C_20
REMARK   12  A    between atoms: C_21  and  O_22
REMARK                            x       y       z     vdW  Elec       q    Type
REMARK                         _______ _______ _______ _____ _____    ______ ____
ROOT
ATOM      1  C   UNL     1       0.810   9.798  19.251  0.00  0.00    +0.000 A 
ATOM      2  C   UNL     1       1.261   9.491  17.962  0.00  0.00    +0.000 A 
ATOM      3  C   UNL     1       2.093   8.391  17.719  0.00  0.00    +0.000 A 
ATOM      4  C   UNL     1       2.429   7.460  18.710  0.00  0.00    +0.000 A 
ATOM      5  C   UNL     1       1.872   7.727  19.984  0.00  0.00    +0.000 A 
ATOM      6  C   UNL     1       1.117   8.880  20.259  0.00  0.00    +0.000 A 
ENDROOT
BRANCH   4   7
ATOM      7  C   UNL     1       3.398   6.342  18.444  0.00  0.00    +0.000 A 
ATOM      8  C   UNL     1       4.662   6.729  17.905  0.00  0.00    +0.000 A 
ATOM      9  C   UNL     1       5.707   5.837  17.652  0.00  0.00    +0.000 A 
ATOM     10  C   UNL     1       7.038   6.311  17.150  0.00  0.00    +0.000 C 
ATOM     11  C   UNL     1       5.481   4.490  17.869  0.00  0.00    +0.000 A 
ATOM     12  C   UNL     1       4.241   4.057  18.337  0.00  0.00    +0.000 A 
ATOM     13  C   UNL     1       3.172   4.939  18.634  0.00  0.00    +0.000 A 
BRANCH  13  14
ATOM     14  C   UNL     1       1.823   4.309  19.041  0.00  0.00    +0.000 C 
ATOM     15  C   UNL     1       1.213   3.301  18.040  0.00  0.00    +0.000 C 
ATOM     16  C   UNL     1       1.811   3.633  20.415  0.00  0.00    +0.000 C 
ENDBRANCH  13  14
ENDBRANCH   4   7
BRANCH   1  17
ATOM     17  C   UNL     1       0.105  11.138  19.512  0.00  0.00    +0.000 C 
ATOM     18  C   UNL     1       0.670  12.311  18.682  0.00  0.00    +0.000 C 
ATOM     19  C   UNL     1       0.284  11.517  21.001  0.00  0.00    +0.000 C 
BRANCH  17  20
ATOM     20  C   UNL     1      -1.425  10.994  19.211  0.00  0.00    +0.000 C 
BRANCH  20  22
ATOM     21  C   UNL     1      -2.232  10.147  16.969  0.00  0.00    +0.000 C 
ATOM     22  C   UNL     1      -1.841  11.372  17.780  0.00  0.00    +0.000 C 
ENDBRANCH  20  22
ENDBRANCH  17  20
ENDBRANCH   1  17
BRANCH   5  23
ATOM     23  O   UNL     1       2.031   6.901  21.073  0.00  0.00    +0.000 OA
ATOM     24  H   UNL     1       2.836   7.176  21.543  0.00  0.00    +0.000 HD
ENDBRANCH   5  23
TORSDOF 6
ENDMDL
MODEL 2
REMARK VINA RESULT:      -7.5      1.711      7.024
REMARK  Name = 
REMARK  12 active torsions:
REMARK  status: ('A' for Active; 'I' for Inactive)
REMARK    1  A    between atoms: C_1  and  C_2
REMARK    2  A    between atoms: C_2  and  C_3
REMARK    3  A    between atoms: C_3  and  C_4
REMARK    4  A    between atoms: C_4  and  C_5
REMARK    5  A    between atoms: C_4  and  C_6
REMARK    6  A    between atoms: C_4  and  C_7
REMARK    7  A    between atoms: C_10  and  C_11
REMARK    8  A    between atoms: C_13  and  C_14
REMARK    9  A    between atoms: C_17  and  C_18
REMARK   10  A    between atoms: C_18  and  C_19
REMARK   11  A    between atoms: C_18  and  C_20
REMARK   12  A    between atoms: C_21  and  O_22
REMARK                            x       y       z     vdW  Elec       q    Type
REMARK                         _______ _______ _______ _____ _____    ______ ____
ROOT
ATOM      1  C   UNL     1       2.180   7.221  19.353  0.00  0.00    +0.000 A 
ATOM      2  C   UNL     1       2.401   7.939  18.171  0.00  0.00    +0.000 A 
ATOM      3  C   UNL     1       1.936   9.250  18.013  0.00  0.00    +0.000 A 
ATOM      4  C   UNL     1       1.336   9.973  19.052  0.00  0.00    +0.000 A 
ATOM      5  C   UNL     1       1.223   9.267  20.275  0.00  0.00    +0.000 A 
ATOM      6  C   UNL     1       1.598   7.919  20.413  0.00  0.00    +0.000 A 
ENDROOT
BRANCH   4   7
ATOM      7  C   UNL     1       0.763  11.344  18.829  0.00  0.00    +0.000 A 
ATOM      8  C   UNL     1       1.654  12.436  19.056  0.00  0.00    +0.000 A 
ATOM      9  C   UNL     1       1.317  13.774  18.841  0.00  0.00    +0.000 A 
ATOM     10  C   UNL     1       2.318  14.874  19.029  0.00  0.00    +0.000 C 
ATOM     11  C   UNL     1       0.022  14.066  18.455  0.00  0.00    +0.000 A 
ATOM     12  C   UNL     1      -0.903  13.038  18.280  0.00  0.00    +0.000 A 
ATOM     13  C   UNL     1      -0.584  11.668  18.458  0.00  0.00    +0.000 A 
BRANCH  13  14
ATOM     14  C   UNL     1      -1.737  10.649  18.336  0.00  0.00    +0.000 C 
ATOM     15  C   UNL     1      -3.167  11.218  18.477  0.00  0.00    +0.000 C 
ATOM     16  C   UNL     1      -1.720   9.800  17.062  0.00  0.00    +0.000 C 
ENDBRANCH  13  14
ENDBRANCH   4   7
BRANCH   1  17
ATOM     17  C   UNL     1       2.490   5.717  19.398  0.00  0.00    +0.000 C 
ATOM     18  C   UNL     1       3.996   5.393  19.507  0.00  0.00    +0.000 C 
ATOM     19  C   UNL     1       1.986   5.061  18.090  0.00  0.00    +0.000 C 
BRANCH  17  20
ATOM     20  C   UNL     1       1.741   5.061  20.608  0.00  0.00    +0.000 C 
BRANCH  20  22
ATOM     21  C   UNL     1       1.530   2.598  21.138  0.00  0.00    +0.000 C 
ATOM     22  C   UNL     1       1.016   3.745  20.282  0.00  0.00    +0.000 C 
ENDBRANCH  20  22
ENDBRANCH  17  20
ENDBRANCH   1  17
BRANCH   5  23
ATOM     23  O   UNL     1       0.721   9.819  21.431  0.00  0.00    +0.000 OA
ATOM     24  H   UNL     1      -0.176  10.143  21.242  0.00  0.00    +0.000 HD
ENDBRANCH   5  23
TORSDOF 6
ENDMDL
MODEL 3
REMARK VINA RESULT:      -7.5      0.855      1.922
REMARK  Name = 
REMARK  12 active torsions:
REMARK  status: ('A' for Active; 'I' for Inactive)
REMARK    1  A    between atoms: C_1  and  C_2
REMARK    2  A    between atoms: C_2  and  C_3
REMARK    3  A    between atoms: C_3  and  C_4
REMARK    4  A    between atoms: C_4  and  C_5
REMARK    5  A    between atoms: C_4  and  C_6
REMARK    6  A    between atoms: C_4  and  C_7
REMARK    7  A    between atoms: C_10  and  C_11
REMARK    8  A    between atoms: C_13  and  C_14
REMARK    9  A    between atoms: C_17  and  C_18
REMARK   10  A    between atoms: C_18  and  C_19
REMARK   11  A    between atoms: C_18  and  C_20
REMARK   12  A    between atoms: C_21  and  O_22
REMARK                            x       y       z     vdW  Elec       q    Type
REMARK                         _______ _______ _______ _____ _____    ______ ____
ROOT
ATOM      1  C   UNL     1       0.998   9.591  19.302  0.00  0.00    +0.000 A 
ATOM      2  C   UNL     1       1.469   9.410  17.996  0.00  0.00    +0.000 A 
ATOM      3  C   UNL     1       2.322   8.350  17.665  0.00  0.00    +0.000 A 
ATOM      4  C   UNL     1       2.661   7.337  18.571  0.00  0.00    +0.000 A 
ATOM      5  C   UNL     1       2.084   7.478  19.857  0.00  0.00    +0.000 A 
ATOM      6  C   UNL     1       1.307   8.590  20.226  0.00  0.00    +0.000 A 
ENDROOT
BRANCH   4   7
ATOM      7  C   UNL     1       3.651   6.263  18.218  0.00  0.00    +0.000 A 
ATOM      8  C   UNL     1       4.921   6.716  17.749  0.00  0.00    +0.000 A 
ATOM      9  C   UNL     1       5.983   5.867  17.433  0.00  0.00    +0.000 A 
ATOM     10  C   UNL     1       7.318   6.403  17.011  0.00  0.00    +0.000 C 
ATOM     11  C   UNL     1       5.772   4.502  17.510  0.00  0.00    +0.000 A 
ATOM     12  C   UNL     1       4.528   4.009  17.904  0.00  0.00    +0.000 A 
ATOM     13  C   UNL     1       3.441   4.845  18.263  0.00  0.00    +0.000 A 
BRANCH  13  14
ATOM     14  C   UNL     1       2.092   4.161  18.574  0.00  0.00    +0.000 C 
ATOM     15  C   UNL     1       1.082   4.087  17.407  0.00  0.00    +0.000 C 
ATOM     16  C   UNL     1       2.200   2.751  19.159  0.00  0.00    +0.000 C 
ENDBRANCH  13  14
ENDBRANCH   4   7
BRANCH   1  17
ATOM     17  C   UNL     1       0.269  10.891  19.674  0.00  0.00    +0.000 C 
ATOM     18  C   UNL     1      -1.251  10.854  19.397  0.00  0.00    +0.000 C 
ATOM     19  C   UNL     1       0.848  12.051  18.830  0.00  0.00    +0.000 C 
BRANCH  17  20
ATOM     20  C   UNL     1       0.501  11.209  21.190  0.00  0.00    +0.000 C 
BRANCH  20  22
ATOM     21  C   UNL     1      -0.651  10.025  23.105  0.00  0.00    +0.000 C 
ATOM     22  C   UNL     1      -0.760  11.132  22.067  0.00  0.00    +0.000 C 
ENDBRANCH  20  22
ENDBRANCH  17  20
ENDBRANCH   1  17
BRANCH   5  23
ATOM     23  O   UNL     1       2.243   6.558  20.869  0.00  0.00    +0.000 OA
ATOM     24  H   UNL     1       1.590   6.758  21.560  0.00  0.00    +0.000 HD
ENDBRANCH   5  23
TORSDOF 6
ENDMDL
MODEL 4
REMARK VINA RESULT:      -7.4      0.970      2.947
REMARK  Name = 
REMARK  12 active torsions:
REMARK  status: ('A' for Active; 'I' for Inactive)
REMARK    1  A    between atoms: C_1  and  C_2
REMARK    2  A    between atoms: C_2  and  C_3
REMARK    3  A    between atoms: C_3  and  C_4
REMARK    4  A    between atoms: C_4  and  C_5
REMARK    5  A    between atoms: C_4  and  C_6
REMARK    6  A    between atoms: C_4  and  C_7
REMARK    7  A    between atoms: C_10  and  C_11
REMARK    8  A    between atoms: C_13  and  C_14
REMARK    9  A    between atoms: C_17  and  C_18
REMARK   10  A    between atoms: C_18  and  C_19
REMARK   11  A    between atoms: C_18  and  C_20
REMARK   12  A    between atoms: C_21  and  O_22
REMARK                            x       y       z     vdW  Elec       q    Type
REMARK                         _______ _______ _______ _____ _____    ______ ____
ROOT
ATOM      1  C   UNL     1       1.335   9.797  19.034  0.00  0.00    +0.000 A 
ATOM      2  C   UNL     1       1.525   9.296  17.741  0.00  0.00    +0.000 A 
ATOM      3  C   UNL     1       1.987   7.992  17.520  0.00  0.00    +0.000 A 
ATOM      4  C   UNL     1       2.169   7.066  18.555  0.00  0.00    +0.000 A 
ATOM      5  C   UNL     1       1.863   7.558  19.848  0.00  0.00    +0.000 A 
ATOM      6  C   UNL     1       1.494   8.893  20.088  0.00  0.00    +0.000 A 
ENDROOT
BRANCH   4   7
ATOM      7  C   UNL     1       2.752   5.705  18.301  0.00  0.00    +0.000 A 
ATOM      8  C   UNL     1       1.962   4.598  18.735  0.00  0.00    +0.000 A 
ATOM      9  C   UNL     1       2.313   3.262  18.529  0.00  0.00    +0.000 A 
ATOM     10  C   UNL     1       1.409   2.141  18.944  0.00  0.00    +0.000 C 
ATOM     11  C   UNL     1       3.532   2.993  17.933  0.00  0.00    +0.000 A 
ATOM     12  C   UNL     1       4.367   4.041  17.547  0.00  0.00    +0.000 A 
ATOM     13  C   UNL     1       4.026   5.407  17.713  0.00  0.00    +0.000 A 
BRANCH  13  14
ATOM     14  C   UNL     1       5.094   6.456  17.339  0.00  0.00    +0.000 C 
ATOM     15  C   UNL     1       6.517   6.203  17.886  0.00  0.00    +0.000 C 
ATOM     16  C   UNL     1       5.236   6.731  15.840  0.00  0.00    +0.000 C 
ENDBRANCH  13  14
ENDBRANCH   4   7
BRANCH   1  17
ATOM     17  C   UNL     1       1.064  11.295  19.237  0.00  0.00    +0.000 C 
ATOM     18  C   UNL     1       2.146  12.213  18.627  0.00  0.00    +0.000 C 
ATOM     19  C   UNL     1       1.026  11.597  20.754  0.00  0.00    +0.000 C 
BRANCH  17  20
ATOM     20  C   UNL     1      -0.326  11.667  18.618  0.00  0.00    +0.000 C 
BRANCH  20  22
ATOM     21  C   UNL     1      -2.128  10.141  17.711  0.00  0.00    +0.000 C 
ATOM     22  C   UNL     1      -1.468  10.697  18.963  0.00  0.00    +0.000 C 
ENDBRANCH  20  22
ENDBRANCH  17  20
ENDBRANCH   1  17
BRANCH   5  23
ATOM     23  O   UNL     1       1.917   6.789  20.988  0.00  0.00    +0.000 OA
ATOM     24  H   UNL     1       2.668   6.179  20.902  0.00  0.00    +0.000 HD
ENDBRANCH   5  23
TORSDOF 6
ENDMDL
MODEL 5
REMARK VINA RESULT:      -7.3      1.664      6.974
REMARK  Name = 
REMARK  12 active torsions:
REMARK  status: ('A' for Active; 'I' for Inactive)
REMARK    1  A    between atoms: C_1  and  C_2
REMARK    2  A    between atoms: C_2  and  C_3
REMARK    3  A    between atoms: C_3  and  C_4
REMARK    4  A    between atoms: C_4  and  C_5
REMARK    5  A    between atoms: C_4  and  C_6
REMARK    6  A    between atoms: C_4  and  C_7
REMARK    7  A    between atoms: C_10  and  C_11
REMARK    8  A    between atoms: C_13  and  C_14
REMARK    9  A    between atoms: C_17  and  C_18
REMARK   10  A    between atoms: C_18  and  C_19
REMARK   11  A    between atoms: C_18  and  C_20
REMARK   12  A    between atoms: C_21  and  O_22
REMARK                            x       y       z     vdW  Elec       q    Type
REMARK                         _______ _______ _______ _____ _____    ______ ____
ROOT
ATOM      1  C   UNL     1       2.190   7.147  19.295  0.00  0.00    +0.000 A 
ATOM      2  C   UNL     1       2.407   7.872  18.117  0.00  0.00    +0.000 A 
ATOM      3  C   UNL     1       1.948   9.186  17.970  0.00  0.00    +0.000 A 
ATOM      4  C   UNL     1       1.357   9.905  19.016  0.00  0.00    +0.000 A 
ATOM      5  C   UNL     1       1.247   9.192  20.235  0.00  0.00    +0.000 A 
ATOM      6  C   UNL     1       1.616   7.842  20.363  0.00  0.00    +0.000 A 
ENDROOT
BRANCH   4   7
ATOM      7  C   UNL     1       0.789  11.281  18.805  0.00  0.00    +0.000 A 
ATOM      8  C   UNL     1       1.688  12.367  19.028  0.00  0.00    +0.000 A 
ATOM      9  C   UNL     1       1.356  13.708  18.822  0.00  0.00    +0.000 A 
ATOM     10  C   UNL     1       2.365  14.802  19.005  0.00  0.00    +0.000 C 
ATOM     11  C   UNL     1       0.059  14.008  18.449  0.00  0.00    +0.000 A 
ATOM     12  C   UNL     1      -0.873  12.986  18.279  0.00  0.00    +0.000 A 
ATOM     13  C   UNL     1      -0.560  11.614  18.448  0.00  0.00    +0.000 A 
BRANCH  13  14
ATOM     14  C   UNL     1      -1.719  10.601  18.333  0.00  0.00    +0.000 C 
ATOM     15  C   UNL     1      -3.141  11.167  18.543  0.00  0.00    +0.000 C 
ATOM     16  C   UNL     1      -1.749   9.796  17.031  0.00  0.00    +0.000 C 
ENDBRANCH  13  14
ENDBRANCH   4   7
BRANCH   1  17
ATOM     17  C   UNL     1       2.493   5.642  19.329  0.00  0.00    +0.000 C 
ATOM     18  C   UNL     1       1.819   4.896  20.502  0.00  0.00    +0.000 C 
ATOM     19  C   UNL     1       4.018   5.440  19.489  0.00  0.00    +0.000 C 
BRANCH  17  20
ATOM     20  C   UNL     1       2.039   4.984  17.981  0.00  0.00    +0.000 C 
BRANCH  20  22
ATOM     21  C   UNL     1       2.434   2.506  17.661  0.00  0.00    +0.000 C 
ATOM     22  C   UNL     1       1.449   3.571  18.119  0.00  0.00    +0.000 C 
ENDBRANCH  20  22
ENDBRANCH  17  20
ENDBRANCH   1  17
BRANCH   5  23
ATOM     23  O   UNL     1       0.754   9.740  21.397  0.00  0.00    +0.000 OA
ATOM     24  H   UNL     1       1.071  10.657  21.453  0.00  0.00    +0.000 HD
ENDBRANCH   5  23
TORSDOF 6
ENDMDL
MODEL 6
REMARK VINA RESULT:      -7.3      0.752      1.804
REMARK  Name = 
REMARK  12 active torsions:
REMARK  status: ('A' for Active; 'I' for Inactive)
REMARK    1  A    between atoms: C_1  and  C_2
REMARK    2  A    between atoms: C_2  and  C_3
REMARK    3  A    between atoms: C_3  and  C_4
REMARK    4  A    between atoms: C_4  and  C_5
REMARK    5  A    between atoms: C_4  and  C_6
REMARK    6  A    between atoms: C_4  and  C_7
REMARK    7  A    between atoms: C_10  and  C_11
REMARK    8  A    between atoms: C_13  and  C_14
REMARK    9  A    between atoms: C_17  and  C_18
REMARK   10  A    between atoms: C_18  and  C_19
REMARK   11  A    between atoms: C_18  and  C_20
REMARK   12  A    between atoms: C_21  and  O_22
REMARK                            x       y       z     vdW  Elec       q    Type
REMARK                         _______ _______ _______ _____ _____    ______ ____
ROOT
ATOM      1  C   UNL     1       0.742   9.866  19.365  0.00  0.00    +0.000 A 
ATOM      2  C   UNL     1       1.111   9.566  18.048  0.00  0.00    +0.000 A 
ATOM      3  C   UNL     1       1.923   8.465  17.747  0.00  0.00    +0.000 A 
ATOM      4  C   UNL     1       2.316   7.526  18.709  0.00  0.00    +0.000 A 
ATOM      5  C   UNL     1       1.839   7.786  20.017  0.00  0.00    +0.000 A 
ATOM      6  C   UNL     1       1.106   8.940  20.346  0.00  0.00    +0.000 A 
ENDROOT
BRANCH   4   7
ATOM      7  C   UNL     1       3.262   6.407  18.377  0.00  0.00    +0.000 A 
ATOM      8  C   UNL     1       4.525   6.798  17.837  0.00  0.00    +0.000 A 
ATOM      9  C   UNL     1       5.550   5.903  17.527  0.00  0.00    +0.000 A 
ATOM     10  C   UNL     1       6.882   6.378  17.028  0.00  0.00    +0.000 C 
ATOM     11  C   UNL     1       5.305   4.551  17.684  0.00  0.00    +0.000 A 
ATOM     12  C   UNL     1       4.065   4.116  18.150  0.00  0.00    +0.000 A 
ATOM     13  C   UNL     1       3.015   5.000  18.504  0.00  0.00    +0.000 A 
BRANCH  13  14
ATOM     14  C   UNL     1       1.662   4.372  18.901  0.00  0.00    +0.000 C 
ATOM     15  C   UNL     1       1.227   3.127  18.096  0.00  0.00    +0.000 C 
ATOM     16  C   UNL     1       1.523   4.015  20.383  0.00  0.00    +0.000 C 
ENDBRANCH  13  14
ENDBRANCH   4   7
BRANCH   1  17
ATOM     17  C   UNL     1       0.060  11.206  19.677  0.00  0.00    +0.000 C 
ATOM     18  C   UNL     1      -0.874  11.158  20.906  0.00  0.00    +0.000 C 
ATOM     19  C   UNL     1      -0.813  11.618  18.468  0.00  0.00    +0.000 C 
BRANCH  17  20
ATOM     20  C   UNL     1       1.148  12.309  19.909  0.00  0.00    +0.000 C 
BRANCH  20  22
ATOM     21  C   UNL     1       2.709  13.073  18.072  0.00  0.00    +0.000 C 
ATOM     22  C   UNL     1       1.352  13.273  18.728  0.00  0.00    +0.000 C 
ENDBRANCH  20  22
ENDBRANCH  17  20
ENDBRANCH   1  17
BRANCH   5  23
ATOM     23  O   UNL     1       2.061   6.952  21.089  0.00  0.00    +0.000 OA
ATOM     24  H   UNL     1       2.926   6.527  20.963  0.00  0.00    +0.000 HD
ENDBRANCH   5  23
TORSDOF 6
ENDMDL
MODEL 7
REMARK VINA RESULT:      -7.3      3.516      6.234
REMARK  Name = 
REMARK  12 active torsions:
REMARK  status: ('A' for Active; 'I' for Inactive)
REMARK    1  A    between atoms: C_1  and  C_2
REMARK    2  A    between atoms: C_2  and  C_3
REMARK    3  A    between atoms: C_3  and  C_4
REMARK    4  A    between atoms: C_4  and  C_5
REMARK    5  A    between atoms: C_4  and  C_6
REMARK    6  A    between atoms: C_4  and  C_7
REMARK    7  A    between atoms: C_10  and  C_11
REMARK    8  A    between atoms: C_13  and  C_14
REMARK    9  A    between atoms: C_17  and  C_18
REMARK   10  A    between atoms: C_18  and  C_19
REMARK   11  A    between atoms: C_18  and  C_20
REMARK   12  A    between atoms: C_21  and  O_22
REMARK                            x       y       z     vdW  Elec       q    Type
REMARK                         _______ _______ _______ _____ _____    ______ ____
ROOT
ATOM      1  C   UNL     1       2.578   3.379  19.053  0.00  0.00    +0.000 A 
ATOM      2  C   UNL     1       2.185   3.558  17.721  0.00  0.00    +0.000 A 
ATOM      3  C   UNL     1       3.108   3.898  16.725  0.00  0.00    +0.000 A 
ATOM      4  C   UNL     1       4.488   3.961  16.957  0.00  0.00    +0.000 A 
ATOM      5  C   UNL     1       4.877   3.666  18.286  0.00  0.00    +0.000 A 
ATOM      6  C   UNL     1       3.950   3.420  19.314  0.00  0.00    +0.000 A 
ENDROOT
BRANCH   4   7
ATOM      7  C   UNL     1       5.446   4.418  15.893  0.00  0.00    +0.000 A 
ATOM      8  C   UNL     1       5.519   3.598  14.726  0.00  0.00    +0.000 A 
ATOM      9  C   UNL     1       6.306   3.898  13.612  0.00  0.00    +0.000 A 
ATOM     10  C   UNL     1       6.289   3.035  12.386  0.00  0.00    +0.000 C 
ATOM     11  C   UNL     1       7.117   5.017  13.668  0.00  0.00    +0.000 A 
ATOM     12  C   UNL     1       7.126   5.815  14.811  0.00  0.00    +0.000 A 
ATOM     13  C   UNL     1       6.316   5.557  15.945  0.00  0.00    +0.000 A 
BRANCH  13  14
ATOM     14  C   UNL     1       6.511   6.464  17.179  0.00  0.00    +0.000 C 
ATOM     15  C   UNL     1       7.705   7.443  17.122  0.00  0.00    +0.000 C 
ATOM     16  C   UNL     1       5.283   7.284  17.582  0.00  0.00    +0.000 C 
ENDBRANCH  13  14
ENDBRANCH   4   7
BRANCH   1  17
ATOM     17  C   UNL     1       1.511   3.246  20.150  0.00  0.00    +0.000 C 
ATOM     18  C   UNL     1       2.048   2.660  21.474  0.00  0.00    +0.000 C 
ATOM     19  C   UNL     1       0.400   2.290  19.656  0.00  0.00    +0.000 C 
BRANCH  17  20
ATOM     20  C   UNL     1       0.875   4.648  20.436  0.00  0.00    +0.000 C 
BRANCH  20  22
ATOM     21  C   UNL     1       2.157   6.727  19.781  0.00  0.00    +0.000 C 
ATOM     22  C   UNL     1       1.870   5.729  20.892  0.00  0.00    +0.000 C 
ENDBRANCH  20  22
ENDBRANCH  17  20
ENDBRANCH   1  17
BRANCH   5  23
ATOM     23  O   UNL     1       6.188   3.612  18.703  0.00  0.00    +0.000 OA
ATOM     24  H   UNL     1       6.333   4.343  19.327  0.00  0.00    +0.000 HD
ENDBRANCH   5  23
TORSDOF 6
ENDMDL
MODEL 8
REMARK VINA RESULT:      -7.2      1.452      7.332
REMARK  Name = 
REMARK  12 active torsions:
REMARK  status: ('A' for Active; 'I' for Inactive)
REMARK    1  A    between atoms: C_1  and  C_2
REMARK    2  A    between atoms: C_2  and  C_3
REMARK    3  A    between atoms: C_3  and  C_4
REMARK    4  A    between atoms: C_4  and  C_5
REMARK    5  A    between atoms: C_4  and  C_6
REMARK    6  A    between atoms: C_4  and  C_7
REMARK    7  A    between atoms: C_10  and  C_11
REMARK    8  A    between atoms: C_13  and  C_14
REMARK    9  A    between atoms: C_17  and  C_18
REMARK   10  A    between atoms: C_18  and  C_19
REMARK   11  A    between atoms: C_18  and  C_20
REMARK   12  A    between atoms: C_21  and  O_22
REMARK                            x       y       z     vdW  Elec       q    Type
REMARK                         _______ _______ _______ _____ _____    ______ ____
ROOT
ATOM      1  C   UNL     1       2.660   6.798  19.127  0.00  0.00    +0.000 A 
ATOM      2  C   UNL     1       2.618   7.513  17.925  0.00  0.00    +0.000 A 
ATOM      3  C   UNL     1       1.822   8.655  17.779  0.00  0.00    +0.000 A 
ATOM      4  C   UNL     1       1.116   9.230  18.844  0.00  0.00    +0.000 A 
ATOM      5  C   UNL     1       1.260   8.554  20.081  0.00  0.00    +0.000 A 
ATOM      6  C   UNL     1       1.978   7.353  20.213  0.00  0.00    +0.000 A 
ENDROOT
BRANCH   4   7
ATOM      7  C   UNL     1       0.196  10.400  18.639  0.00  0.00    +0.000 A 
ATOM      8  C   UNL     1      -1.089  10.095  18.097  0.00  0.00    +0.000 A 
ATOM      9  C   UNL     1      -2.095  11.043  17.896  0.00  0.00    +0.000 A 
ATOM     10  C   UNL     1      -3.450  10.652  17.389  0.00  0.00    +0.000 C 
ATOM     11  C   UNL     1      -1.807  12.367  18.171  0.00  0.00    +0.000 A 
ATOM     12  C   UNL     1      -0.544  12.724  18.644  0.00  0.00    +0.000 A 
ATOM     13  C   UNL     1       0.487  11.783  18.890  0.00  0.00    +0.000 A 
BRANCH  13  14
ATOM     14  C   UNL     1       1.866  12.333  19.309  0.00  0.00    +0.000 C 
ATOM     15  C   UNL     1       2.768  12.853  18.166  0.00  0.00    +0.000 C 
ATOM     16  C   UNL     1       1.830  13.427  20.379  0.00  0.00    +0.000 C 
ENDBRANCH  13  14
ENDBRANCH   4   7
BRANCH   1  17
ATOM     17  C   UNL     1       3.349   5.426  19.172  0.00  0.00    +0.000 C 
ATOM     18  C   UNL     1       4.891   5.505  19.241  0.00  0.00    +0.000 C 
ATOM     19  C   UNL     1       3.000   4.645  17.883  0.00  0.00    +0.000 C 
BRANCH  17  20
ATOM     20  C   UNL     1       2.827   4.615  20.406  0.00  0.00    +0.000 C 
BRANCH  20  22
ATOM     21  C   UNL     1       1.314   2.787  21.284  0.00  0.00    +0.000 C 
ATOM     22  C   UNL     1       1.599   3.733  20.126  0.00  0.00    +0.000 C 
ENDBRANCH  20  22
ENDBRANCH  17  20
ENDBRANCH   1  17
BRANCH   5  23
ATOM     23  O   UNL     1       0.700   8.993  21.258  0.00  0.00    +0.000 OA
ATOM     24  H   UNL     1       1.353   9.552  21.711  0.00  0.00    +0.000 HD
ENDBRANCH   5  23
TORSDOF 6
ENDMDL
MODEL 9
REMARK VINA RESULT:      -7.2      1.318      3.235
REMARK  Name = 
REMARK  12 active torsions:
REMARK  status: ('A' for Active; 'I' for Inactive)
REMARK    1  A    between atoms: C_1  and  C_2
REMARK    2  A    between atoms: C_2  and  C_3
REMARK    3  A    between atoms: C_3  and  C_4
REMARK    4  A    between atoms: C_4  and  C_5
REMARK    5  A    between atoms: C_4  and  C_6
REMARK    6  A    between atoms: C_4  and  C_7
REMARK    7  A    between atoms: C_10  and  C_11
REMARK    8  A    between atoms: C_13  and  C_14
REMARK    9  A    between atoms: C_17  and  C_18
REMARK   10  A    between atoms: C_18  and  C_19
REMARK   11  A    between atoms: C_18  and  C_20
REMARK   12  A    between atoms: C_21  and  O_22
REMARK                            x       y       z     vdW  Elec       q    Type
REMARK                         _______ _______ _______ _____ _____    ______ ____
ROOT
ATOM      1  C   UNL     1       1.231   9.576  19.556  0.00  0.00    +0.000 A 
ATOM      2  C   UNL     1       1.335   8.591  20.545  0.00  0.00    +0.000 A 
ATOM      3  C   UNL     1       1.839   7.316  20.259  0.00  0.00    +0.000 A 
ATOM      4  C   UNL     1       2.383   6.976  19.015  0.00  0.00    +0.000 A 
ATOM      5  C   UNL     1       2.372   8.022  18.059  0.00  0.00    +0.000 A 
ATOM      6  C   UNL     1       1.779   9.273  18.307  0.00  0.00    +0.000 A 
ENDROOT
BRANCH   4   7
ATOM      7  C   UNL     1       2.831   5.575  18.706  0.00  0.00    +0.000 A 
ATOM      8  C   UNL     1       1.834   4.561  18.827  0.00  0.00    +0.000 A 
ATOM      9  C   UNL     1       2.049   3.216  18.524  0.00  0.00    +0.000 A 
ATOM     10  C   UNL     1       0.944   2.207  18.603  0.00  0.00    +0.000 C 
ATOM     11  C   UNL     1       3.324   2.828  18.151  0.00  0.00    +0.000 A 
ATOM     12  C   UNL     1       4.347   3.772  18.077  0.00  0.00    +0.000 A 
ATOM     13  C   UNL     1       4.153   5.150  18.348  0.00  0.00    +0.000 A 
BRANCH  13  14
ATOM     14  C   UNL     1       5.401   6.059  18.332  0.00  0.00    +0.000 C 
ATOM     15  C   UNL     1       6.621   5.555  19.135  0.00  0.00    +0.000 C 
ATOM     16  C   UNL     1       5.911   6.436  16.938  0.00  0.00    +0.000 C 
ENDBRANCH  13  14
ENDBRANCH   4   7
BRANCH   1  17
ATOM     17  C   UNL     1       0.456  10.869  19.849  0.00  0.00    +0.000 C 
ATOM     18  C   UNL     1       1.361  12.086  20.143  0.00  0.00    +0.000 C 
ATOM     19  C   UNL     1      -0.423  10.654  21.104  0.00  0.00    +0.000 C 
BRANCH  17  20
ATOM     20  C   UNL     1      -0.476  11.210  18.637  0.00  0.00    +0.000 C 
BRANCH  20  22
ATOM     21  C   UNL     1      -1.947   9.921  17.035  0.00  0.00    +0.000 C 
ATOM     22  C   UNL     1      -1.703  10.296  18.489  0.00  0.00    +0.000 C 
ENDBRANCH  20  22
ENDBRANCH  17  20
ENDBRANCH   1  17
BRANCH   5  23
ATOM     23  O   UNL     1       2.915   7.911  16.800  0.00  0.00    +0.000 OA
ATOM     24  H   UNL     1       3.719   7.368  16.868  0.00  0.00    +0.000 HD
ENDBRANCH   5  23
TORSDOF 6
ENDMDL
