MODEL 1
REMARK VINA RESULT:      -8.2      0.000      0.000
REMARK  Name = 
REMARK  6 active torsions:
REMARK  status: ('A' for Active; 'I' for Inactive)
REMARK    1  A    between atoms: C_1  and  C_2
REMARK    2  A    between atoms: C_2  and  C_3
REMARK    3  A    between atoms: N_5  and  C_6
REMARK    4  A    between atoms: C_12  and  C_13
REMARK    5  A    between atoms: C_13  and  O_15
REMARK    6  A    between atoms: N_17  and  C_18
REMARK                            x       y       z     vdW  Elec       q    Type
REMARK                         _______ _______ _______ _____ _____    ______ ____
ROOT
ATOM      1  C   UNL     1       1.139   8.592  19.913  0.00  0.00    +0.000 A 
ATOM      2  C   UNL     1       1.629   9.096  18.702  0.00  0.00    +0.000 A 
ATOM      3  C   UNL     1       2.591   8.401  17.973  0.00  0.00    +0.000 A 
ATOM      4  C   UNL     1       3.032   7.157  18.425  0.00  0.00    +0.000 A 
ATOM      5  C   UNL     1       4.066   6.434  17.656  0.00  0.00    +0.000 A 
ATOM      6  O   UNL     1       4.626   6.950  16.693  0.00  0.00    +0.000 OA
ATOM      7  C   UNL     1       4.417   5.057  18.075  0.00  0.00    +0.000 A 
ATOM      8  C   UNL     1       3.805   4.573  19.168  0.00  0.00    +0.000 A 
ATOM      9  N   UNL     1       2.905   5.261  19.972  0.00  0.00    +0.000 N 
ATOM     10  C   UNL     1       2.514   6.577  19.591  0.00  0.00    +0.000 A 
ATOM     11  C   UNL     1       1.604   7.336  20.335  0.00  0.00    +0.000 A 
ENDROOT
BRANCH   1  14
ATOM     12  C   UNL     1       0.219  11.523  21.710  0.00  0.00    +0.000 C 
ATOM     13  C   UNL     1      -0.110  10.677  20.453  0.00  0.00    +0.000 C 
ATOM     14  N   UNL     1       0.218   9.270  20.675  0.00  0.00    +0.000 N 
ATOM     15  C   UNL     1      -0.354   8.674  21.889  0.00  0.00    +0.000 C 
ATOM     16  C   UNL     1      -0.040   9.565  23.109  0.00  0.00    +0.000 C 
ATOM     17  N   UNL     1      -0.436  10.976  22.929  0.00  0.00    +0.000 NA
ATOM     18  H   UNL     1      -0.134  11.510  23.743  0.00  0.00    +0.000 HD
BRANCH  12  20
ATOM     19  C   UNL     1      -0.916  13.560  22.743  0.00  0.00    +0.000 C 
ATOM     20  C   UNL     1      -0.218  12.986  21.515  0.00  0.00    +0.000 C 
ENDBRANCH  12  20
ENDBRANCH   1  14
BRANCH   9  21
ATOM     21  C   UNL     1       2.185   4.558  21.064  0.00  0.00    +0.000 C 
ATOM     22  C   UNL     1       1.167   3.461  20.902  0.00  0.00    +0.000 C 
ATOM     23  C   UNL     1       2.548   3.122  21.371  0.00  0.00    +0.000 C 
ENDBRANCH   9  21
BRANCH   7  24
ATOM     24  C   UNL     1       5.392   4.234  17.323  0.00  0.00    +0.000 C 
ATOM     25  O   UNL     1       5.140   3.766  16.217  0.00  0.00    +0.000 OA
BRANCH  24  26
ATOM     26  O   UNL     1       6.581   4.029  17.928  0.00  0.00    +0.000 OA
ATOM     27  H   UNL     1       6.540   3.488  18.754  0.00  0.00    +0.000 HD
ENDBRANCH  24  26
ENDBRANCH   7  24
TORSDOF 5
ENDMDL
MODEL 2
REMARK VINA RESULT:      -8.0      2.243      3.728
REMARK  Name = 
REMARK  6 active torsions:
REMARK  status: ('A' for Active; 'I' for Inactive)
REMARK    1  A    between atoms: C_1  and  C_2
REMARK    2  A    between atoms: C_2  and  C_3
REMARK    3  A    between atoms: N_5  and  C_6
REMARK    4  A    between atoms: C_12  and  C_13
REMARK    5  A    between atoms: C_13  and  O_15
REMARK    6  A    between atoms: N_17  and  C_18
REMARK                            x       y       z     vdW  Elec       q    Type
REMARK                         _______ _______ _______ _____ _____    ______ ____
ROOT
ATOM      1  C   UNL     1       1.762   7.781  19.796  0.00  0.00    +0.000 A 
ATOM      2  C   UNL     1       1.223   6.984  20.813  0.00  0.00    +0.000 A 
ATOM      3  C   UNL     1       1.600   5.650  20.953  0.00  0.00    +0.000 A 
ATOM      4  C   UNL     1       2.571   5.115  20.106  0.00  0.00    +0.000 A 
ATOM      5  C   UNL     1       2.952   3.695  20.250  0.00  0.00    +0.000 A 
ATOM      6  O   UNL     1       2.357   2.947  21.019  0.00  0.00    +0.000 OA
ATOM      7  C   UNL     1       4.081   3.187  19.437  0.00  0.00    +0.000 A 
ATOM      8  C   UNL     1       4.653   4.045  18.576  0.00  0.00    +0.000 A 
ATOM      9  N   UNL     1       4.255   5.355  18.343  0.00  0.00    +0.000 N 
ATOM     10  C   UNL     1       3.193   5.897  19.124  0.00  0.00    +0.000 A 
ATOM     11  C   UNL     1       2.738   7.210  18.964  0.00  0.00    +0.000 A 
ENDROOT
BRANCH   1  14
ATOM     12  C   UNL     1      -0.467  10.459  20.529  0.00  0.00    +0.000 C 
ATOM     13  C   UNL     1       0.994   9.967  20.709  0.00  0.00    +0.000 C 
ATOM     14  N   UNL     1       1.383   9.089  19.607  0.00  0.00    +0.000 N 
ATOM     15  C   UNL     1       1.159   9.630  18.261  0.00  0.00    +0.000 C 
ATOM     16  C   UNL     1      -0.291  10.145  18.136  0.00  0.00    +0.000 C 
ATOM     17  N   UNL     1      -0.675  11.093  19.201  0.00  0.00    +0.000 NA
ATOM     18  H   UNL     1      -1.661  11.331  19.091  0.00  0.00    +0.000 HD
BRANCH  12  20
ATOM     19  C   UNL     1      -1.064  10.793  22.986  0.00  0.00    +0.000 C 
ATOM     20  C   UNL     1      -0.846  11.461  21.633  0.00  0.00    +0.000 C 
ENDBRANCH  12  20
ENDBRANCH   1  14
BRANCH   9  21
ATOM     21  C   UNL     1       5.069   6.244  17.475  0.00  0.00    +0.000 C 
ATOM     22  C   UNL     1       6.374   5.893  16.811  0.00  0.00    +0.000 C 
ATOM     23  C   UNL     1       5.125   5.961  15.990  0.00  0.00    +0.000 C 
ENDBRANCH   9  21
BRANCH   7  24
ATOM     24  C   UNL     1       4.575   1.797  19.564  0.00  0.00    +0.000 C 
ATOM     25  O   UNL     1       5.252   1.426  20.518  0.00  0.00    +0.000 OA
BRANCH  24  26
ATOM     26  O   UNL     1       4.235   0.956  18.565  0.00  0.00    +0.000 OA
ATOM     27  H   UNL     1       3.988   0.044  18.854  0.00  0.00    +0.000 HD
ENDBRANCH  24  26
ENDBRANCH   7  24
TORSDOF 5
ENDMDL
MODEL 3
REMARK VINA RESULT:      -7.7      1.229      1.448
REMARK  Name = 
REMARK  6 active torsions:
REMARK  status: ('A' for Active; 'I' for Inactive)
REMARK    1  A    between atoms: C_1  and  C_2
REMARK    2  A    between atoms: C_2  and  C_3
REMARK    3  A    between atoms: N_5  and  C_6
REMARK    4  A    between atoms: C_12  and  C_13
REMARK    5  A    between atoms: C_13  and  O_15
REMARK    6  A    between atoms: N_17  and  C_18
REMARK                            x       y       z     vdW  Elec       q    Type
REMARK                         _______ _______ _______ _____ _____    ______ ____
ROOT
ATOM      1  C   UNL     1       1.908   8.146  19.275  0.00  0.00    +0.000 A 
ATOM      2  C   UNL     1       2.354   8.772  18.106  0.00  0.00    +0.000 A 
ATOM      3  C   UNL     1       3.323   8.179  17.300  0.00  0.00    +0.000 A 
ATOM      4  C   UNL     1       3.815   6.916  17.630  0.00  0.00    +0.000 A 
ATOM      5  C   UNL     1       4.856   6.301  16.780  0.00  0.00    +0.000 A 
ATOM      6  O   UNL     1       5.378   6.921  15.858  0.00  0.00    +0.000 OA
ATOM      7  C   UNL     1       5.262   4.906  17.068  0.00  0.00    +0.000 A 
ATOM      8  C   UNL     1       4.691   4.306  18.125  0.00  0.00    +0.000 A 
ATOM      9  N   UNL     1       3.785   4.887  19.004  0.00  0.00    +0.000 N 
ATOM     10  C   UNL     1       3.342   6.218  18.749  0.00  0.00    +0.000 A 
ATOM     11  C   UNL     1       2.424   6.874  19.575  0.00  0.00    +0.000 A 
ENDROOT
BRANCH   1  14
ATOM     12  C   UNL     1       0.608  11.054  20.864  0.00  0.00    +0.000 C 
ATOM     13  C   UNL     1       0.299   9.974  19.795  0.00  0.00    +0.000 C 
ATOM     14  N   UNL     1       0.981   8.721  20.112  0.00  0.00    +0.000 N 
ATOM     15  C   UNL     1       0.760   8.211  21.471  0.00  0.00    +0.000 C 
ATOM     16  C   UNL     1       1.039   9.325  22.502  0.00  0.00    +0.000 C 
ATOM     17  N   UNL     1       0.298  10.574  22.237  0.00  0.00    +0.000 NA
ATOM     18  H   UNL     1       0.587  11.279  22.915  0.00  0.00    +0.000 HD
BRANCH  12  20
ATOM     19  C   UNL     1      -0.620  12.465  19.131  0.00  0.00    +0.000 C 
ATOM     20  C   UNL     1      -0.187  12.342  20.587  0.00  0.00    +0.000 C 
ENDBRANCH  12  20
ENDBRANCH   1  14
BRANCH   9  21
ATOM     21  C   UNL     1       3.114   4.066  20.042  0.00  0.00    +0.000 C 
ATOM     22  C   UNL     1       1.683   3.596  20.022  0.00  0.00    +0.000 C 
ATOM     23  C   UNL     1       2.782   2.623  19.730  0.00  0.00    +0.000 C 
ENDBRANCH   9  21
BRANCH   7  24
ATOM     24  C   UNL     1       6.248   4.188  16.229  0.00  0.00    +0.000 C 
ATOM     25  O   UNL     1       5.926   3.274  15.476  0.00  0.00    +0.000 OA
BRANCH  24  26
ATOM     26  O   UNL     1       7.528   4.601  16.338  0.00  0.00    +0.000 OA
ATOM     27  H   UNL     1       8.183   3.883  16.517  0.00  0.00    +0.000 HD
ENDBRANCH  24  26
ENDBRANCH   7  24
TORSDOF 5
ENDMDL
MODEL 4
REMARK VINA RESULT:      -7.7      1.311      1.826
REMARK  Name = 
REMARK  6 active torsions:
REMARK  status: ('A' for Active; 'I' for Inactive)
REMARK    1  A    between atoms: C_1  and  C_2
REMARK    2  A    between atoms: C_2  and  C_3
REMARK    3  A    between atoms: N_5  and  C_6
REMARK    4  A    between atoms: C_12  and  C_13
REMARK    5  A    between atoms: C_13  and  O_15
REMARK    6  A    between atoms: N_17  and  C_18
REMARK                            x       y       z     vdW  Elec       q    Type
REMARK                         _______ _______ _______ _____ _____    ______ ____
ROOT
ATOM      1  C   UNL     1       1.346   8.906  19.352  0.00  0.00    +0.000 A 
ATOM      2  C   UNL     1       1.920   9.301  18.138  0.00  0.00    +0.000 A 
ATOM      3  C   UNL     1       2.893   8.519  17.518  0.00  0.00    +0.000 A 
ATOM      4  C   UNL     1       3.260   7.299  18.084  0.00  0.00    +0.000 A 
ATOM      5  C   UNL     1       4.306   6.484  17.430  0.00  0.00    +0.000 A 
ATOM      6  O   UNL     1       4.937   6.907  16.465  0.00  0.00    +0.000 OA
ATOM      7  C   UNL     1       4.579   5.132  17.968  0.00  0.00    +0.000 A 
ATOM      8  C   UNL     1       3.891   4.753  19.058  0.00  0.00    +0.000 A 
ATOM      9  N   UNL     1       2.976   5.530  19.756  0.00  0.00    +0.000 N 
ATOM     10  C   UNL     1       2.657   6.827  19.258  0.00  0.00    +0.000 A 
ATOM     11  C   UNL     1       1.739   7.671  19.891  0.00  0.00    +0.000 A 
ENDROOT
BRANCH   1  14
ATOM     12  C   UNL     1      -1.028  11.558  19.289  0.00  0.00    +0.000 C 
ATOM     13  C   UNL     1      -0.880  10.020  19.421  0.00  0.00    +0.000 C 
ATOM     14  N   UNL     1       0.412   9.672  20.009  0.00  0.00    +0.000 N 
ATOM     15  C   UNL     1       0.734  10.353  21.269  0.00  0.00    +0.000 C 
ATOM     16  C   UNL     1       0.536  11.876  21.108  0.00  0.00    +0.000 C 
ATOM     17  N   UNL     1      -0.794  12.247  20.586  0.00  0.00    +0.000 NA
ATOM     18  H   UNL     1      -0.822  13.256  20.443  0.00  0.00    +0.000 HD
BRANCH  12  20
ATOM     19  C   UNL     1      -3.053  10.824  17.925  0.00  0.00    +0.000 C 
ATOM     20  C   UNL     1      -2.425  11.931  18.764  0.00  0.00    +0.000 C 
ENDBRANCH  12  20
ENDBRANCH   1  14
BRANCH   9  21
ATOM     21  C   UNL     1       2.171   4.938  20.855  0.00  0.00    +0.000 C 
ATOM     22  C   UNL     1       1.074   3.917  20.708  0.00  0.00    +0.000 C 
ATOM     23  C   UNL     1       2.409   3.493  21.235  0.00  0.00    +0.000 C 
ENDBRANCH   9  21
BRANCH   7  24
ATOM     24  C   UNL     1       5.561   4.221  17.336  0.00  0.00    +0.000 C 
ATOM     25  O   UNL     1       5.341   3.659  16.268  0.00  0.00    +0.000 OA
BRANCH  24  26
ATOM     26  O   UNL     1       6.719   4.045  18.006  0.00  0.00    +0.000 OA
ATOM     27  H   UNL     1       6.798   4.564  18.844  0.00  0.00    +0.000 HD
ENDBRANCH  24  26
ENDBRANCH   7  24
TORSDOF 5
ENDMDL
MODEL 5
REMARK VINA RESULT:      -7.6      0.873      1.081
REMARK  Name = 
REMARK  6 active torsions:
REMARK  status: ('A' for Active; 'I' for Inactive)
REMARK    1  A    between atoms: C_1  and  C_2
REMARK    2  A    between atoms: C_2  and  C_3
REMARK    3  A    between atoms: N_5  and  C_6
REMARK    4  A    between atoms: C_12  and  C_13
REMARK    5  A    between atoms: C_13  and  O_15
REMARK    6  A    between atoms: N_17  and  C_18
REMARK                            x       y       z     vdW  Elec       q    Type
REMARK                         _______ _______ _______ _____ _____    ______ ____
ROOT
ATOM      1  C   UNL     1       1.185   8.553  19.522  0.00  0.00    +0.000 A 
ATOM      2  C   UNL     1       1.765   9.015  18.335  0.00  0.00    +0.000 A 
ATOM      3  C   UNL     1       2.824   8.332  17.741  0.00  0.00    +0.000 A 
ATOM      4  C   UNL     1       3.277   7.139  18.304  0.00  0.00    +0.000 A 
ATOM      5  C   UNL     1       4.412   6.429  17.679  0.00  0.00    +0.000 A 
ATOM      6  O   UNL     1       5.038   6.921  16.744  0.00  0.00    +0.000 OA
ATOM      7  C   UNL     1       4.785   5.098  18.210  0.00  0.00    +0.000 A 
ATOM      8  C   UNL     1       4.094   4.643  19.268  0.00  0.00    +0.000 A 
ATOM      9  N   UNL     1       3.090   5.326  19.943  0.00  0.00    +0.000 N 
ATOM     10  C   UNL     1       2.677   6.598  19.449  0.00  0.00    +0.000 A 
ATOM     11  C   UNL     1       1.665   7.347  20.059  0.00  0.00    +0.000 A 
ENDROOT
BRANCH   1  14
ATOM     12  C   UNL     1      -0.316  11.633  20.488  0.00  0.00    +0.000 C 
ATOM     13  C   UNL     1      -0.492  10.393  19.572  0.00  0.00    +0.000 C 
ATOM     14  N   UNL     1       0.164   9.223  20.153  0.00  0.00    +0.000 N 
ATOM     15  C   UNL     1      -0.200   8.922  21.543  0.00  0.00    +0.000 C 
ATOM     16  C   UNL     1      -0.050  10.189  22.412  0.00  0.00    +0.000 C 
ATOM     17  N   UNL     1      -0.772  11.361  21.877  0.00  0.00    +0.000 NA
ATOM     18  H   UNL     1      -0.568  12.170  22.463  0.00  0.00    +0.000 HD
BRANCH  12  20
ATOM     19  C   UNL     1      -2.527  12.903  20.433  0.00  0.00    +0.000 C 
ATOM     20  C   UNL     1      -1.090  12.840  19.929  0.00  0.00    +0.000 C 
ENDBRANCH  12  20
ENDBRANCH   1  14
BRANCH   9  21
ATOM     21  C   UNL     1       2.302   4.648  21.003  0.00  0.00    +0.000 C 
ATOM     22  C   UNL     1       1.116   3.744  20.795  0.00  0.00    +0.000 C 
ATOM     23  C   UNL     1       2.438   3.150  21.168  0.00  0.00    +0.000 C 
ENDBRANCH   9  21
BRANCH   7  24
ATOM     24  C   UNL     1       5.865   4.287  17.603  0.00  0.00    +0.000 C 
ATOM     25  O   UNL     1       7.025   4.338  18.001  0.00  0.00    +0.000 OA
BRANCH  24  26
ATOM     26  O   UNL     1       5.498   3.484  16.583  0.00  0.00    +0.000 OA
ATOM     27  H   UNL     1       5.809   2.549  16.657  0.00  0.00    +0.000 HD
ENDBRANCH  24  26
ENDBRANCH   7  24
TORSDOF 5
ENDMDL
MODEL 6
REMARK VINA RESULT:      -7.2      2.335      3.753
REMARK  Name = 
REMARK  6 active torsions:
REMARK  status: ('A' for Active; 'I' for Inactive)
REMARK    1  A    between atoms: C_1  and  C_2
REMARK    2  A    between atoms: C_2  and  C_3
REMARK    3  A    between atoms: N_5  and  C_6
REMARK    4  A    between atoms: C_12  and  C_13
REMARK    5  A    between atoms: C_13  and  O_15
REMARK    6  A    between atoms: N_17  and  C_18
REMARK                            x       y       z     vdW  Elec       q    Type
REMARK                         _______ _______ _______ _____ _____    ______ ____
ROOT
ATOM      1  C   UNL     1       1.395   8.372  19.679  0.00  0.00    +0.000 A 
ATOM      2  C   UNL     1       1.000   7.635  20.801  0.00  0.00    +0.000 A 
ATOM      3  C   UNL     1       1.444   6.328  20.993  0.00  0.00    +0.000 A 
ATOM      4  C   UNL     1       2.341   5.765  20.086  0.00  0.00    +0.000 A 
ATOM      5  C   UNL     1       2.794   4.373  20.286  0.00  0.00    +0.000 A 
ATOM      6  O   UNL     1       2.314   3.664  21.166  0.00  0.00    +0.000 OA
ATOM      7  C   UNL     1       3.850   3.844  19.393  0.00  0.00    +0.000 A 
ATOM      8  C   UNL     1       4.292   4.654  18.417  0.00  0.00    +0.000 A 
ATOM      9  N   UNL     1       3.819   5.929  18.138  0.00  0.00    +0.000 N 
ATOM     10  C   UNL     1       2.824   6.492  18.989  0.00  0.00    +0.000 A 
ATOM     11  C   UNL     1       2.301   7.774  18.788  0.00  0.00    +0.000 A 
ENDROOT
BRANCH   1  14
ATOM     12  C   UNL     1       2.113  11.809  19.088  0.00  0.00    +0.000 C 
ATOM     13  C   UNL     1       1.544  10.523  18.433  0.00  0.00    +0.000 C 
ATOM     14  N   UNL     1       0.946   9.650  19.441  0.00  0.00    +0.000 N 
ATOM     15  C   UNL     1      -0.041  10.287  20.321  0.00  0.00    +0.000 C 
ATOM     16  C   UNL     1       0.549  11.581  20.921  0.00  0.00    +0.000 C 
ATOM     17  N   UNL     1       1.089  12.510  19.908  0.00  0.00    +0.000 NA
ATOM     18  H   UNL     1       1.521  13.302  20.382  0.00  0.00    +0.000 HD
BRANCH  12  20
ATOM     19  C   UNL     1       2.438  14.239  18.386  0.00  0.00    +0.000 C 
ATOM     20  C   UNL     1       2.654  12.774  18.019  0.00  0.00    +0.000 C 
ENDBRANCH  12  20
ENDBRANCH   1  14
BRANCH   9  21
ATOM     21  C   UNL     1       4.499   6.778  17.127  0.00  0.00    +0.000 C 
ATOM     22  C   UNL     1       5.982   6.853  16.875  0.00  0.00    +0.000 C 
ATOM     23  C   UNL     1       5.107   6.116  15.910  0.00  0.00    +0.000 C 
ENDBRANCH   9  21
BRANCH   7  24
ATOM     24  C   UNL     1       4.411   2.484  19.563  0.00  0.00    +0.000 C 
ATOM     25  O   UNL     1       5.144   2.190  20.503  0.00  0.00    +0.000 OA
BRANCH  24  26
ATOM     26  O   UNL     1       4.066   1.581  18.621  0.00  0.00    +0.000 OA
ATOM     27  H   UNL     1       3.941   1.953  17.714  0.00  0.00    +0.000 HD
ENDBRANCH  24  26
ENDBRANCH   7  24
TORSDOF 5
ENDMDL
MODEL 7
REMARK VINA RESULT:      -7.2      2.673      3.986
REMARK  Name = 
REMARK  6 active torsions:
REMARK  status: ('A' for Active; 'I' for Inactive)
REMARK    1  A    between atoms: C_1  and  C_2
REMARK    2  A    between atoms: C_2  and  C_3
REMARK    3  A    between atoms: N_5  and  C_6
REMARK    4  A    between atoms: C_12  and  C_13
REMARK    5  A    between atoms: C_13  and  O_15
REMARK    6  A    between atoms: N_17  and  C_18
REMARK                            x       y       z     vdW  Elec       q    Type
REMARK                         _______ _______ _______ _____ _____    ______ ____
ROOT
ATOM      1  C   UNL     1       1.542   9.109  18.953  0.00  0.00    +0.000 A 
ATOM      2  C   UNL     1       1.082   8.653  20.193  0.00  0.00    +0.000 A 
ATOM      3  C   UNL     1       1.392   7.372  20.646  0.00  0.00    +0.000 A 
ATOM      4  C   UNL     1       2.222   6.553  19.880  0.00  0.00    +0.000 A 
ATOM      5  C   UNL     1       2.533   5.189  20.359  0.00  0.00    +0.000 A 
ATOM      6  O   UNL     1       1.989   4.722  21.355  0.00  0.00    +0.000 OA
ATOM      7  C   UNL     1       3.524   4.391  19.603  0.00  0.00    +0.000 A 
ATOM      8  C   UNL     1       4.040   4.942  18.492  0.00  0.00    +0.000 A 
ATOM      9  N   UNL     1       3.696   6.178  17.959  0.00  0.00    +0.000 N 
ATOM     10  C   UNL     1       2.769   6.996  18.669  0.00  0.00    +0.000 A 
ATOM     11  C   UNL     1       2.377   8.258  18.210  0.00  0.00    +0.000 A 
ENDROOT
BRANCH   1  14
ATOM     12  C   UNL     1       2.108  12.623  18.913  0.00  0.00    +0.000 C 
ATOM     13  C   UNL     1       2.234  11.330  18.065  0.00  0.00    +0.000 C 
ATOM     14  N   UNL     1       1.222  10.352  18.460  0.00  0.00    +0.000 N 
ATOM     15  C   UNL     1      -0.159  10.848  18.482  0.00  0.00    +0.000 C 
ATOM     16  C   UNL     1      -0.235  12.155  19.300  0.00  0.00    +0.000 C 
ATOM     17  N   UNL     1       0.731  13.183  18.863  0.00  0.00    +0.000 NA
ATOM     18  H   UNL     1       0.668  13.983  19.491  0.00  0.00    +0.000 HD
BRANCH  12  20
ATOM     19  C   UNL     1       2.494  15.087  18.379  0.00  0.00    +0.000 C 
ATOM     20  C   UNL     1       3.106  13.692  18.433  0.00  0.00    +0.000 C 
ENDBRANCH  12  20
ENDBRANCH   1  14
BRANCH   9  21
ATOM     21  C   UNL     1       4.452   6.736  16.810  0.00  0.00    +0.000 C 
ATOM     22  C   UNL     1       5.950   6.793  16.669  0.00  0.00    +0.000 C 
ATOM     23  C   UNL     1       5.173   5.785  15.880  0.00  0.00    +0.000 C 
ENDBRANCH   9  21
BRANCH   7  24
ATOM     24  C   UNL     1       3.946   3.042  20.047  0.00  0.00    +0.000 C 
ATOM     25  O   UNL     1       5.086   2.622  19.875  0.00  0.00    +0.000 OA
BRANCH  24  26
ATOM     26  O   UNL     1       2.999   2.298  20.655  0.00  0.00    +0.000 OA
ATOM     27  H   UNL     1       2.174   2.788  20.894  0.00  0.00    +0.000 HD
ENDBRANCH  24  26
ENDBRANCH   7  24
TORSDOF 5
ENDMDL
MODEL 8
REMARK VINA RESULT:      -7.2      2.882      7.253
REMARK  Name = 
REMARK  6 active torsions:
REMARK  status: ('A' for Active; 'I' for Inactive)
REMARK    1  A    between atoms: C_1  and  C_2
REMARK    2  A    between atoms: C_2  and  C_3
REMARK    3  A    between atoms: N_5  and  C_6
REMARK    4  A    between atoms: C_12  and  C_13
REMARK    5  A    between atoms: C_13  and  O_15
REMARK    6  A    between atoms: N_17  and  C_18
REMARK                            x       y       z     vdW  Elec       q    Type
REMARK                         _______ _______ _______ _____ _____    ______ ____
ROOT
ATOM      1  C   UNL     1       2.441   6.562  19.376  0.00  0.00    +0.000 A 
ATOM      2  C   UNL     1       2.955   7.087  18.185  0.00  0.00    +0.000 A 
ATOM      3  C   UNL     1       2.730   8.415  17.831  0.00  0.00    +0.000 A 
ATOM      4  C   UNL     1       2.032   9.252  18.702  0.00  0.00    +0.000 A 
ATOM      5  C   UNL     1       1.782  10.655  18.311  0.00  0.00    +0.000 A 
ATOM      6  O   UNL     1       2.075  11.070  17.193  0.00  0.00    +0.000 OA
ATOM      7  C   UNL     1       1.165  11.560  19.307  0.00  0.00    +0.000 A 
ATOM      8  C   UNL     1       0.820  11.028  20.491  0.00  0.00    +0.000 A 
ATOM      9  N   UNL     1       0.948   9.693  20.855  0.00  0.00    +0.000 N 
ATOM     10  C   UNL     1       1.565   8.791  19.940  0.00  0.00    +0.000 A 
ATOM     11  C   UNL     1       1.745   7.434  20.230  0.00  0.00    +0.000 A 
ENDROOT
BRANCH   1  14
ATOM     12  C   UNL     1       2.107   3.106  18.593  0.00  0.00    +0.000 C 
ATOM     13  C   UNL     1       3.142   4.238  18.822  0.00  0.00    +0.000 C 
ATOM     14  N   UNL     1       2.612   5.247  19.737  0.00  0.00    +0.000 N 
ATOM     15  C   UNL     1       2.089   4.731  21.008  0.00  0.00    +0.000 C 
ATOM     16  C   UNL     1       1.095   3.581  20.739  0.00  0.00    +0.000 C 
ATOM     17  N   UNL     1       1.643   2.515  19.877  0.00  0.00    +0.000 NA
ATOM     18  H   UNL     1       0.910   1.833  19.689  0.00  0.00    +0.000 HD
BRANCH  12  20
ATOM     19  C   UNL     1       3.794   1.201  18.415  0.00  0.00    +0.000 C 
ATOM     20  C   UNL     1       2.699   1.994  17.709  0.00  0.00    +0.000 C 
ENDBRANCH  12  20
ENDBRANCH   1  14
BRANCH   9  21
ATOM     21  C   UNL     1       0.670   9.265  22.249  0.00  0.00    +0.000 C 
ATOM     22  C   UNL     1      -0.260   9.940  23.222  0.00  0.00    +0.000 C 
ATOM     23  C   UNL     1      -0.678   8.659  22.570  0.00  0.00    +0.000 C 
ENDBRANCH   9  21
BRANCH   7  24
ATOM     24  C   UNL     1       0.939  12.997  19.026  0.00  0.00    +0.000 C 
ATOM     25  O   UNL     1      -0.163  13.523  19.151  0.00  0.00    +0.000 OA
BRANCH  24  26
ATOM     26  O   UNL     1       2.020  13.697  18.624  0.00  0.00    +0.000 OA
ATOM     27  H   UNL     1       1.817  14.546  18.162  0.00  0.00    +0.000 HD
ENDBRANCH  24  26
ENDBRANCH   7  24
TORSDOF 5
ENDMDL
MODEL 9
REMARK VINA RESULT:      -7.1      3.920      8.143
REMARK  Name = 
REMARK  6 active torsions:
REMARK  status: ('A' for Active; 'I' for Inactive)
REMARK    1  A    between atoms: C_1  and  C_2
REMARK    2  A    between atoms: C_2  and  C_3
REMARK    3  A    between atoms: N_5  and  C_6
REMARK    4  A    between atoms: C_12  and  C_13
REMARK    5  A    between atoms: C_13  and  O_15
REMARK    6  A    between atoms: N_17  and  C_18
REMARK                            x       y       z     vdW  Elec       q    Type
REMARK                         _______ _______ _______ _____ _____    ______ ____
ROOT
ATOM      1  C   UNL     1       1.935   7.711  19.197  0.00  0.00    +0.000 A 
ATOM      2  C   UNL     1       2.052   7.346  20.543  0.00  0.00    +0.000 A 
ATOM      3  C   UNL     1       1.488   8.128  21.550  0.00  0.00    +0.000 A 
ATOM      4  C   UNL     1       0.746   9.258  21.209  0.00  0.00    +0.000 A 
ATOM      5  C   UNL     1       0.165  10.092  22.283  0.00  0.00    +0.000 A 
ATOM      6  O   UNL     1       0.414   9.877  23.465  0.00  0.00    +0.000 OA
ATOM      7  C   UNL     1      -0.733  11.204  21.898  0.00  0.00    +0.000 A 
ATOM      8  C   UNL     1      -0.920  11.417  20.585  0.00  0.00    +0.000 A 
ATOM      9  N   UNL     1      -0.312  10.718  19.550  0.00  0.00    +0.000 N 
ATOM     10  C   UNL     1       0.537   9.619  19.872  0.00  0.00    +0.000 A 
ATOM     11  C   UNL     1       1.179   8.854  18.892  0.00  0.00    +0.000 A 
ENDROOT
BRANCH   1  14
ATOM     12  C   UNL     1       3.478   4.702  18.086  0.00  0.00    +0.000 C 
ATOM     13  C   UNL     1       2.203   5.574  17.947  0.00  0.00    +0.000 C 
ATOM     14  N   UNL     1       2.512   6.983  18.183  0.00  0.00    +0.000 N 
ATOM     15  C   UNL     1       3.624   7.525  17.393  0.00  0.00    +0.000 C 
ATOM     16  C   UNL     1       4.858   6.609  17.526  0.00  0.00    +0.000 C 
ATOM     17  N   UNL     1       4.579   5.193  17.215  0.00  0.00    +0.000 NA
ATOM     18  H   UNL     1       5.420   4.644  17.392  0.00  0.00    +0.000 HD
BRANCH  12  20
ATOM     19  C   UNL     1       1.782   2.799  18.179  0.00  0.00    +0.000 C 
ATOM     20  C   UNL     1       3.176   3.233  17.740  0.00  0.00    +0.000 C 
ENDBRANCH  12  20
ENDBRANCH   1  14
BRANCH   9  21
ATOM     21  C   UNL     1      -0.722  10.954  18.142  0.00  0.00    +0.000 C 
ATOM     22  C   UNL     1      -1.746  10.168  17.367  0.00  0.00    +0.000 C 
ATOM     23  C   UNL     1      -2.092  11.535  17.869  0.00  0.00    +0.000 C 
ENDBRANCH   9  21
BRANCH   7  24
ATOM     24  C   UNL     1      -1.412  12.049  22.908  0.00  0.00    +0.000 C 
ATOM     25  O   UNL     1      -2.587  11.881  23.220  0.00  0.00    +0.000 OA
BRANCH  24  26
ATOM     26  O   UNL     1      -0.659  13.018  23.469  0.00  0.00    +0.000 OA
ATOM     27  H   UNL     1      -0.858  13.202  24.419  0.00  0.00    +0.000 HD
ENDBRANCH  24  26
ENDBRANCH   7  24
TORSDOF 5
ENDMDL
