MODEL 1
REMARK VINA RESULT:      -7.0      0.000      0.000
REMARK  Name = 
REMARK  4 active torsions:
REMARK  status: ('A' for Active; 'I' for Inactive)
REMARK    1  A    between atoms: C_2  and  C_3
REMARK    2  A    between atoms: N_4  and  O_5
REMARK    3  A    between atoms: N_6  and  C_7
REMARK    4  A    between atoms: C_18  and  C_19
REMARK                            x       y       z     vdW  Elec       q    Type
REMARK                         _______ _______ _______ _____ _____    ______ ____
ROOT
ATOM      1  O   UNL     1       7.978   4.913  17.907  0.00  0.00    +0.000 OA
ATOM      2  C   UNL     1       6.891   4.792  17.330  0.00  0.00    +0.000 C 
ATOM      3  N   UNL     1       6.718   4.865  15.930  0.00  0.00    +0.000 N 
ATOM      4  C   UNL     1       7.910   4.766  15.095  0.00  0.00    +0.000 C 
ATOM      5  C   UNL     1       7.736   5.440  13.730  0.00  0.00    +0.000 C 
ATOM      6  C   UNL     1       6.442   5.038  12.989  0.00  0.00    +0.000 C 
ATOM      7  C   UNL     1       5.269   5.257  13.948  0.00  0.00    +0.000 C 
ATOM      8  C   UNL     1       5.457   4.532  15.267  0.00  0.00    +0.000 C 
ENDROOT
BRANCH   6   9
ATOM      9  C   UNL     1       6.410   3.674  12.303  0.00  0.00    +0.000 A 
ATOM     10  C   UNL     1       7.562   3.018  11.849  0.00  0.00    +0.000 A 
ATOM     11  C   UNL     1       7.480   1.807  11.154  0.00  0.00    +0.000 A 
ATOM     12  C   UNL     1       6.243   1.227  10.896  0.00  0.00    +0.000 A 
ATOM     13  C   UNL     1       5.083   1.855  11.339  0.00  0.00    +0.000 A 
ATOM     14  C   UNL     1       5.168   3.068  12.029  0.00  0.00    +0.000 A 
ENDBRANCH   6   9
BRANCH   2  15
ATOM     15  C   UNL     1       5.637   4.648  18.241  0.00  0.00    +0.000 C 
ATOM     16  N   UNL     1       5.124   5.771  18.663  0.00  0.00    +0.000 NA
ATOM     17  N   UNL     1       5.240   3.339  18.515  0.00  0.00    +0.000 N 
ATOM     18  H   UNL     1       5.798   2.610  18.077  0.00  0.00    +0.000 HD
BRANCH  17  19
ATOM     19  C   UNL     1       3.911   2.952  18.800  0.00  0.00    +0.000 A 
ATOM     20  C   UNL     1       2.928   2.886  17.796  0.00  0.00    +0.000 A 
ATOM     21  C   UNL     1       1.576   2.764  18.113  0.00  0.00    +0.000 A 
ATOM     22  C   UNL     1       1.201   2.648  19.442  0.00  0.00    +0.000 A 
ATOM     23  F   UNL     1      -0.106   2.589  19.736  0.00  0.00    +0.000 F 
ATOM     24  C   UNL     1       2.166   2.612  20.447  0.00  0.00    +0.000 A 
ATOM     25 CL   UNL     1       1.696   2.454  22.097  0.00  0.00    +0.000 Cl
ATOM     26  C   UNL     1       3.521   2.752  20.130  0.00  0.00    +0.000 A 
ENDBRANCH  17  19
BRANCH  16  27
ATOM     27  O   UNL     1       4.270   5.594  19.762  0.00  0.00    +0.000 OA
ATOM     28  H   UNL     1       3.411   5.414  19.346  0.00  0.00    +0.000 HD
ENDBRANCH  16  27
ENDBRANCH   2  15
TORSDOF 4
ENDMDL
MODEL 2
REMARK VINA RESULT:      -6.8      5.385      6.285
REMARK  Name = 
REMARK  4 active torsions:
REMARK  status: ('A' for Active; 'I' for Inactive)
REMARK    1  A    between atoms: C_2  and  C_3
REMARK    2  A    between atoms: N_4  and  O_5
REMARK    3  A    between atoms: N_6  and  C_7
REMARK    4  A    between atoms: C_18  and  C_19
REMARK                            x       y       z     vdW  Elec       q    Type
REMARK                         _______ _______ _______ _____ _____    ______ ____
ROOT
ATOM      1  O   UNL     1       1.846   5.898  19.179  0.00  0.00    +0.000 OA
ATOM      2  C   UNL     1       2.617   6.637  18.556  0.00  0.00    +0.000 C 
ATOM      3  N   UNL     1       3.867   6.232  18.038  0.00  0.00    +0.000 N 
ATOM      4  C   UNL     1       4.134   4.799  17.957  0.00  0.00    +0.000 C 
ATOM      5  C   UNL     1       5.630   4.471  17.983  0.00  0.00    +0.000 C 
ATOM      6  C   UNL     1       6.475   5.302  16.993  0.00  0.00    +0.000 C 
ATOM      7  C   UNL     1       6.155   6.780  17.234  0.00  0.00    +0.000 C 
ATOM      8  C   UNL     1       4.669   7.071  17.148  0.00  0.00    +0.000 C 
ENDROOT
BRANCH   6   9
ATOM      9  C   UNL     1       6.430   4.910  15.518  0.00  0.00    +0.000 A 
ATOM     10  C   UNL     1       5.435   4.087  14.974  0.00  0.00    +0.000 A 
ATOM     11  C   UNL     1       5.477   3.688  13.634  0.00  0.00    +0.000 A 
ATOM     12  C   UNL     1       6.518   4.102  12.809  0.00  0.00    +0.000 A 
ATOM     13  C   UNL     1       7.517   4.922  13.323  0.00  0.00    +0.000 A 
ATOM     14  C   UNL     1       7.475   5.316  14.663  0.00  0.00    +0.000 A 
ENDBRANCH   6   9
BRANCH   2  15
ATOM     15  C   UNL     1       2.197   8.131  18.435  0.00  0.00    +0.000 C 
ATOM     16  N   UNL     1       2.434   8.682  17.275  0.00  0.00    +0.000 NA
ATOM     17  N   UNL     1       1.653   8.699  19.586  0.00  0.00    +0.000 N 
ATOM     18  H   UNL     1       1.567   8.075  20.385  0.00  0.00    +0.000 HD
BRANCH  17  19
ATOM     19  C   UNL     1       0.725   9.765  19.587  0.00  0.00    +0.000 A 
ATOM     20  C   UNL     1       0.827  10.835  20.493  0.00  0.00    +0.000 A 
ATOM     21  C   UNL     1      -0.220  11.738  20.669  0.00  0.00    +0.000 A 
ATOM     22  C   UNL     1      -1.361  11.610  19.893  0.00  0.00    +0.000 A 
ATOM     23  F   UNL     1      -2.383  12.450  20.112  0.00  0.00    +0.000 F 
ATOM     24  C   UNL     1      -1.444  10.616  18.920  0.00  0.00    +0.000 A 
ATOM     25 CL   UNL     1      -2.859  10.468  17.948  0.00  0.00    +0.000 Cl
ATOM     26  C   UNL     1      -0.400   9.699  18.755  0.00  0.00    +0.000 A 
ENDBRANCH  17  19
BRANCH  16  27
ATOM     27  O   UNL     1       2.410  10.084  17.330  0.00  0.00    +0.000 OA
ATOM     28  H   UNL     1       2.678  10.273  18.244  0.00  0.00    +0.000 HD
ENDBRANCH  16  27
ENDBRANCH   2  15
TORSDOF 4
ENDMDL
MODEL 3
REMARK VINA RESULT:      -6.8     10.738     12.402
REMARK  Name = 
REMARK  4 active torsions:
REMARK  status: ('A' for Active; 'I' for Inactive)
REMARK    1  A    between atoms: C_2  and  C_3
REMARK    2  A    between atoms: N_4  and  O_5
REMARK    3  A    between atoms: N_6  and  C_7
REMARK    4  A    between atoms: C_18  and  C_19
REMARK                            x       y       z     vdW  Elec       q    Type
REMARK                         _______ _______ _______ _____ _____    ______ ____
ROOT
ATOM      1  O   UNL     1       2.570  11.341  18.063  0.00  0.00    +0.000 OA
ATOM      2  C   UNL     1       1.613  11.960  18.539  0.00  0.00    +0.000 C 
ATOM      3  N   UNL     1       1.631  13.336  18.861  0.00  0.00    +0.000 N 
ATOM      4  C   UNL     1       2.721  14.142  18.321  0.00  0.00    +0.000 C 
ATOM      5  C   UNL     1       3.012  15.388  19.164  0.00  0.00    +0.000 C 
ATOM      6  C   UNL     1       1.758  16.220  19.513  0.00  0.00    +0.000 C 
ATOM      7  C   UNL     1       0.729  15.271  20.134  0.00  0.00    +0.000 C 
ATOM      8  C   UNL     1       0.431  14.078  19.245  0.00  0.00    +0.000 C 
ENDROOT
BRANCH   6   9
ATOM      9  C   UNL     1       1.171  17.112  18.423  0.00  0.00    +0.000 A 
ATOM     10  C   UNL     1      -0.171  17.512  18.401  0.00  0.00    +0.000 A 
ATOM     11  C   UNL     1      -0.686  18.265  17.340  0.00  0.00    +0.000 A 
ATOM     12  C   UNL     1       0.131  18.631  16.276  0.00  0.00    +0.000 A 
ATOM     13  C   UNL     1       1.468  18.249  16.273  0.00  0.00    +0.000 A 
ATOM     14  C   UNL     1       1.979  17.494  17.332  0.00  0.00    +0.000 A 
ENDBRANCH   6   9
BRANCH   2  15
ATOM     15  C   UNL     1       0.349  11.120  18.886  0.00  0.00    +0.000 C 
ATOM     16  N   UNL     1       0.355  10.569  20.069  0.00  0.00    +0.000 NA
ATOM     17  N   UNL     1      -0.614  11.036  17.880  0.00  0.00    +0.000 N 
ATOM     18  H   UNL     1      -0.402  11.549  17.027  0.00  0.00    +0.000 HD
BRANCH  17  19
ATOM     19  C   UNL     1      -1.995  10.851  18.112  0.00  0.00    +0.000 A 
ATOM     20  C   UNL     1      -2.712   9.799  17.514  0.00  0.00    +0.000 A 
ATOM     21  C   UNL     1      -4.106   9.772  17.529  0.00  0.00    +0.000 A 
ATOM     22  C   UNL     1      -4.794  10.771  18.199  0.00  0.00    +0.000 A 
ATOM     23  F   UNL     1      -6.134  10.764  18.158  0.00  0.00    +0.000 F 
ATOM     24  C   UNL     1      -4.102  11.769  18.881  0.00  0.00    +0.000 A 
ATOM     25 CL   UNL     1      -4.961  13.002  19.722  0.00  0.00    +0.000 Cl
ATOM     26  C   UNL     1      -2.704  11.807  18.851  0.00  0.00    +0.000 A 
ENDBRANCH  17  19
BRANCH  16  27
ATOM     27  O   UNL     1      -0.584   9.533  20.187  0.00  0.00    +0.000 OA
ATOM     28  H   UNL     1      -0.580   9.339  21.138  0.00  0.00    +0.000 HD
ENDBRANCH  16  27
ENDBRANCH   2  15
TORSDOF 4
ENDMDL
MODEL 4
REMARK VINA RESULT:      -6.7      5.529      6.396
REMARK  Name = 
REMARK  4 active torsions:
REMARK  status: ('A' for Active; 'I' for Inactive)
REMARK    1  A    between atoms: C_2  and  C_3
REMARK    2  A    between atoms: N_4  and  O_5
REMARK    3  A    between atoms: N_6  and  C_7
REMARK    4  A    between atoms: C_18  and  C_19
REMARK                            x       y       z     vdW  Elec       q    Type
REMARK                         _______ _______ _______ _____ _____    ______ ____
ROOT
ATOM      1  O   UNL     1       1.877   5.870  19.406  0.00  0.00    +0.000 OA
ATOM      2  C   UNL     1       2.601   6.619  18.743  0.00  0.00    +0.000 C 
ATOM      3  N   UNL     1       3.848   6.246  18.196  0.00  0.00    +0.000 N 
ATOM      4  C   UNL     1       4.163   4.822  18.139  0.00  0.00    +0.000 C 
ATOM      5  C   UNL     1       5.671   4.548  18.125  0.00  0.00    +0.000 C 
ATOM      6  C   UNL     1       6.455   5.383  17.090  0.00  0.00    +0.000 C 
ATOM      7  C   UNL     1       6.090   6.854  17.308  0.00  0.00    +0.000 C 
ATOM      8  C   UNL     1       4.592   7.092  17.262  0.00  0.00    +0.000 C 
ENDROOT
BRANCH   6   9
ATOM      9  C   UNL     1       6.379   4.956  15.627  0.00  0.00    +0.000 A 
ATOM     10  C   UNL     1       5.344   4.163  15.114  0.00  0.00    +0.000 A 
ATOM     11  C   UNL     1       5.356   3.727  13.784  0.00  0.00    +0.000 A 
ATOM     12  C   UNL     1       6.406   4.073  12.940  0.00  0.00    +0.000 A 
ATOM     13  C   UNL     1       7.445   4.861  13.423  0.00  0.00    +0.000 A 
ATOM     14  C   UNL     1       7.432   5.292  14.753  0.00  0.00    +0.000 A 
ENDBRANCH   6   9
BRANCH   2  15
ATOM     15  C   UNL     1       2.125   8.095  18.601  0.00  0.00    +0.000 C 
ATOM     16  N   UNL     1       2.221   8.597  17.400  0.00  0.00    +0.000 NA
ATOM     17  N   UNL     1       1.686   8.702  19.777  0.00  0.00    +0.000 N 
ATOM     18  H   UNL     1       1.703   8.114  20.608  0.00  0.00    +0.000 HD
BRANCH  17  19
ATOM     19  C   UNL     1       0.731   9.742  19.829  0.00  0.00    +0.000 A 
ATOM     20  C   UNL     1      -0.488   9.663  19.133  0.00  0.00    +0.000 A 
ATOM     21  C   UNL     1      -1.304  10.782  18.971  0.00  0.00    +0.000 A 
ATOM     22  C   UNL     1      -0.932  11.981  19.558  0.00  0.00    +0.000 A 
ATOM     23  F   UNL     1      -1.695  13.063  19.347  0.00  0.00    +0.000 F 
ATOM     24  C   UNL     1       0.223  12.058  20.335  0.00  0.00    +0.000 A 
ATOM     25 CL   UNL     1       0.676  13.547  21.073  0.00  0.00    +0.000 Cl
ATOM     26  C   UNL     1       1.050  10.939  20.483  0.00  0.00    +0.000 A 
ENDBRANCH  17  19
BRANCH  16  27
ATOM     27  O   UNL     1       2.159   9.998  17.395  0.00  0.00    +0.000 OA
ATOM     28  H   UNL     1       3.094  10.260  17.426  0.00  0.00    +0.000 HD
ENDBRANCH  16  27
ENDBRANCH   2  15
TORSDOF 4
ENDMDL
MODEL 5
REMARK VINA RESULT:      -6.6      6.230      9.027
REMARK  Name = 
REMARK  4 active torsions:
REMARK  status: ('A' for Active; 'I' for Inactive)
REMARK    1  A    between atoms: C_2  and  C_3
REMARK    2  A    between atoms: N_4  and  O_5
REMARK    3  A    between atoms: N_6  and  C_7
REMARK    4  A    between atoms: C_18  and  C_19
REMARK                            x       y       z     vdW  Elec       q    Type
REMARK                         _______ _______ _______ _____ _____    ______ ____
ROOT
ATOM      1  O   UNL     1       1.331   6.426  21.284  0.00  0.00    +0.000 OA
ATOM      2  C   UNL     1       1.722   6.945  20.233  0.00  0.00    +0.000 C 
ATOM      3  N   UNL     1       1.322   8.219  19.774  0.00  0.00    +0.000 N 
ATOM      4  C   UNL     1       0.658   9.103  20.726  0.00  0.00    +0.000 C 
ATOM      5  C   UNL     1      -0.248  10.135  20.045  0.00  0.00    +0.000 C 
ATOM      6  C   UNL     1       0.424  10.894  18.881  0.00  0.00    +0.000 C 
ATOM      7  C   UNL     1       1.012   9.852  17.925  0.00  0.00    +0.000 C 
ATOM      8  C   UNL     1       1.943   8.882  18.627  0.00  0.00    +0.000 C 
ENDROOT
BRANCH   6   9
ATOM      9  C   UNL     1       1.406  12.009  19.231  0.00  0.00    +0.000 A 
ATOM     10  C   UNL     1       1.478  12.594  20.503  0.00  0.00    +0.000 A 
ATOM     11  C   UNL     1       2.337  13.668  20.759  0.00  0.00    +0.000 A 
ATOM     12  C   UNL     1       3.140  14.182  19.747  0.00  0.00    +0.000 A 
ATOM     13  C   UNL     1       3.091  13.619  18.476  0.00  0.00    +0.000 A 
ATOM     14  C   UNL     1       2.229  12.548  18.222  0.00  0.00    +0.000 A 
ENDBRANCH   6   9
BRANCH   2  15
ATOM     15  C   UNL     1       2.643   6.071  19.331  0.00  0.00    +0.000 C 
ATOM     16  N   UNL     1       2.039   5.112  18.684  0.00  0.00    +0.000 NA
ATOM     17  N   UNL     1       3.998   6.402  19.353  0.00  0.00    +0.000 N 
ATOM     18  H   UNL     1       4.246   7.195  19.942  0.00  0.00    +0.000 HD
BRANCH  17  19
ATOM     19  C   UNL     1       4.890   6.182  18.280  0.00  0.00    +0.000 A 
ATOM     20  C   UNL     1       4.544   6.495  16.953  0.00  0.00    +0.000 A 
ATOM     21  C   UNL     1       5.307   6.040  15.879  0.00  0.00    +0.000 A 
ATOM     22  C   UNL     1       6.461   5.313  16.129  0.00  0.00    +0.000 A 
ATOM     23  F   UNL     1       7.154   4.833  15.086  0.00  0.00    +0.000 F 
ATOM     24  C   UNL     1       6.875   5.075  17.438  0.00  0.00    +0.000 A 
ATOM     25 CL   UNL     1       8.316   4.182  17.744  0.00  0.00    +0.000 Cl
ATOM     26  C   UNL     1       6.100   5.517  18.515  0.00  0.00    +0.000 A 
ENDBRANCH  17  19
BRANCH  16  27
ATOM     27  O   UNL     1       2.930   4.136  18.213  0.00  0.00    +0.000 OA
ATOM     28  H   UNL     1       3.605   4.659  17.750  0.00  0.00    +0.000 HD
ENDBRANCH  16  27
ENDBRANCH   2  15
TORSDOF 4
ENDMDL
MODEL 6
REMARK VINA RESULT:      -6.5      6.464      8.794
REMARK  Name = 
REMARK  4 active torsions:
REMARK  status: ('A' for Active; 'I' for Inactive)
REMARK    1  A    between atoms: C_2  and  C_3
REMARK    2  A    between atoms: N_4  and  O_5
REMARK    3  A    between atoms: N_6  and  C_7
REMARK    4  A    between atoms: C_18  and  C_19
REMARK                            x       y       z     vdW  Elec       q    Type
REMARK                         _______ _______ _______ _____ _____    ______ ____
ROOT
ATOM      1  O   UNL     1       1.682   7.541  21.569  0.00  0.00    +0.000 OA
ATOM      2  C   UNL     1       1.662   7.869  20.379  0.00  0.00    +0.000 C 
ATOM      3  N   UNL     1       1.018   9.023  19.879  0.00  0.00    +0.000 N 
ATOM      4  C   UNL     1       0.621  10.046  20.841  0.00  0.00    +0.000 C 
ATOM      5  C   UNL     1      -0.548  10.904  20.346  0.00  0.00    +0.000 C 
ATOM      6  C   UNL     1      -0.363  11.457  18.917  0.00  0.00    +0.000 C 
ATOM      7  C   UNL     1      -0.023  10.277  18.002  0.00  0.00    +0.000 C 
ATOM      8  C   UNL     1       1.170   9.484  18.499  0.00  0.00    +0.000 C 
ENDROOT
BRANCH   6   9
ATOM      9  C   UNL     1       0.572  12.649  18.731  0.00  0.00    +0.000 A 
ATOM     10  C   UNL     1       1.925  12.516  18.391  0.00  0.00    +0.000 A 
ATOM     11  C   UNL     1       2.766  13.631  18.309  0.00  0.00    +0.000 A 
ATOM     12  C   UNL     1       2.271  14.905  18.569  0.00  0.00    +0.000 A 
ATOM     13  C   UNL     1       0.931  15.066  18.906  0.00  0.00    +0.000 A 
ATOM     14  C   UNL     1       0.095  13.950  18.991  0.00  0.00    +0.000 A 
ENDBRANCH   6   9
BRANCH   2  15
ATOM     15  C   UNL     1       2.317   6.875  19.375  0.00  0.00    +0.000 C 
ATOM     16  N   UNL     1       3.335   7.347  18.709  0.00  0.00    +0.000 NA
ATOM     17  N   UNL     1       1.714   5.620  19.290  0.00  0.00    +0.000 N 
ATOM     18  H   UNL     1       0.918   5.473  19.907  0.00  0.00    +0.000 HD
BRANCH  17  19
ATOM     19  C   UNL     1       2.392   4.433  18.934  0.00  0.00    +0.000 A 
ATOM     20  C   UNL     1       2.065   3.715  17.770  0.00  0.00    +0.000 A 
ATOM     21  C   UNL     1       2.544   2.422  17.557  0.00  0.00    +0.000 A 
ATOM     22  C   UNL     1       3.405   1.859  18.486  0.00  0.00    +0.000 A 
ATOM     23  F   UNL     1       3.812   0.596  18.299  0.00  0.00    +0.000 F 
ATOM     24  C   UNL     1       3.819   2.590  19.598  0.00  0.00    +0.000 A 
ATOM     25 CL   UNL     1       4.899   1.891  20.743  0.00  0.00    +0.000 Cl
ATOM     26  C   UNL     1       3.325   3.880  19.820  0.00  0.00    +0.000 A 
ENDBRANCH  17  19
BRANCH  16  27
ATOM     27  O   UNL     1       3.636   6.584  17.572  0.00  0.00    +0.000 OA
ATOM     28  H   UNL     1       3.553   7.226  16.848  0.00  0.00    +0.000 HD
ENDBRANCH  16  27
ENDBRANCH   2  15
TORSDOF 4
ENDMDL
MODEL 7
REMARK VINA RESULT:      -6.5      6.804      9.457
REMARK  Name = 
REMARK  4 active torsions:
REMARK  status: ('A' for Active; 'I' for Inactive)
REMARK    1  A    between atoms: C_2  and  C_3
REMARK    2  A    between atoms: N_4  and  O_5
REMARK    3  A    between atoms: N_6  and  C_7
REMARK    4  A    between atoms: C_18  and  C_19
REMARK                            x       y       z     vdW  Elec       q    Type
REMARK                         _______ _______ _______ _____ _____    ______ ____
ROOT
ATOM      1  O   UNL     1       2.772   9.300  17.432  0.00  0.00    +0.000 OA
ATOM      2  C   UNL     1       2.081   9.081  18.432  0.00  0.00    +0.000 C 
ATOM      3  N   UNL     1       1.257  10.041  19.061  0.00  0.00    +0.000 N 
ATOM      4  C   UNL     1       0.961  11.264  18.323  0.00  0.00    +0.000 C 
ATOM      5  C   UNL     1       0.619  12.443  19.240  0.00  0.00    +0.000 C 
ATOM      6  C   UNL     1      -0.436  12.116  20.320  0.00  0.00    +0.000 C 
ATOM      7  C   UNL     1       0.033  10.862  21.063  0.00  0.00    +0.000 C 
ATOM      8  C   UNL     1       0.311   9.704  20.124  0.00  0.00    +0.000 C 
ENDROOT
BRANCH   6   9
ATOM      9  C   UNL     1      -1.898  12.047  19.888  0.00  0.00    +0.000 A 
ATOM     10  C   UNL     1      -2.316  11.442  18.696  0.00  0.00    +0.000 A 
ATOM     11  C   UNL     1      -3.658  11.472  18.300  0.00  0.00    +0.000 A 
ATOM     12  C   UNL     1      -4.610  12.111  19.087  0.00  0.00    +0.000 A 
ATOM     13  C   UNL     1      -4.222  12.718  20.278  0.00  0.00    +0.000 A 
ATOM     14  C   UNL     1      -2.880  12.690  20.669  0.00  0.00    +0.000 A 
ENDBRANCH   6   9
BRANCH   2  15
ATOM     15  C   UNL     1       2.222   7.670  19.075  0.00  0.00    +0.000 C 
ATOM     16  N   UNL     1       1.683   7.540  20.256  0.00  0.00    +0.000 NA
ATOM     17  N   UNL     1       2.933   6.734  18.323  0.00  0.00    +0.000 N 
ATOM     18  H   UNL     1       3.271   7.061  17.421  0.00  0.00    +0.000 HD
BRANCH  17  19
ATOM     19  C   UNL     1       2.726   5.338  18.387  0.00  0.00    +0.000 A 
ATOM     20  C   UNL     1       1.538   4.743  17.926  0.00  0.00    +0.000 A 
ATOM     21  C   UNL     1       1.227   3.418  18.226  0.00  0.00    +0.000 A 
ATOM     22  C   UNL     1       2.136   2.656  18.944  0.00  0.00    +0.000 A 
ATOM     23  F   UNL     1       1.800   1.401  19.275  0.00  0.00    +0.000 F 
ATOM     24  C   UNL     1       3.362   3.196  19.326  0.00  0.00    +0.000 A 
ATOM     25 CL   UNL     1       4.494   2.242  20.207  0.00  0.00    +0.000 Cl
ATOM     26  C   UNL     1       3.666   4.531  19.040  0.00  0.00    +0.000 A 
ENDBRANCH  17  19
BRANCH  16  27
ATOM     27  O   UNL     1       2.159   6.416  20.946  0.00  0.00    +0.000 OA
ATOM     28  H   UNL     1       1.412   6.176  21.519  0.00  0.00    +0.000 HD
ENDBRANCH  16  27
ENDBRANCH   2  15
TORSDOF 4
ENDMDL
MODEL 8
REMARK VINA RESULT:      -6.4     11.530     13.101
REMARK  Name = 
REMARK  4 active torsions:
REMARK  status: ('A' for Active; 'I' for Inactive)
REMARK    1  A    between atoms: C_2  and  C_3
REMARK    2  A    between atoms: N_4  and  O_5
REMARK    3  A    between atoms: N_6  and  C_7
REMARK    4  A    between atoms: C_18  and  C_19
REMARK                            x       y       z     vdW  Elec       q    Type
REMARK                         _______ _______ _______ _____ _____    ______ ____
ROOT
ATOM      1  O   UNL     1       4.926  15.217  21.439  0.00  0.00    +0.000 OA
ATOM      2  C   UNL     1       5.372  15.245  20.287  0.00  0.00    +0.000 C 
ATOM      3  N   UNL     1       6.746  15.302  19.964  0.00  0.00    +0.000 N 
ATOM      4  C   UNL     1       7.703  15.001  21.023  0.00  0.00    +0.000 C 
ATOM      5  C   UNL     1       9.070  15.654  20.791  0.00  0.00    +0.000 C 
ATOM      6  C   UNL     1       9.643  15.429  19.375  0.00  0.00    +0.000 C 
ATOM      7  C   UNL     1       8.571  15.850  18.366  0.00  0.00    +0.000 C 
ATOM      8  C   UNL     1       7.249  15.144  18.599  0.00  0.00    +0.000 C 
ENDROOT
BRANCH   6   9
ATOM      9  C   UNL     1      10.257  14.067  19.064  0.00  0.00    +0.000 A 
ATOM     10  C   UNL     1      10.781  13.220  20.050  0.00  0.00    +0.000 A 
ATOM     11  C   UNL     1      11.407  12.015  19.713  0.00  0.00    +0.000 A 
ATOM     12  C   UNL     1      11.525  11.632  18.381  0.00  0.00    +0.000 A 
ATOM     13  C   UNL     1      11.011  12.453  17.382  0.00  0.00    +0.000 A 
ATOM     14  C   UNL     1      10.390  13.658  17.722  0.00  0.00    +0.000 A 
ENDBRANCH   6   9
BRANCH   2  15
ATOM     15  C   UNL     1       4.322  15.317  19.140  0.00  0.00    +0.000 C 
ATOM     16  N   UNL     1       3.932  14.163  18.670  0.00  0.00    +0.000 NA
ATOM     17  N   UNL     1       3.955  16.602  18.739  0.00  0.00    +0.000 N 
ATOM     18  H   UNL     1       4.397  17.364  19.249  0.00  0.00    +0.000 HD
BRANCH  17  19
ATOM     19  C   UNL     1       2.701  16.935  18.180  0.00  0.00    +0.000 A 
ATOM     20  C   UNL     1       2.580  17.415  16.864  0.00  0.00    +0.000 A 
ATOM     21  C   UNL     1       1.393  17.987  16.407  0.00  0.00    +0.000 A 
ATOM     22  C   UNL     1       0.294  18.027  17.251  0.00  0.00    +0.000 A 
ATOM     23  F   UNL     1      -0.823  18.630  16.819  0.00  0.00    +0.000 F 
ATOM     24  C   UNL     1       0.362  17.468  18.526  0.00  0.00    +0.000 A 
ATOM     25 CL   UNL     1      -1.010  17.510  19.566  0.00  0.00    +0.000 Cl
ATOM     26  C   UNL     1       1.559  16.911  18.990  0.00  0.00    +0.000 A 
ENDBRANCH  17  19
BRANCH  16  27
ATOM     27  O   UNL     1       3.311  14.274  17.417  0.00  0.00    +0.000 OA
ATOM     28  H   UNL     1       3.266  15.234  17.278  0.00  0.00    +0.000 HD
ENDBRANCH  16  27
ENDBRANCH   2  15
TORSDOF 4
ENDMDL
MODEL 9
REMARK VINA RESULT:      -6.3     10.791     12.430
REMARK  Name = 
REMARK  4 active torsions:
REMARK  status: ('A' for Active; 'I' for Inactive)
REMARK    1  A    between atoms: C_2  and  C_3
REMARK    2  A    between atoms: N_4  and  O_5
REMARK    3  A    between atoms: N_6  and  C_7
REMARK    4  A    between atoms: C_18  and  C_19
REMARK                            x       y       z     vdW  Elec       q    Type
REMARK                         _______ _______ _______ _____ _____    ______ ____
ROOT
ATOM      1  O   UNL     1       0.331  13.912  22.418  0.00  0.00    +0.000 OA
ATOM      2  C   UNL     1      -0.397  13.056  21.905  0.00  0.00    +0.000 C 
ATOM      3  N   UNL     1      -0.035  12.259  20.797  0.00  0.00    +0.000 N 
ATOM      4  C   UNL     1       1.375  12.218  20.425  0.00  0.00    +0.000 C 
ATOM      5  C   UNL     1       1.590  11.874  18.948  0.00  0.00    +0.000 C 
ATOM      6  C   UNL     1       0.801  10.637  18.467  0.00  0.00    +0.000 C 
ATOM      7  C   UNL     1      -0.667  10.843  18.853  0.00  0.00    +0.000 C 
ATOM      8  C   UNL     1      -0.841  11.130  20.332  0.00  0.00    +0.000 C 
ENDROOT
BRANCH   6   9
ATOM      9  C   UNL     1       1.335   9.260  18.849  0.00  0.00    +0.000 A 
ATOM     10  C   UNL     1       1.217   8.724  20.139  0.00  0.00    +0.000 A 
ATOM     11  C   UNL     1       1.792   7.491  20.467  0.00  0.00    +0.000 A 
ATOM     12  C   UNL     1       2.501   6.770  19.512  0.00  0.00    +0.000 A 
ATOM     13  C   UNL     1       2.631   7.277  18.223  0.00  0.00    +0.000 A 
ATOM     14  C   UNL     1       2.059   8.511  17.900  0.00  0.00    +0.000 A 
ENDBRANCH   6   9
BRANCH   2  15
ATOM     15  C   UNL     1      -1.839  12.937  22.482  0.00  0.00    +0.000 C 
ATOM     16  N   UNL     1      -1.975  12.095  23.471  0.00  0.00    +0.000 NA
ATOM     17  N   UNL     1      -2.806  13.720  21.852  0.00  0.00    +0.000 N 
ATOM     18  H   UNL     1      -2.470  14.304  21.090  0.00  0.00    +0.000 HD
BRANCH  17  19
ATOM     19  C   UNL     1      -3.969  14.214  22.485  0.00  0.00    +0.000 A 
ATOM     20  C   UNL     1      -5.258  13.867  22.042  0.00  0.00    +0.000 A 
ATOM     21  C   UNL     1      -6.386  14.552  22.491  0.00  0.00    +0.000 A 
ATOM     22  C   UNL     1      -6.237  15.555  23.435  0.00  0.00    +0.000 A 
ATOM     23  F   UNL     1      -7.323  16.244  23.815  0.00  0.00    +0.000 F 
ATOM     24  C   UNL     1      -4.980  15.849  23.960  0.00  0.00    +0.000 A 
ATOM     25 CL   UNL     1      -4.802  17.088  25.144  0.00  0.00    +0.000 Cl
ATOM     26  C   UNL     1      -3.846  15.174  23.497  0.00  0.00    +0.000 A 
ENDBRANCH  17  19
BRANCH  16  27
ATOM     27  O   UNL     1      -3.312  11.735  23.691  0.00  0.00    +0.000 OA
ATOM     28  H   UNL     1      -3.708  11.808  22.807  0.00  0.00    +0.000 HD
ENDBRANCH  16  27
ENDBRANCH   2  15
TORSDOF 4
ENDMDL
