MODEL 1
REMARK VINA RESULT:      -7.2      0.000      0.000
REMARK  Name = 
REMARK  7 active torsions:
REMARK  status: ('A' for Active; 'I' for Inactive)
REMARK    1  A    between atoms: C_1  and  C_2
REMARK    2  A    between atoms: N_9  and  S_10
REMARK    3  A    between atoms: S_10  and  C_11
REMARK    4  A    between atoms: N_18  and  C_19
REMARK    5  A    between atoms: C_19  and  C_20
REMARK    6  A    between atoms: C_20  and  C_21
REMARK    7  A    between atoms: C_20  and  C_22
REMARK                            x       y       z     vdW  Elec       q    Type
REMARK                         _______ _______ _______ _____ _____    ______ ____
ROOT
ATOM      1  C   UNL     1       7.687   4.830  18.367  0.00  0.00    +0.000 C 
ATOM      2  C   UNL     1       6.507   5.447  17.700  0.00  0.00    +0.000 C 
ATOM      3  N   UNL     1       5.548   5.983  18.384  0.00  0.00    +0.000 NA
ATOM      4  C   UNL     1       4.543   6.401  17.377  0.00  0.00    +0.000 C 
ATOM      5  C   UNL     1       4.052   7.814  17.743  0.00  0.00    +0.000 C 
ATOM      6  C   UNL     1       2.593   7.670  18.200  0.00  0.00    +0.000 C 
ATOM      7  C   UNL     1       2.335   6.185  18.371  0.00  0.00    +0.000 C 
ATOM      8  C   UNL     1       2.699   5.559  19.712  0.00  0.00    +0.000 C 
ATOM      9  N   UNL     1       3.012   4.153  19.356  0.00  0.00    +0.000 NA
ATOM     10  C   UNL     1       3.472   4.100  17.945  0.00  0.00    +0.000 C 
ATOM     11  C   UNL     1       3.292   5.512  17.398  0.00  0.00    +0.000 C 
ATOM     12  C   UNL     1       5.275   6.204  16.040  0.00  0.00    +0.000 C 
ATOM     13  O   UNL     1       4.896   6.575  14.945  0.00  0.00    +0.000 OA
ATOM     14  N   UNL     1       6.388   5.472  16.354  0.00  0.00    +0.000 N 
ENDROOT
BRANCH   9  15
ATOM     15  S   UNL     1       1.988   2.925  19.886  0.00  0.00    +0.000 S 
ATOM     16  C   UNL     1       2.600   2.606  21.532  0.00  0.00    +0.000 C 
ATOM     17  O   UNL     1       0.659   3.491  20.014  0.00  0.00    +0.000 OA
ATOM     18  O   UNL     1       2.233   1.750  19.084  0.00  0.00    +0.000 OA
ENDBRANCH   9  15
BRANCH  14  19
ATOM     19  C   UNL     1       7.357   4.981  15.373  0.00  0.00    +0.000 C 
BRANCH  19  20
ATOM     20  C   UNL     1       6.886   5.006  13.900  0.00  0.00    +0.000 C 
ATOM     21  C   UNL     1       8.021   5.249  12.905  0.00  0.00    +0.000 C 
ATOM     22  C   UNL     1       6.219   3.664  13.566  0.00  0.00    +0.000 C 
ENDBRANCH  19  20
ENDBRANCH  14  19
TORSDOF 3
ENDMDL
MODEL 2
REMARK VINA RESULT:      -7.1      0.843      1.056
REMARK  Name = 
REMARK  7 active torsions:
REMARK  status: ('A' for Active; 'I' for Inactive)
REMARK    1  A    between atoms: C_1  and  C_2
REMARK    2  A    between atoms: N_9  and  S_10
REMARK    3  A    between atoms: S_10  and  C_11
REMARK    4  A    between atoms: N_18  and  C_19
REMARK    5  A    between atoms: C_19  and  C_20
REMARK    6  A    between atoms: C_20  and  C_21
REMARK    7  A    between atoms: C_20  and  C_22
REMARK                            x       y       z     vdW  Elec       q    Type
REMARK                         _______ _______ _______ _____ _____    ______ ____
ROOT
ATOM      1  C   UNL     1       7.859   4.785  18.245  0.00  0.00    +0.000 C 
ATOM      2  C   UNL     1       6.635   5.383  17.645  0.00  0.00    +0.000 C 
ATOM      3  N   UNL     1       5.675   5.840  18.383  0.00  0.00    +0.000 NA
ATOM      4  C   UNL     1       4.623   6.265  17.428  0.00  0.00    +0.000 C 
ATOM      5  C   UNL     1       4.083   7.634  17.882  0.00  0.00    +0.000 C 
ATOM      6  C   UNL     1       2.647   7.403  18.371  0.00  0.00    +0.000 C 
ATOM      7  C   UNL     1       2.457   5.901  18.471  0.00  0.00    +0.000 C 
ATOM      8  C   UNL     1       2.888   5.223  19.767  0.00  0.00    +0.000 C 
ATOM      9  N   UNL     1       3.250   3.853  19.328  0.00  0.00    +0.000 NA
ATOM     10  C   UNL     1       3.668   3.893  17.904  0.00  0.00    +0.000 C 
ATOM     11  C   UNL     1       3.412   5.322  17.438  0.00  0.00    +0.000 C 
ATOM     12  C   UNL     1       5.322   6.169  16.063  0.00  0.00    +0.000 C 
ATOM     13  O   UNL     1       4.894   6.580  15.000  0.00  0.00    +0.000 OA
ATOM     14  N   UNL     1       6.474   5.472  16.306  0.00  0.00    +0.000 N 
ENDROOT
BRANCH   9  15
ATOM     15  S   UNL     1       2.295   2.555  19.821  0.00  0.00    +0.000 S 
ATOM     16  C   UNL     1       0.659   3.085  19.343  0.00  0.00    +0.000 C 
ATOM     17  O   UNL     1       2.647   1.417  18.994  0.00  0.00    +0.000 OA
ATOM     18  O   UNL     1       2.336   2.481  21.262  0.00  0.00    +0.000 OA
ENDBRANCH   9  15
BRANCH  14  19
ATOM     19  C   UNL     1       7.432   5.075  15.274  0.00  0.00    +0.000 C 
BRANCH  19  20
ATOM     20  C   UNL     1       6.868   4.993  13.836  0.00  0.00    +0.000 C 
ATOM     21  C   UNL     1       7.930   5.201  12.756  0.00  0.00    +0.000 C 
ATOM     22  C   UNL     1       6.224   3.614  13.631  0.00  0.00    +0.000 C 
ENDBRANCH  19  20
ENDBRANCH  14  19
TORSDOF 3
ENDMDL
MODEL 3
REMARK VINA RESULT:      -7.0      0.993      1.369
REMARK  Name = 
REMARK  7 active torsions:
REMARK  status: ('A' for Active; 'I' for Inactive)
REMARK    1  A    between atoms: C_1  and  C_2
REMARK    2  A    between atoms: N_9  and  S_10
REMARK    3  A    between atoms: S_10  and  C_11
REMARK    4  A    between atoms: N_18  and  C_19
REMARK    5  A    between atoms: C_19  and  C_20
REMARK    6  A    between atoms: C_20  and  C_21
REMARK    7  A    between atoms: C_20  and  C_22
REMARK                            x       y       z     vdW  Elec       q    Type
REMARK                         _______ _______ _______ _____ _____    ______ ____
ROOT
ATOM      1  C   UNL     1       7.597   5.558  18.795  0.00  0.00    +0.000 C 
ATOM      2  C   UNL     1       6.391   5.999  18.041  0.00  0.00    +0.000 C 
ATOM      3  N   UNL     1       5.341   6.450  18.649  0.00  0.00    +0.000 NA
ATOM      4  C   UNL     1       4.349   6.697  17.575  0.00  0.00    +0.000 C 
ATOM      5  C   UNL     1       3.679   8.058  17.841  0.00  0.00    +0.000 C 
ATOM      6  C   UNL     1       2.225   7.765  18.236  0.00  0.00    +0.000 C 
ATOM      7  C   UNL     1       2.132   6.269  18.474  0.00  0.00    +0.000 C 
ATOM      8  C   UNL     1       2.494   5.756  19.863  0.00  0.00    +0.000 C 
ATOM      9  N   UNL     1       2.986   4.382  19.597  0.00  0.00    +0.000 NA
ATOM     10  C   UNL     1       3.523   4.316  18.215  0.00  0.00    +0.000 C 
ATOM     11  C   UNL     1       3.211   5.669  17.585  0.00  0.00    +0.000 C 
ATOM     12  C   UNL     1       5.170   6.524  16.287  0.00  0.00    +0.000 C 
ATOM     13  O   UNL     1       4.808   6.796  15.156  0.00  0.00    +0.000 OA
ATOM     14  N   UNL     1       6.342   5.945  16.691  0.00  0.00    +0.000 N 
ENDROOT
BRANCH   9  15
ATOM     15  S   UNL     1       2.084   3.068  20.144  0.00  0.00    +0.000 S 
ATOM     16  C   UNL     1       2.426   1.832  18.902  0.00  0.00    +0.000 C 
ATOM     17  O   UNL     1       2.680   2.618  21.387  0.00  0.00    +0.000 OA
ATOM     18  O   UNL     1       0.684   3.409  20.059  0.00  0.00    +0.000 OA
ENDBRANCH   9  15
BRANCH  14  19
ATOM     19  C   UNL     1       7.411   5.526  15.785  0.00  0.00    +0.000 C 
BRANCH  19  20
ATOM     20  C   UNL     1       7.121   4.253  14.956  0.00  0.00    +0.000 C 
ATOM     21  C   UNL     1       5.866   3.506  15.410  0.00  0.00    +0.000 C 
ATOM     22  C   UNL     1       6.952   4.646  13.481  0.00  0.00    +0.000 C 
ENDBRANCH  19  20
ENDBRANCH  14  19
TORSDOF 3
ENDMDL
MODEL 4
REMARK VINA RESULT:      -6.5      2.849      5.983
REMARK  Name = 
REMARK  7 active torsions:
REMARK  status: ('A' for Active; 'I' for Inactive)
REMARK    1  A    between atoms: C_1  and  C_2
REMARK    2  A    between atoms: N_9  and  S_10
REMARK    3  A    between atoms: S_10  and  C_11
REMARK    4  A    between atoms: N_18  and  C_19
REMARK    5  A    between atoms: C_19  and  C_20
REMARK    6  A    between atoms: C_20  and  C_21
REMARK    7  A    between atoms: C_20  and  C_22
REMARK                            x       y       z     vdW  Elec       q    Type
REMARK                         _______ _______ _______ _____ _____    ______ ____
ROOT
ATOM      1  C   UNL     1       2.260   2.182  17.317  0.00  0.00    +0.000 C 
ATOM      2  C   UNL     1       2.195   3.507  17.994  0.00  0.00    +0.000 C 
ATOM      3  N   UNL     1       2.661   4.576  17.433  0.00  0.00    +0.000 NA
ATOM      4  C   UNL     1       2.487   5.649  18.441  0.00  0.00    +0.000 C 
ATOM      5  C   UNL     1       1.936   6.897  17.727  0.00  0.00    +0.000 C 
ATOM      6  C   UNL     1       3.057   7.946  17.743  0.00  0.00    +0.000 C 
ATOM      7  C   UNL     1       4.317   7.230  18.193  0.00  0.00    +0.000 C 
ATOM      8  C   UNL     1       5.144   6.526  17.125  0.00  0.00    +0.000 C 
ATOM      9  N   UNL     1       5.794   5.421  17.873  0.00  0.00    +0.000 NA
ATOM     10  C   UNL     1       4.948   5.060  19.039  0.00  0.00    +0.000 C 
ATOM     11  C   UNL     1       3.819   6.085  19.064  0.00  0.00    +0.000 C 
ATOM     12  C   UNL     1       1.622   4.983  19.523  0.00  0.00    +0.000 C 
ATOM     13  O   UNL     1       1.090   5.537  20.468  0.00  0.00    +0.000 OA
ATOM     14  N   UNL     1       1.648   3.648  19.222  0.00  0.00    +0.000 N 
ENDROOT
BRANCH   9  15
ATOM     15  S   UNL     1       7.462   5.458  18.105  0.00  0.00    +0.000 S 
ATOM     16  C   UNL     1       7.867   7.141  17.671  0.00  0.00    +0.000 C 
ATOM     17  O   UNL     1       7.708   5.299  19.526  0.00  0.00    +0.000 OA
ATOM     18  O   UNL     1       8.076   4.586  17.131  0.00  0.00    +0.000 OA
ENDBRANCH   9  15
BRANCH  14  19
ATOM     19  C   UNL     1       1.014   2.607  20.031  0.00  0.00    +0.000 C 
BRANCH  19  20
ATOM     20  C   UNL     1       1.862   2.067  21.206  0.00  0.00    +0.000 C 
ATOM     21  C   UNL     1       3.337   2.459  21.120  0.00  0.00    +0.000 C 
ATOM     22  C   UNL     1       1.287   2.605  22.525  0.00  0.00    +0.000 C 
ENDBRANCH  19  20
ENDBRANCH  14  19
TORSDOF 3
ENDMDL
MODEL 5
REMARK VINA RESULT:      -6.5      2.832      6.102
REMARK  Name = 
REMARK  7 active torsions:
REMARK  status: ('A' for Active; 'I' for Inactive)
REMARK    1  A    between atoms: C_1  and  C_2
REMARK    2  A    between atoms: N_9  and  S_10
REMARK    3  A    between atoms: S_10  and  C_11
REMARK    4  A    between atoms: N_18  and  C_19
REMARK    5  A    between atoms: C_19  and  C_20
REMARK    6  A    between atoms: C_20  and  C_21
REMARK    7  A    between atoms: C_20  and  C_22
REMARK                            x       y       z     vdW  Elec       q    Type
REMARK                         _______ _______ _______ _____ _____    ______ ____
ROOT
ATOM      1  C   UNL     1       1.700   2.610  17.789  0.00  0.00    +0.000 C 
ATOM      2  C   UNL     1       1.885   3.983  18.334  0.00  0.00    +0.000 C 
ATOM      3  N   UNL     1       2.356   4.942  17.605  0.00  0.00    +0.000 NA
ATOM      4  C   UNL     1       2.465   6.105  18.519  0.00  0.00    +0.000 C 
ATOM      5  C   UNL     1       1.932   7.348  17.783  0.00  0.00    +0.000 C 
ATOM      6  C   UNL     1       3.140   8.257  17.519  0.00  0.00    +0.000 C 
ATOM      7  C   UNL     1       4.378   7.438  17.831  0.00  0.00    +0.000 C 
ATOM      8  C   UNL     1       4.938   6.559  16.718  0.00  0.00    +0.000 C 
ATOM      9  N   UNL     1       5.588   5.450  17.458  0.00  0.00    +0.000 NA
ATOM     10  C   UNL     1       4.919   5.283  18.773  0.00  0.00    +0.000 C 
ATOM     11  C   UNL     1       3.920   6.431  18.877  0.00  0.00    +0.000 C 
ATOM     12  C   UNL     1       1.731   5.632  19.784  0.00  0.00    +0.000 C 
ATOM     13  O   UNL     1       1.425   6.318  20.742  0.00  0.00    +0.000 OA
ATOM     14  N   UNL     1       1.570   4.284  19.614  0.00  0.00    +0.000 N 
ENDROOT
BRANCH   9  15
ATOM     15  S   UNL     1       7.266   5.310  17.418  0.00  0.00    +0.000 S 
ATOM     16  C   UNL     1       7.794   6.937  17.927  0.00  0.00    +0.000 C 
ATOM     17  O   UNL     1       7.651   4.377  18.460  0.00  0.00    +0.000 OA
ATOM     18  O   UNL     1       7.674   5.118  16.046  0.00  0.00    +0.000 OA
ENDBRANCH   9  15
BRANCH  14  19
ATOM     19  C   UNL     1       0.979   3.391  20.611  0.00  0.00    +0.000 C 
BRANCH  19  20
ATOM     20  C   UNL     1       1.911   2.980  21.775  0.00  0.00    +0.000 C 
ATOM     21  C   UNL     1       1.317   1.893  22.672  0.00  0.00    +0.000 C 
ATOM     22  C   UNL     1       3.237   2.467  21.195  0.00  0.00    +0.000 C 
ENDBRANCH  19  20
ENDBRANCH  14  19
TORSDOF 3
ENDMDL
MODEL 6
REMARK VINA RESULT:      -6.4      2.420      6.099
REMARK  Name = 
REMARK  7 active torsions:
REMARK  status: ('A' for Active; 'I' for Inactive)
REMARK    1  A    between atoms: C_1  and  C_2
REMARK    2  A    between atoms: N_9  and  S_10
REMARK    3  A    between atoms: S_10  and  C_11
REMARK    4  A    between atoms: N_18  and  C_19
REMARK    5  A    between atoms: C_19  and  C_20
REMARK    6  A    between atoms: C_20  and  C_21
REMARK    7  A    between atoms: C_20  and  C_22
REMARK                            x       y       z     vdW  Elec       q    Type
REMARK                         _______ _______ _______ _____ _____    ______ ____
ROOT
ATOM      1  C   UNL     1       1.452   2.822  17.763  0.00  0.00    +0.000 C 
ATOM      2  C   UNL     1       1.752   4.167  18.330  0.00  0.00    +0.000 C 
ATOM      3  N   UNL     1       2.196   5.129  17.588  0.00  0.00    +0.000 NA
ATOM      4  C   UNL     1       2.445   6.253  18.522  0.00  0.00    +0.000 C 
ATOM      5  C   UNL     1       1.904   7.543  17.878  0.00  0.00    +0.000 C 
ATOM      6  C   UNL     1       3.124   8.407  17.526  0.00  0.00    +0.000 C 
ATOM      7  C   UNL     1       4.346   7.523  17.694  0.00  0.00    +0.000 C 
ATOM      8  C   UNL     1       4.756   6.660  16.506  0.00  0.00    +0.000 C 
ATOM      9  N   UNL     1       5.420   5.498  17.147  0.00  0.00    +0.000 NA
ATOM     10  C   UNL     1       4.871   5.316  18.514  0.00  0.00    +0.000 C 
ATOM     11  C   UNL     1       3.942   6.503  18.748  0.00  0.00    +0.000 C 
ATOM     12  C   UNL     1       1.813   5.770  19.836  0.00  0.00    +0.000 C 
ATOM     13  O   UNL     1       1.631   6.435  20.840  0.00  0.00    +0.000 OA
ATOM     14  N   UNL     1       1.574   4.437  19.642  0.00  0.00    +0.000 N 
ENDROOT
BRANCH   9  15
ATOM     15  S   UNL     1       7.079   5.286  16.941  0.00  0.00    +0.000 S 
ATOM     16  C   UNL     1       7.156   4.368  15.412  0.00  0.00    +0.000 C 
ATOM     17  O   UNL     1       7.658   6.594  16.698  0.00  0.00    +0.000 OA
ATOM     18  O   UNL     1       7.564   4.432  17.999  0.00  0.00    +0.000 OA
ENDBRANCH   9  15
BRANCH  14  19
ATOM     19  C   UNL     1       1.038   3.537  20.664  0.00  0.00    +0.000 C 
BRANCH  19  20
ATOM     20  C   UNL     1       2.063   3.015  21.697  0.00  0.00    +0.000 C 
ATOM     21  C   UNL     1       1.513   1.898  22.586  0.00  0.00    +0.000 C 
ATOM     22  C   UNL     1       3.297   2.486  20.952  0.00  0.00    +0.000 C 
ENDBRANCH  19  20
ENDBRANCH  14  19
TORSDOF 3
ENDMDL
MODEL 7
REMARK VINA RESULT:      -6.2      2.953      6.367
REMARK  Name = 
REMARK  7 active torsions:
REMARK  status: ('A' for Active; 'I' for Inactive)
REMARK    1  A    between atoms: C_1  and  C_2
REMARK    2  A    between atoms: N_9  and  S_10
REMARK    3  A    between atoms: S_10  and  C_11
REMARK    4  A    between atoms: N_18  and  C_19
REMARK    5  A    between atoms: C_19  and  C_20
REMARK    6  A    between atoms: C_20  and  C_21
REMARK    7  A    between atoms: C_20  and  C_22
REMARK                            x       y       z     vdW  Elec       q    Type
REMARK                         _______ _______ _______ _____ _____    ______ ____
ROOT
ATOM      1  C   UNL     1       1.721   4.372  17.202  0.00  0.00    +0.000 C 
ATOM      2  C   UNL     1       3.159   4.455  17.579  0.00  0.00    +0.000 C 
ATOM      3  N   UNL     1       3.967   5.274  16.988  0.00  0.00    +0.000 NA
ATOM      4  C   UNL     1       5.299   4.998  17.578  0.00  0.00    +0.000 C 
ATOM      5  C   UNL     1       5.981   6.346  17.878  0.00  0.00    +0.000 C 
ATOM      6  C   UNL     1       7.154   6.475  16.896  0.00  0.00    +0.000 C 
ATOM      7  C   UNL     1       6.983   5.374  15.866  0.00  0.00    +0.000 C 
ATOM      8  C   UNL     1       6.092   5.669  14.665  0.00  0.00    +0.000 C 
ATOM      9  N   UNL     1       5.572   4.330  14.294  0.00  0.00    +0.000 NA
ATOM     10  C   UNL     1       5.560   3.461  15.497  0.00  0.00    +0.000 C 
ATOM     11  C   UNL     1       6.231   4.273  16.600  0.00  0.00    +0.000 C 
ATOM     12  C   UNL     1       4.978   4.062  18.754  0.00  0.00    +0.000 C 
ATOM     13  O   UNL     1       5.749   3.707  19.628  0.00  0.00    +0.000 OA
ATOM     14  N   UNL     1       3.681   3.676  18.554  0.00  0.00    +0.000 N 
ENDROOT
BRANCH   9  15
ATOM     15  S   UNL     1       6.060   3.635  12.839  0.00  0.00    +0.000 S 
ATOM     16  C   UNL     1       4.587   3.773  11.840  0.00  0.00    +0.000 C 
ATOM     17  O   UNL     1       7.067   4.504  12.258  0.00  0.00    +0.000 OA
ATOM     18  O   UNL     1       6.315   2.233  13.066  0.00  0.00    +0.000 OA
ENDBRANCH   9  15
BRANCH  14  19
ATOM     19  C   UNL     1       2.965   2.717  19.395  0.00  0.00    +0.000 C 
BRANCH  19  20
ATOM     20  C   UNL     1       2.275   3.312  20.645  0.00  0.00    +0.000 C 
ATOM     21  C   UNL     1       0.788   3.602  20.437  0.00  0.00    +0.000 C 
ATOM     22  C   UNL     1       2.424   2.327  21.814  0.00  0.00    +0.000 C 
ENDBRANCH  19  20
ENDBRANCH  14  19
TORSDOF 3
ENDMDL
MODEL 8
REMARK VINA RESULT:      -6.2      2.825      6.363
REMARK  Name = 
REMARK  7 active torsions:
REMARK  status: ('A' for Active; 'I' for Inactive)
REMARK    1  A    between atoms: C_1  and  C_2
REMARK    2  A    between atoms: N_9  and  S_10
REMARK    3  A    between atoms: S_10  and  C_11
REMARK    4  A    between atoms: N_18  and  C_19
REMARK    5  A    between atoms: C_19  and  C_20
REMARK    6  A    between atoms: C_20  and  C_21
REMARK    7  A    between atoms: C_20  and  C_22
REMARK                            x       y       z     vdW  Elec       q    Type
REMARK                         _______ _______ _______ _____ _____    ______ ____
ROOT
ATOM      1  C   UNL     1       1.627   4.595  17.397  0.00  0.00    +0.000 C 
ATOM      2  C   UNL     1       3.078   4.565  17.734  0.00  0.00    +0.000 C 
ATOM      3  N   UNL     1       3.925   5.344  17.145  0.00  0.00    +0.000 NA
ATOM      4  C   UNL     1       5.249   4.957  17.688  0.00  0.00    +0.000 C 
ATOM      5  C   UNL     1       6.034   6.243  18.009  0.00  0.00    +0.000 C 
ATOM      6  C   UNL     1       7.186   6.321  16.998  0.00  0.00    +0.000 C 
ATOM      7  C   UNL     1       6.910   5.268  15.940  0.00  0.00    +0.000 C 
ATOM      8  C   UNL     1       6.010   5.663  14.775  0.00  0.00    +0.000 C 
ATOM      9  N   UNL     1       5.387   4.376  14.379  0.00  0.00    +0.000 NA
ATOM     10  C   UNL     1       5.346   3.472  15.555  0.00  0.00    +0.000 C 
ATOM     11  C   UNL     1       6.102   4.200  16.662  0.00  0.00    +0.000 C 
ATOM     12  C   UNL     1       4.895   4.008  18.844  0.00  0.00    +0.000 C 
ATOM     13  O   UNL     1       5.661   3.572  19.684  0.00  0.00    +0.000 OA
ATOM     14  N   UNL     1       3.569   3.721  18.670  0.00  0.00    +0.000 N 
ENDROOT
BRANCH   9  15
ATOM     15  S   UNL     1       5.786   3.696  12.890  0.00  0.00    +0.000 S 
ATOM     16  C   UNL     1       7.117   4.750  12.337  0.00  0.00    +0.000 C 
ATOM     17  O   UNL     1       6.343   2.382  13.147  0.00  0.00    +0.000 OA
ATOM     18  O   UNL     1       4.671   3.880  11.992  0.00  0.00    +0.000 OA
ENDBRANCH   9  15
BRANCH  14  19
ATOM     19  C   UNL     1       2.809   2.788  19.502  0.00  0.00    +0.000 C 
BRANCH  19  20
ATOM     20  C   UNL     1       1.773   3.433  20.452  0.00  0.00    +0.000 C 
ATOM     21  C   UNL     1       1.387   2.535  21.629  0.00  0.00    +0.000 C 
ATOM     22  C   UNL     1       2.351   4.744  21.005  0.00  0.00    +0.000 C 
ENDBRANCH  19  20
ENDBRANCH  14  19
TORSDOF 3
ENDMDL
MODEL 9
REMARK VINA RESULT:      -6.2      9.166     11.264
REMARK  Name = 
REMARK  7 active torsions:
REMARK  status: ('A' for Active; 'I' for Inactive)
REMARK    1  A    between atoms: C_1  and  C_2
REMARK    2  A    between atoms: N_9  and  S_10
REMARK    3  A    between atoms: S_10  and  C_11
REMARK    4  A    between atoms: N_18  and  C_19
REMARK    5  A    between atoms: C_19  and  C_20
REMARK    6  A    between atoms: C_20  and  C_21
REMARK    7  A    between atoms: C_20  and  C_22
REMARK                            x       y       z     vdW  Elec       q    Type
REMARK                         _______ _______ _______ _____ _____    ______ ____
ROOT
ATOM      1  C   UNL     1      -0.752   9.775  22.948  0.00  0.00    +0.000 C 
ATOM      2  C   UNL     1      -0.767  11.235  22.653  0.00  0.00    +0.000 C 
ATOM      3  N   UNL     1      -1.471  12.060  23.358  0.00  0.00    +0.000 NA
ATOM      4  C   UNL     1      -1.286  13.380  22.708  0.00  0.00    +0.000 C 
ATOM      5  C   UNL     1      -1.052  14.431  23.809  0.00  0.00    +0.000 C 
ATOM      6  C   UNL     1      -2.294  15.333  23.830  0.00  0.00    +0.000 C 
ATOM      7  C   UNL     1      -3.342  14.651  22.970  0.00  0.00    +0.000 C 
ATOM      8  C   UNL     1      -4.227  13.606  23.637  0.00  0.00    +0.000 C 
ATOM      9  N   UNL     1      -4.573  12.693  22.520  0.00  0.00    +0.000 NA
ATOM     10  C   UNL     1      -3.499  12.747  21.497  0.00  0.00    +0.000 C 
ATOM     11  C   UNL     1      -2.543  13.841  21.959  0.00  0.00    +0.000 C 
ATOM     12  C   UNL     1      -0.163  13.121  21.692  0.00  0.00    +0.000 C 
ATOM     13  O   UNL     1       0.436  13.960  21.044  0.00  0.00    +0.000 OA
ATOM     14  N   UNL     1      -0.046  11.759  21.636  0.00  0.00    +0.000 N 
ENDROOT
BRANCH   9  15
ATOM     15  S   UNL     1      -6.165  12.633  21.973  0.00  0.00    +0.000 S 
ATOM     16  C   UNL     1      -7.087  12.549  23.499  0.00  0.00    +0.000 C 
ATOM     17  O   UNL     1      -6.460  13.910  21.351  0.00  0.00    +0.000 OA
ATOM     18  O   UNL     1      -6.358  11.388  21.267  0.00  0.00    +0.000 OA
ENDBRANCH   9  15
BRANCH  14  19
ATOM     19  C   UNL     1       0.861  11.044  20.738  0.00  0.00    +0.000 C 
BRANCH  19  20
ATOM     20  C   UNL     1       0.393  10.934  19.268  0.00  0.00    +0.000 C 
ATOM     21  C   UNL     1       1.270  10.012  18.419  0.00  0.00    +0.000 C 
ATOM     22  C   UNL     1      -1.048  10.404  19.240  0.00  0.00    +0.000 C 
ENDBRANCH  19  20
ENDBRANCH  14  19
TORSDOF 3
ENDMDL
