MODEL 1
REMARK VINA RESULT:      -9.0      0.000      0.000
REMARK  Name = 
REMARK  3 active torsions:
REMARK  status: ('A' for Active; 'I' for Inactive)
REMARK    1  A    between atoms: C_5  and  C_6
REMARK    2  A    between atoms: C_12  and  C_13
REMARK    3  A    between atoms: C_17  and  C_18
REMARK                            x       y       z     vdW  Elec       q    Type
REMARK                         _______ _______ _______ _____ _____    ______ ____
ROOT
ATOM      1  C   UNL     1       2.356   6.337  19.026  0.00  0.00    +0.000 A 
ATOM      2  C   UNL     1       1.806   5.502  20.093  0.00  0.00    +0.000 A 
ATOM      3  C   UNL     1       2.104   4.190  20.192  0.00  0.00    +0.000 A 
ATOM      4  C   UNL     1       2.991   3.597  19.257  0.00  0.00    +0.000 A 
ATOM      5  N   UNL     1       3.429   2.369  19.106  0.00  0.00    +0.000 NA
ATOM      6  N   UNL     1       4.302   2.366  18.043  0.00  0.00    +0.000 NA
ATOM      7  C   UNL     1       4.413   3.599  17.572  0.00  0.00    +0.000 A 
ATOM      8  N   UNL     1       3.533   4.413  18.272  0.00  0.00    +0.000 N 
ATOM      9  C   UNL     1       3.189   5.762  18.135  0.00  0.00    +0.000 A 
ENDROOT
BRANCH   1  14
ATOM     10  N   UNL     1       1.258  11.796  18.354  0.00  0.00    +0.000 N 
ATOM     11  C   UNL     1       1.558  10.455  18.576  0.00  0.00    +0.000 A 
ATOM     12  C   UNL     1       1.143   9.824  19.740  0.00  0.00    +0.000 A 
ATOM     13  C   UNL     1       1.409   8.466  19.904  0.00  0.00    +0.000 A 
ATOM     14  C   UNL     1       2.077   7.771  18.897  0.00  0.00    +0.000 A 
ATOM     15  C   UNL     1       2.453   8.492  17.769  0.00  0.00    +0.000 A 
ATOM     16  N   UNL     1       2.208   9.813  17.592  0.00  0.00    +0.000 NA
ATOM     17  H   UNL     1       1.558  12.387  19.120  0.00  0.00    +0.000 HD
ATOM     18  H   UNL     1       1.695  12.058  17.474  0.00  0.00    +0.000 HD
ENDBRANCH   1  14
BRANCH   7  19
ATOM     19  C   UNL     1       5.318   4.005  16.491  0.00  0.00    +0.000 A 
ATOM     20  C   UNL     1       6.434   4.800  16.784  0.00  0.00    +0.000 A 
ATOM     21  C   UNL     1       7.320   5.193  15.776  0.00  0.00    +0.000 A 
ATOM     22  C   UNL     1       7.106   4.787  14.458  0.00  0.00    +0.000 A 
ATOM     23  C   UNL     1       5.986   4.013  14.133  0.00  0.00    +0.000 A 
ATOM     24  C   UNL     1       5.087   3.656  15.153  0.00  0.00    +0.000 A 
BRANCH  23  25
ATOM     25  C   UNL     1       5.728   3.541  12.724  0.00  0.00    +0.000 C 
ATOM     26  F   UNL     1       4.458   3.761  12.289  0.00  0.00    +0.000 F 
ATOM     27  F   UNL     1       6.546   4.158  11.825  0.00  0.00    +0.000 F 
ATOM     28  F   UNL     1       5.957   2.207  12.573  0.00  0.00    +0.000 F 
ENDBRANCH  23  25
ENDBRANCH   7  19
TORSDOF 3
ENDMDL
MODEL 2
REMARK VINA RESULT:      -8.9      0.910      1.282
REMARK  Name = 
REMARK  3 active torsions:
REMARK  status: ('A' for Active; 'I' for Inactive)
REMARK    1  A    between atoms: C_5  and  C_6
REMARK    2  A    between atoms: C_12  and  C_13
REMARK    3  A    between atoms: C_17  and  C_18
REMARK                            x       y       z     vdW  Elec       q    Type
REMARK                         _______ _______ _______ _____ _____    ______ ____
ROOT
ATOM      1  C   UNL     1       2.102   6.579  19.580  0.00  0.00    +0.000 A 
ATOM      2  C   UNL     1       1.416   5.824  20.627  0.00  0.00    +0.000 A 
ATOM      3  C   UNL     1       1.716   4.534  20.884  0.00  0.00    +0.000 A 
ATOM      4  C   UNL     1       2.739   3.889  20.142  0.00  0.00    +0.000 A 
ATOM      5  N   UNL     1       3.214   2.665  20.166  0.00  0.00    +0.000 NA
ATOM      6  N   UNL     1       4.232   2.596  19.245  0.00  0.00    +0.000 NA
ATOM      7  C   UNL     1       4.392   3.786  18.686  0.00  0.00    +0.000 A 
ATOM      8  N   UNL     1       3.406   4.633  19.178  0.00  0.00    +0.000 N 
ATOM      9  C   UNL     1       3.065   5.954  18.873  0.00  0.00    +0.000 A 
ENDROOT
BRANCH   1  14
ATOM     10  N   UNL     1       0.999  11.923  18.278  0.00  0.00    +0.000 N 
ATOM     11  C   UNL     1       1.301  10.617  18.653  0.00  0.00    +0.000 A 
ATOM     12  C   UNL     1       0.908  10.132  19.893  0.00  0.00    +0.000 A 
ATOM     13  C   UNL     1       1.176   8.802  20.214  0.00  0.00    +0.000 A 
ATOM     14  C   UNL     1       1.823   7.989  19.285  0.00  0.00    +0.000 A 
ATOM     15  C   UNL     1       2.178   8.567  18.071  0.00  0.00    +0.000 A 
ATOM     16  N   UNL     1       1.931   9.859  17.741  0.00  0.00    +0.000 NA
ATOM     17  H   UNL     1       1.314  12.601  18.961  0.00  0.00    +0.000 HD
ATOM     18  H   UNL     1       1.419  12.076  17.365  0.00  0.00    +0.000 HD
ENDBRANCH   1  14
BRANCH   7  19
ATOM     19  C   UNL     1       5.438   4.124  17.715  0.00  0.00    +0.000 A 
ATOM     20  C   UNL     1       6.659   4.643  18.165  0.00  0.00    +0.000 A 
ATOM     21  C   UNL     1       7.679   4.962  17.263  0.00  0.00    +0.000 A 
ATOM     22  C   UNL     1       7.494   4.759  15.896  0.00  0.00    +0.000 A 
ATOM     23  C   UNL     1       6.275   4.265  15.416  0.00  0.00    +0.000 A 
ATOM     24  C   UNL     1       5.248   3.981  16.334  0.00  0.00    +0.000 A 
BRANCH  23  25
ATOM     25  C   UNL     1       6.041   4.016  13.947  0.00  0.00    +0.000 C 
ATOM     26  F   UNL     1       6.280   2.736  13.557  0.00  0.00    +0.000 F 
ATOM     27  F   UNL     1       4.754   4.286  13.586  0.00  0.00    +0.000 F 
ATOM     28  F   UNL     1       6.817   4.807  13.156  0.00  0.00    +0.000 F 
ENDBRANCH  23  25
ENDBRANCH   7  19
TORSDOF 3
ENDMDL
MODEL 3
REMARK VINA RESULT:      -8.9      0.642      1.222
REMARK  Name = 
REMARK  3 active torsions:
REMARK  status: ('A' for Active; 'I' for Inactive)
REMARK    1  A    between atoms: C_5  and  C_6
REMARK    2  A    between atoms: C_12  and  C_13
REMARK    3  A    between atoms: C_17  and  C_18
REMARK                            x       y       z     vdW  Elec       q    Type
REMARK                         _______ _______ _______ _____ _____    ______ ____
ROOT
ATOM      1  C   UNL     1       2.235   6.137  19.073  0.00  0.00    +0.000 A 
ATOM      2  C   UNL     1       1.668   5.234  20.074  0.00  0.00    +0.000 A 
ATOM      3  C   UNL     1       1.965   3.919  20.092  0.00  0.00    +0.000 A 
ATOM      4  C   UNL     1       2.868   3.388  19.135  0.00  0.00    +0.000 A 
ATOM      5  N   UNL     1       3.309   2.172  18.911  0.00  0.00    +0.000 NA
ATOM      6  N   UNL     1       4.199   2.238  17.865  0.00  0.00    +0.000 NA
ATOM      7  C   UNL     1       4.317   3.499  17.477  0.00  0.00    +0.000 A 
ATOM      8  N   UNL     1       3.426   4.266  18.215  0.00  0.00    +0.000 N 
ATOM      9  C   UNL     1       3.083   5.621  18.160  0.00  0.00    +0.000 A 
ENDROOT
BRANCH   1  14
ATOM     10  N   UNL     1       1.230  11.655  19.095  0.00  0.00    +0.000 N 
ATOM     11  C   UNL     1       1.443  10.281  19.039  0.00  0.00    +0.000 A 
ATOM     12  C   UNL     1       1.937   9.692  17.883  0.00  0.00    +0.000 A 
ATOM     13  C   UNL     1       2.194   8.322  17.879  0.00  0.00    +0.000 A 
ATOM     14  C   UNL     1       1.957   7.577  19.033  0.00  0.00    +0.000 A 
ATOM     15  C   UNL     1       1.460   8.257  20.139  0.00  0.00    +0.000 A 
ATOM     16  N   UNL     1       1.199   9.587  20.162  0.00  0.00    +0.000 NA
ATOM     17  H   UNL     1       0.645  11.984  18.336  0.00  0.00    +0.000 HD
ATOM     18  H   UNL     1       0.825  11.857  20.006  0.00  0.00    +0.000 HD
ENDBRANCH   1  14
BRANCH   7  19
ATOM     19  C   UNL     1       5.240   3.975  16.440  0.00  0.00    +0.000 A 
ATOM     20  C   UNL     1       6.292   4.832  16.789  0.00  0.00    +0.000 A 
ATOM     21  C   UNL     1       7.193   5.292  15.824  0.00  0.00    +0.000 A 
ATOM     22  C   UNL     1       7.059   4.893  14.494  0.00  0.00    +0.000 A 
ATOM     23  C   UNL     1       6.003   4.057  14.113  0.00  0.00    +0.000 A 
ATOM     24  C   UNL     1       5.086   3.632  15.090  0.00  0.00    +0.000 A 
BRANCH  23  25
ATOM     25  C   UNL     1       5.833   3.590  12.689  0.00  0.00    +0.000 C 
ATOM     26  F   UNL     1       6.045   2.259  12.513  0.00  0.00    +0.000 F 
ATOM     27  F   UNL     1       4.576   3.837  12.221  0.00  0.00    +0.000 F 
ATOM     28  F   UNL     1       6.676   4.227  11.829  0.00  0.00    +0.000 F 
ENDBRANCH  23  25
ENDBRANCH   7  19
TORSDOF 3
ENDMDL
MODEL 4
REMARK VINA RESULT:      -8.8      1.098      1.396
REMARK  Name = 
REMARK  3 active torsions:
REMARK  status: ('A' for Active; 'I' for Inactive)
REMARK    1  A    between atoms: C_5  and  C_6
REMARK    2  A    between atoms: C_12  and  C_13
REMARK    3  A    between atoms: C_17  and  C_18
REMARK                            x       y       z     vdW  Elec       q    Type
REMARK                         _______ _______ _______ _____ _____    ______ ____
ROOT
ATOM      1  C   UNL     1       2.146   6.490  19.763  0.00  0.00    +0.000 A 
ATOM      2  C   UNL     1       1.545   5.664  20.809  0.00  0.00    +0.000 A 
ATOM      3  C   UNL     1       1.908   4.378  20.994  0.00  0.00    +0.000 A 
ATOM      4  C   UNL     1       2.916   3.807  20.175  0.00  0.00    +0.000 A 
ATOM      5  N   UNL     1       3.438   2.603  20.121  0.00  0.00    +0.000 NA
ATOM      6  N   UNL     1       4.409   2.614  19.148  0.00  0.00    +0.000 NA
ATOM      7  C   UNL     1       4.493   3.832  18.634  0.00  0.00    +0.000 A 
ATOM      8  N   UNL     1       3.502   4.617  19.211  0.00  0.00    +0.000 N 
ATOM      9  C   UNL     1       3.094   5.934  18.982  0.00  0.00    +0.000 A 
ENDROOT
BRANCH   1  14
ATOM     10  N   UNL     1       0.862  11.909  19.098  0.00  0.00    +0.000 N 
ATOM     11  C   UNL     1       1.146  10.552  19.212  0.00  0.00    +0.000 A 
ATOM     12  C   UNL     1       1.699   9.856  18.146  0.00  0.00    +0.000 A 
ATOM     13  C   UNL     1       2.025   8.511  18.313  0.00  0.00    +0.000 A 
ATOM     14  C   UNL     1       1.796   7.897  19.544  0.00  0.00    +0.000 A 
ATOM     15  C   UNL     1       1.237   8.678  20.550  0.00  0.00    +0.000 A 
ATOM     16  N   UNL     1       0.909   9.985  20.406  0.00  0.00    +0.000 NA
ATOM     17  H   UNL     1       0.281  12.113  18.294  0.00  0.00    +0.000 HD
ATOM     18  H   UNL     1       0.424  12.197  19.969  0.00  0.00    +0.000 HD
ENDBRANCH   1  14
BRANCH   7  19
ATOM     19  C   UNL     1       5.473   4.253  17.627  0.00  0.00    +0.000 A 
ATOM     20  C   UNL     1       6.612   4.967  18.025  0.00  0.00    +0.000 A 
ATOM     21  C   UNL     1       7.569   5.369  17.089  0.00  0.00    +0.000 A 
ATOM     22  C   UNL     1       7.404   5.057  15.739  0.00  0.00    +0.000 A 
ATOM     23  C   UNL     1       6.264   4.367  15.311  0.00  0.00    +0.000 A 
ATOM     24  C   UNL     1       5.295   3.999  16.261  0.00  0.00    +0.000 A 
BRANCH  23  25
ATOM     25  C   UNL     1       6.057   3.996  13.864  0.00  0.00    +0.000 C 
ATOM     26  F   UNL     1       4.794   4.215  13.411  0.00  0.00    +0.000 F 
ATOM     27  F   UNL     1       6.881   4.699  13.037  0.00  0.00    +0.000 F 
ATOM     28  F   UNL     1       6.326   2.683  13.620  0.00  0.00    +0.000 F 
ENDBRANCH  23  25
ENDBRANCH   7  19
TORSDOF 3
ENDMDL
MODEL 5
REMARK VINA RESULT:      -8.8      4.925      7.745
REMARK  Name = 
REMARK  3 active torsions:
REMARK  status: ('A' for Active; 'I' for Inactive)
REMARK    1  A    between atoms: C_5  and  C_6
REMARK    2  A    between atoms: C_12  and  C_13
REMARK    3  A    between atoms: C_17  and  C_18
REMARK                            x       y       z     vdW  Elec       q    Type
REMARK                         _______ _______ _______ _____ _____    ______ ____
ROOT
ATOM      1  C   UNL     1       4.699   4.495  17.772  0.00  0.00    +0.000 A 
ATOM      2  C   UNL     1       4.548   3.195  18.425  0.00  0.00    +0.000 A 
ATOM      3  C   UNL     1       3.740   3.027  19.491  0.00  0.00    +0.000 A 
ATOM      4  C   UNL     1       2.991   4.126  19.987  0.00  0.00    +0.000 A 
ATOM      5  N   UNL     1       2.163   4.250  20.998  0.00  0.00    +0.000 NA
ATOM      6  N   UNL     1       1.697   5.544  20.998  0.00  0.00    +0.000 NA
ATOM      7  C   UNL     1       2.222   6.192  19.969  0.00  0.00    +0.000 A 
ATOM      8  N   UNL     1       3.118   5.343  19.331  0.00  0.00    +0.000 N 
ATOM      9  C   UNL     1       3.993   5.535  18.257  0.00  0.00    +0.000 A 
ENDROOT
BRANCH   1  14
ATOM     10  N   UNL     1       8.093   5.353  13.389  0.00  0.00    +0.000 N 
ATOM     11  C   UNL     1       7.202   5.153  14.439  0.00  0.00    +0.000 A 
ATOM     12  C   UNL     1       6.158   4.247  14.314  0.00  0.00    +0.000 A 
ATOM     13  C   UNL     1       5.318   4.029  15.405  0.00  0.00    +0.000 A 
ATOM     14  C   UNL     1       5.549   4.715  16.597  0.00  0.00    +0.000 A 
ATOM     15  C   UNL     1       6.619   5.602  16.623  0.00  0.00    +0.000 A 
ATOM     16  N   UNL     1       7.444   5.832  15.572  0.00  0.00    +0.000 NA
ATOM     17  H   UNL     1       7.620   5.582  12.524  0.00  0.00    +0.000 HD
ATOM     18  H   UNL     1       8.738   6.084  13.679  0.00  0.00    +0.000 HD
ENDBRANCH   1  14
BRANCH   7  19
ATOM     19  C   UNL     1       1.896   7.572  19.591  0.00  0.00    +0.000 A 
ATOM     20  C   UNL     1       2.158   8.013  18.287  0.00  0.00    +0.000 A 
ATOM     21  C   UNL     1       1.846   9.319  17.896  0.00  0.00    +0.000 A 
ATOM     22  C   UNL     1       1.260  10.201  18.804  0.00  0.00    +0.000 A 
ATOM     23  C   UNL     1       1.010   9.794  20.120  0.00  0.00    +0.000 A 
ATOM     24  C   UNL     1       1.361   8.489  20.506  0.00  0.00    +0.000 A 
BRANCH  23  25
ATOM     25  C   UNL     1       0.363  10.713  21.127  0.00  0.00    +0.000 C 
ATOM     26  F   UNL     1       0.332  10.215  22.391  0.00  0.00    +0.000 F 
ATOM     27  F   UNL     1       1.010  11.910  21.209  0.00  0.00    +0.000 F 
ATOM     28  F   UNL     1      -0.925  11.013  20.803  0.00  0.00    +0.000 F 
ENDBRANCH  23  25
ENDBRANCH   7  19
TORSDOF 3
ENDMDL
MODEL 6
REMARK VINA RESULT:      -8.8      4.969      7.712
REMARK  Name = 
REMARK  3 active torsions:
REMARK  status: ('A' for Active; 'I' for Inactive)
REMARK    1  A    between atoms: C_5  and  C_6
REMARK    2  A    between atoms: C_12  and  C_13
REMARK    3  A    between atoms: C_17  and  C_18
REMARK                            x       y       z     vdW  Elec       q    Type
REMARK                         _______ _______ _______ _____ _____    ______ ____
ROOT
ATOM      1  C   UNL     1       4.529   3.867  17.439  0.00  0.00    +0.000 A 
ATOM      2  C   UNL     1       4.286   2.460  17.755  0.00  0.00    +0.000 A 
ATOM      3  C   UNL     1       3.427   2.088  18.725  0.00  0.00    +0.000 A 
ATOM      4  C   UNL     1       2.714   3.079  19.450  0.00  0.00    +0.000 A 
ATOM      5  N   UNL     1       1.852   3.006  20.438  0.00  0.00    +0.000 NA
ATOM      6  N   UNL     1       1.452   4.287  20.736  0.00  0.00    +0.000 NA
ATOM      7  C   UNL     1       2.051   5.130  19.909  0.00  0.00    +0.000 A 
ATOM      8  N   UNL     1       2.929   4.408  19.112  0.00  0.00    +0.000 N 
ATOM      9  C   UNL     1       3.856   4.800  18.141  0.00  0.00    +0.000 A 
ENDROOT
BRANCH   1  14
ATOM     10  N   UNL     1       8.139   5.564  13.495  0.00  0.00    +0.000 N 
ATOM     11  C   UNL     1       7.196   5.162  14.437  0.00  0.00    +0.000 A 
ATOM     12  C   UNL     1       6.177   4.289  14.084  0.00  0.00    +0.000 A 
ATOM     13  C   UNL     1       5.283   3.861  15.066  0.00  0.00    +0.000 A 
ATOM     14  C   UNL     1       5.437   4.311  16.376  0.00  0.00    +0.000 A 
ATOM     15  C   UNL     1       6.488   5.186  16.629  0.00  0.00    +0.000 A 
ATOM     16  N   UNL     1       7.364   5.617  15.689  0.00  0.00    +0.000 NA
ATOM     17  H   UNL     1       7.709   5.949  12.663  0.00  0.00    +0.000 HD
ATOM     18  H   UNL     1       8.753   6.231  13.953  0.00  0.00    +0.000 HD
ENDBRANCH   1  14
BRANCH   7  19
ATOM     19  C   UNL     1       1.810   6.577  19.867  0.00  0.00    +0.000 A 
ATOM     20  C   UNL     1       2.131   7.299  18.710  0.00  0.00    +0.000 A 
ATOM     21  C   UNL     1       1.901   8.676  18.636  0.00  0.00    +0.000 A 
ATOM     22  C   UNL     1       1.339   9.351  19.720  0.00  0.00    +0.000 A 
ATOM     23  C   UNL     1       1.032   8.659  20.897  0.00  0.00    +0.000 A 
ATOM     24  C   UNL     1       1.300   7.281  20.966  0.00  0.00    +0.000 A 
BRANCH  23  25
ATOM     25  C   UNL     1       0.408   9.349  22.085  0.00  0.00    +0.000 C 
ATOM     26  F   UNL     1       1.201   9.380  23.188  0.00  0.00    +0.000 F 
ATOM     27  F   UNL     1       0.094  10.647  21.810  0.00  0.00    +0.000 F 
ATOM     28  F   UNL     1      -0.759   8.764  22.471  0.00  0.00    +0.000 F 
ENDBRANCH  23  25
ENDBRANCH   7  19
TORSDOF 3
ENDMDL
MODEL 7
REMARK VINA RESULT:      -8.7      0.954      1.302
REMARK  Name = 
REMARK  3 active torsions:
REMARK  status: ('A' for Active; 'I' for Inactive)
REMARK    1  A    between atoms: C_5  and  C_6
REMARK    2  A    between atoms: C_12  and  C_13
REMARK    3  A    between atoms: C_17  and  C_18
REMARK                            x       y       z     vdW  Elec       q    Type
REMARK                         _______ _______ _______ _____ _____    ______ ____
ROOT
ATOM      1  C   UNL     1       2.094   6.153  19.949  0.00  0.00    +0.000 A 
ATOM      2  C   UNL     1       1.523   5.201  20.901  0.00  0.00    +0.000 A 
ATOM      3  C   UNL     1       1.887   3.903  20.911  0.00  0.00    +0.000 A 
ATOM      4  C   UNL     1       2.865   3.439  19.993  0.00  0.00    +0.000 A 
ATOM      5  N   UNL     1       3.380   2.252  19.771  0.00  0.00    +0.000 NA
ATOM      6  N   UNL     1       4.319   2.386  18.775  0.00  0.00    +0.000 NA
ATOM      7  C   UNL     1       4.391   3.659  18.418  0.00  0.00    +0.000 A 
ATOM      8  N   UNL     1       3.423   4.364  19.121  0.00  0.00    +0.000 N 
ATOM      9  C   UNL     1       3.014   5.701  19.073  0.00  0.00    +0.000 A 
ENDROOT
BRANCH   1  14
ATOM     10  N   UNL     1       0.690  11.577  19.673  0.00  0.00    +0.000 N 
ATOM     11  C   UNL     1       1.075  10.245  19.790  0.00  0.00    +0.000 A 
ATOM     12  C   UNL     1       0.926   9.572  20.994  0.00  0.00    +0.000 A 
ATOM     13  C   UNL     1       1.268   8.222  21.062  0.00  0.00    +0.000 A 
ATOM     14  C   UNL     1       1.743   7.577  19.921  0.00  0.00    +0.000 A 
ATOM     15  C   UNL     1       1.859   8.337  18.762  0.00  0.00    +0.000 A 
ATOM     16  N   UNL     1       1.537   9.651  18.677  0.00  0.00    +0.000 NA
ATOM     17  H   UNL     1       1.116  12.163  20.380  0.00  0.00    +0.000 HD
ATOM     18  H   UNL     1       0.932  11.876  18.731  0.00  0.00    +0.000 HD
ENDBRANCH   1  14
BRANCH   7  19
ATOM     19  C   UNL     1       5.341   4.204  17.440  0.00  0.00    +0.000 A 
ATOM     20  C   UNL     1       6.355   5.070  17.868  0.00  0.00    +0.000 A 
ATOM     21  C   UNL     1       7.281   5.593  16.961  0.00  0.00    +0.000 A 
ATOM     22  C   UNL     1       7.209   5.252  15.611  0.00  0.00    +0.000 A 
ATOM     23  C   UNL     1       6.191   4.408  15.151  0.00  0.00    +0.000 A 
ATOM     24  C   UNL     1       5.248   3.917  16.071  0.00  0.00    +0.000 A 
BRANCH  23  25
ATOM     25  C   UNL     1       6.089   4.001  13.702  0.00  0.00    +0.000 C 
ATOM     26  F   UNL     1       6.908   4.699  12.872  0.00  0.00    +0.000 F 
ATOM     27  F   UNL     1       6.400   2.686  13.522  0.00  0.00    +0.000 F 
ATOM     28  F   UNL     1       4.829   4.152  13.209  0.00  0.00    +0.000 F 
ENDBRANCH  23  25
ENDBRANCH   7  19
TORSDOF 3
ENDMDL
MODEL 8
REMARK VINA RESULT:      -8.5      5.029      7.232
REMARK  Name = 
REMARK  3 active torsions:
REMARK  status: ('A' for Active; 'I' for Inactive)
REMARK    1  A    between atoms: C_5  and  C_6
REMARK    2  A    between atoms: C_12  and  C_13
REMARK    3  A    between atoms: C_17  and  C_18
REMARK                            x       y       z     vdW  Elec       q    Type
REMARK                         _______ _______ _______ _____ _____    ______ ____
ROOT
ATOM      1  C   UNL     1      -1.564  10.665  19.005  0.00  0.00    +0.000 A 
ATOM      2  C   UNL     1      -1.665  11.768  19.960  0.00  0.00    +0.000 A 
ATOM      3  C   UNL     1      -0.945  11.787  21.100  0.00  0.00    +0.000 A 
ATOM      4  C   UNL     1      -0.044  10.727  21.381  0.00  0.00    +0.000 A 
ATOM      5  N   UNL     1       0.748  10.482  22.399  0.00  0.00    +0.000 NA
ATOM      6  N   UNL     1       1.426   9.317  22.129  0.00  0.00    +0.000 NA
ATOM      7  C   UNL     1       1.065   8.874  20.934  0.00  0.00    +0.000 A 
ATOM      8  N   UNL     1       0.067   9.707  20.445  0.00  0.00    +0.000 N 
ATOM      9  C   UNL     1      -0.713   9.658  19.286  0.00  0.00    +0.000 A 
ENDROOT
BRANCH   1  14
ATOM     10  N   UNL     1      -4.385  10.307  14.170  0.00  0.00    +0.000 N 
ATOM     11  C   UNL     1      -3.683  10.458  15.362  0.00  0.00    +0.000 A 
ATOM     12  C   UNL     1      -4.154  11.306  16.354  0.00  0.00    +0.000 A 
ATOM     13  C   UNL     1      -3.457  11.390  17.558  0.00  0.00    +0.000 A 
ATOM     14  C   UNL     1      -2.311  10.619  17.743  0.00  0.00    +0.000 A 
ATOM     15  C   UNL     1      -1.918   9.801  16.689  0.00  0.00    +0.000 A 
ATOM     16  N   UNL     1      -2.578   9.708  15.509  0.00  0.00    +0.000 NA
ATOM     17  H   UNL     1      -4.572  11.194  13.720  0.00  0.00    +0.000 HD
ATOM     18  H   UNL     1      -3.839   9.685  13.579  0.00  0.00    +0.000 HD
ENDBRANCH   1  14
BRANCH   7  19
ATOM     19  C   UNL     1       1.636   7.699  20.267  0.00  0.00    +0.000 A 
ATOM     20  C   UNL     1       2.294   7.851  19.039  0.00  0.00    +0.000 A 
ATOM     21  C   UNL     1       2.859   6.752  18.386  0.00  0.00    +0.000 A 
ATOM     22  C   UNL     1       2.780   5.481  18.958  0.00  0.00    +0.000 A 
ATOM     23  C   UNL     1       2.108   5.296  20.172  0.00  0.00    +0.000 A 
ATOM     24  C   UNL     1       1.517   6.408  20.798  0.00  0.00    +0.000 A 
BRANCH  23  25
ATOM     25  C   UNL     1       2.016   3.943  20.831  0.00  0.00    +0.000 C 
ATOM     26  F   UNL     1       2.309   3.951  22.158  0.00  0.00    +0.000 F 
ATOM     27  F   UNL     1       0.764   3.412  20.725  0.00  0.00    +0.000 F 
ATOM     28  F   UNL     1       2.850   3.030  20.262  0.00  0.00    +0.000 F 
ENDBRANCH  23  25
ENDBRANCH   7  19
TORSDOF 3
ENDMDL
MODEL 9
REMARK VINA RESULT:      -8.5      2.676      3.227
REMARK  Name = 
REMARK  3 active torsions:
REMARK  status: ('A' for Active; 'I' for Inactive)
REMARK    1  A    between atoms: C_5  and  C_6
REMARK    2  A    between atoms: C_12  and  C_13
REMARK    3  A    between atoms: C_17  and  C_18
REMARK                            x       y       z     vdW  Elec       q    Type
REMARK                         _______ _______ _______ _____ _____    ______ ____
ROOT
ATOM      1  C   UNL     1       1.829   5.816  19.923  0.00  0.00    +0.000 A 
ATOM      2  C   UNL     1       1.130   4.733  20.613  0.00  0.00    +0.000 A 
ATOM      3  C   UNL     1       1.412   3.438  20.369  0.00  0.00    +0.000 A 
ATOM      4  C   UNL     1       2.429   3.103  19.437  0.00  0.00    +0.000 A 
ATOM      5  N   UNL     1       2.887   1.953  18.999  0.00  0.00    +0.000 NA
ATOM      6  N   UNL     1       3.907   2.220  18.116  0.00  0.00    +0.000 NA
ATOM      7  C   UNL     1       4.083   3.530  18.044  0.00  0.00    +0.000 A 
ATOM      8  N   UNL     1       3.109   4.144  18.819  0.00  0.00    +0.000 N 
ATOM      9  C   UNL     1       2.786   5.488  19.032  0.00  0.00    +0.000 A 
ENDROOT
BRANCH   1  14
ATOM     10  N   UNL     1       0.771  11.266  20.726  0.00  0.00    +0.000 N 
ATOM     11  C   UNL     1       1.071   9.915  20.578  0.00  0.00    +0.000 A 
ATOM     12  C   UNL     1       0.865   9.029  21.625  0.00  0.00    +0.000 A 
ATOM     13  C   UNL     1       1.122   7.673  21.424  0.00  0.00    +0.000 A 
ATOM     14  C   UNL     1       1.569   7.237  20.178  0.00  0.00    +0.000 A 
ATOM     15  C   UNL     1       1.747   8.202  19.193  0.00  0.00    +0.000 A 
ATOM     16  N   UNL     1       1.508   9.525  19.369  0.00  0.00    +0.000 NA
ATOM     17  H   UNL     1       1.225  11.673  21.536  0.00  0.00    +0.000 HD
ATOM     18  H   UNL     1       1.043  11.729  19.863  0.00  0.00    +0.000 HD
ENDBRANCH   1  14
BRANCH   7  19
ATOM     19  C   UNL     1       5.137   4.193  17.266  0.00  0.00    +0.000 A 
ATOM     20  C   UNL     1       5.485   3.694  16.004  0.00  0.00    +0.000 A 
ATOM     21  C   UNL     1       6.476   4.312  15.236  0.00  0.00    +0.000 A 
ATOM     22  C   UNL     1       7.129   5.447  15.718  0.00  0.00    +0.000 A 
ATOM     23  C   UNL     1       6.819   5.952  16.986  0.00  0.00    +0.000 A 
ATOM     24  C   UNL     1       5.844   5.298  17.759  0.00  0.00    +0.000 A 
BRANCH  23  25
ATOM     25  C   UNL     1       7.491   7.186  17.536  0.00  0.00    +0.000 C 
ATOM     26  F   UNL     1       8.218   6.965  18.663  0.00  0.00    +0.000 F 
ATOM     27  F   UNL     1       8.351   7.739  16.634  0.00  0.00    +0.000 F 
ATOM     28  F   UNL     1       6.600   8.169  17.844  0.00  0.00    +0.000 F 
ENDBRANCH  23  25
ENDBRANCH   7  19
TORSDOF 3
ENDMDL
