MODEL 1
REMARK VINA RESULT:      -7.6      0.000      0.000
REMARK  Name = 
REMARK  13 active torsions:
REMARK  status: ('A' for Active; 'I' for Inactive)
REMARK    1  A    between atoms: C_1  and  C_2
REMARK    2  A    between atoms: C_2  and  C_3
REMARK    3  A    between atoms: C_3  and  C_4
REMARK    4  A    between atoms: C_4  and  C_5
REMARK    5  A    between atoms: C_5  and  C_6
REMARK    6  A    between atoms: C_6  and  C_7
REMARK    7  A    between atoms: C_7  and  C_8
REMARK    8  A    between atoms: C_8  and  C_9
REMARK    9  A    between atoms: C_9  and  N_10
REMARK   10  A    between atoms: C_14  and  O_15
REMARK   11  A    between atoms: C_16  and  O_17
REMARK   12  A    between atoms: C_18  and  O_19
REMARK   13  A    between atoms: C_20  and  O_21
REMARK                            x       y       z     vdW  Elec       q    Type
REMARK                         _______ _______ _______ _____ _____    ______ ____
ROOT
ATOM      1  N   UNL     1       6.863   4.656  18.580  0.00  0.00    +0.000 NA
ATOM      2  C   UNL     1       5.657   4.400  18.883  0.00  0.00    +0.000 C 
ATOM      3  N   UNL     1       4.615   5.229  19.280  0.00  0.00    +0.000 N 
ATOM      4  C   UNL     1       3.616   4.392  19.918  0.00  0.00    +0.000 C 
ATOM      5  C   UNL     1       2.207   4.899  20.133  0.00  0.00    +0.000 C 
ATOM      6  C   UNL     1       1.370   3.696  20.666  0.00  0.00    +0.000 C 
ATOM      7  C   UNL     1       1.442   2.478  19.700  0.00  0.00    +0.000 C 
ATOM      8  C   UNL     1       2.911   2.003  19.485  0.00  0.00    +0.000 C 
ATOM      9  C   UNL     1       3.695   3.191  18.971  0.00  0.00    +0.000 C 
ATOM     10  N   UNL     1       5.140   3.114  18.888  0.00  0.00    +0.000 N 
ATOM     11  H   UNL     1       4.838   6.129  19.683  0.00  0.00    +0.000 HD
ATOM     12  H   UNL     1       5.608   2.420  18.317  0.00  0.00    +0.000 HD
ENDROOT
BRANCH   5  13
ATOM     13  O   UNL     1       2.210   5.950  21.100  0.00  0.00    +0.000 OA
ATOM     14  H   UNL     1       1.331   6.380  21.069  0.00  0.00    +0.000 HD
ENDBRANCH   5  13
BRANCH   6  15
ATOM     15  O   UNL     1       1.823   3.356  21.984  0.00  0.00    +0.000 OA
ATOM     16  H   UNL     1       2.565   3.911  22.276  0.00  0.00    +0.000 HD
ENDBRANCH   6  15
BRANCH   7  17
ATOM     17  O   UNL     1       0.853   2.777  18.428  0.00  0.00    +0.000 OA
ATOM     18  H   UNL     1       1.190   3.602  18.046  0.00  0.00    +0.000 HD
ENDBRANCH   7  17
BRANCH   8  19
ATOM     19  O   UNL     1       2.940   0.940  18.527  0.00  0.00    +0.000 OA
ATOM     20  H   UNL     1       2.654   0.126  18.985  0.00  0.00    +0.000 HD
ENDBRANCH   8  19
BRANCH   1  21
ATOM     21  C   UNL     1       7.256   6.062  18.645  0.00  0.00    +0.000 C 
BRANCH  21  22
ATOM     22  C   UNL     1       7.379   6.584  17.216  0.00  0.00    +0.000 C 
BRANCH  22  23
ATOM     23  C   UNL     1       6.017   7.004  16.667  0.00  0.00    +0.000 C 
BRANCH  23  24
ATOM     24  C   UNL     1       5.471   5.971  15.683  0.00  0.00    +0.000 C 
BRANCH  24  25
ATOM     25  C   UNL     1       6.600   5.139  15.075  0.00  0.00    +0.000 C 
BRANCH  25  26
ATOM     26  C   UNL     1       6.056   3.910  14.347  0.00  0.00    +0.000 C 
BRANCH  26  27
ATOM     27  C   UNL     1       6.405   3.948  12.859  0.00  0.00    +0.000 C 
BRANCH  27  29
ATOM     28  C   UNL     1       5.838   1.894  11.520  0.00  0.00    +0.000 C 
ATOM     29  C   UNL     1       5.342   3.243  12.018  0.00  0.00    +0.000 C 
ENDBRANCH  27  29
ENDBRANCH  26  27
ENDBRANCH  25  26
ENDBRANCH  24  25
ENDBRANCH  23  24
ENDBRANCH  22  23
ENDBRANCH  21  22
ENDBRANCH   1  21
TORSDOF 12
ENDMDL
MODEL 2
REMARK VINA RESULT:      -7.6      3.070      5.483
REMARK  Name = 
REMARK  13 active torsions:
REMARK  status: ('A' for Active; 'I' for Inactive)
REMARK    1  A    between atoms: C_1  and  C_2
REMARK    2  A    between atoms: C_2  and  C_3
REMARK    3  A    between atoms: C_3  and  C_4
REMARK    4  A    between atoms: C_4  and  C_5
REMARK    5  A    between atoms: C_5  and  C_6
REMARK    6  A    between atoms: C_6  and  C_7
REMARK    7  A    between atoms: C_7  and  C_8
REMARK    8  A    between atoms: C_8  and  C_9
REMARK    9  A    between atoms: C_9  and  N_10
REMARK   10  A    between atoms: C_14  and  O_15
REMARK   11  A    between atoms: C_16  and  O_17
REMARK   12  A    between atoms: C_18  and  O_19
REMARK   13  A    between atoms: C_20  and  O_21
REMARK                            x       y       z     vdW  Elec       q    Type
REMARK                         _______ _______ _______ _____ _____    ______ ____
ROOT
ATOM      1  N   UNL     1       7.067   4.734  18.667  0.00  0.00    +0.000 NA
ATOM      2  C   UNL     1       5.830   4.534  18.875  0.00  0.00    +0.000 C 
ATOM      3  N   UNL     1       4.797   5.411  19.178  0.00  0.00    +0.000 N 
ATOM      4  C   UNL     1       3.715   4.626  19.741  0.00  0.00    +0.000 C 
ATOM      5  C   UNL     1       2.317   5.195  19.837  0.00  0.00    +0.000 C 
ATOM      6  C   UNL     1       1.389   4.036  20.315  0.00  0.00    +0.000 C 
ATOM      7  C   UNL     1       1.485   2.802  19.371  0.00  0.00    +0.000 C 
ATOM      8  C   UNL     1       2.945   2.263  19.280  0.00  0.00    +0.000 C 
ATOM      9  C   UNL     1       3.818   3.410  18.818  0.00  0.00    +0.000 C 
ATOM     10  N   UNL     1       5.260   3.271  18.852  0.00  0.00    +0.000 N 
ATOM     11  H   UNL     1       5.025   6.307  19.587  0.00  0.00    +0.000 HD
ATOM     12  H   UNL     1       5.742   2.550  18.329  0.00  0.00    +0.000 HD
ENDROOT
BRANCH   5  13
ATOM     13  O   UNL     1       2.287   6.259  20.789  0.00  0.00    +0.000 OA
ATOM     14  H   UNL     1       1.821   5.930  21.584  0.00  0.00    +0.000 HD
ENDBRANCH   5  13
BRANCH   6  15
ATOM     15  O   UNL     1       1.720   3.697  21.668  0.00  0.00    +0.000 OA
ATOM     16  H   UNL     1       1.228   4.228  22.316  0.00  0.00    +0.000 HD
ENDBRANCH   6  15
BRANCH   7  17
ATOM     17  O   UNL     1       1.013   3.107  18.052  0.00  0.00    +0.000 OA
ATOM     18  H   UNL     1       0.045   3.131  17.999  0.00  0.00    +0.000 HD
ENDBRANCH   7  17
BRANCH   8  19
ATOM     19  O   UNL     1       3.005   1.186  18.339  0.00  0.00    +0.000 OA
ATOM     20  H   UNL     1       2.111   1.081  17.958  0.00  0.00    +0.000 HD
ENDBRANCH   8  19
BRANCH   1  21
ATOM     21  C   UNL     1       7.513   6.123  18.747  0.00  0.00    +0.000 C 
BRANCH  21  22
ATOM     22  C   UNL     1       7.442   6.725  17.346  0.00  0.00    +0.000 C 
BRANCH  22  23
ATOM     23  C   UNL     1       7.561   8.246  17.397  0.00  0.00    +0.000 C 
BRANCH  23  24
ATOM     24  C   UNL     1       8.464   8.696  18.545  0.00  0.00    +0.000 C 
BRANCH  24  25
ATOM     25  C   UNL     1       8.907  10.147  18.361  0.00  0.00    +0.000 C 
BRANCH  25  26
ATOM     26  C   UNL     1       9.704  10.644  19.567  0.00  0.00    +0.000 C 
BRANCH  26  27
ATOM     27  C   UNL     1      10.979  11.366  19.130  0.00  0.00    +0.000 C 
BRANCH  27  29
ATOM     28  C   UNL     1      10.239  13.038  20.860  0.00  0.00    +0.000 C 
ATOM     29  C   UNL     1      11.429  12.386  20.174  0.00  0.00    +0.000 C 
ENDBRANCH  27  29
ENDBRANCH  26  27
ENDBRANCH  25  26
ENDBRANCH  24  25
ENDBRANCH  23  24
ENDBRANCH  22  23
ENDBRANCH  21  22
ENDBRANCH   1  21
TORSDOF 12
ENDMDL
MODEL 3
REMARK VINA RESULT:      -7.6      0.980      2.757
REMARK  Name = 
REMARK  13 active torsions:
REMARK  status: ('A' for Active; 'I' for Inactive)
REMARK    1  A    between atoms: C_1  and  C_2
REMARK    2  A    between atoms: C_2  and  C_3
REMARK    3  A    between atoms: C_3  and  C_4
REMARK    4  A    between atoms: C_4  and  C_5
REMARK    5  A    between atoms: C_5  and  C_6
REMARK    6  A    between atoms: C_6  and  C_7
REMARK    7  A    between atoms: C_7  and  C_8
REMARK    8  A    between atoms: C_8  and  C_9
REMARK    9  A    between atoms: C_9  and  N_10
REMARK   10  A    between atoms: C_14  and  O_15
REMARK   11  A    between atoms: C_16  and  O_17
REMARK   12  A    between atoms: C_18  and  O_19
REMARK   13  A    between atoms: C_20  and  O_21
REMARK                            x       y       z     vdW  Elec       q    Type
REMARK                         _______ _______ _______ _____ _____    ______ ____
ROOT
ATOM      1  N   UNL     1       6.461   5.628  18.362  0.00  0.00    +0.000 NA
ATOM      2  C   UNL     1       5.467   4.964  18.792  0.00  0.00    +0.000 C 
ATOM      3  N   UNL     1       5.230   3.597  18.841  0.00  0.00    +0.000 N 
ATOM      4  C   UNL     1       3.800   3.412  19.002  0.00  0.00    +0.000 C 
ATOM      5  C   UNL     1       3.239   2.083  19.458  0.00  0.00    +0.000 C 
ATOM      6  C   UNL     1       1.712   2.293  19.694  0.00  0.00    +0.000 C 
ATOM      7  C   UNL     1       1.444   3.449  20.701  0.00  0.00    +0.000 C 
ATOM      8  C   UNL     1       2.059   4.794  20.208  0.00  0.00    +0.000 C 
ATOM      9  C   UNL     1       3.537   4.555  19.986  0.00  0.00    +0.000 C 
ATOM     10  N   UNL     1       4.333   5.564  19.316  0.00  0.00    +0.000 N 
ATOM     11  H   UNL     1       5.739   2.993  18.211  0.00  0.00    +0.000 HD
ATOM     12  H   UNL     1       4.429   6.504  19.683  0.00  0.00    +0.000 HD
ENDROOT
BRANCH   5  13
ATOM     13  O   UNL     1       3.438   1.097  18.445  0.00  0.00    +0.000 OA
ATOM     14  H   UNL     1       4.221   1.366  17.923  0.00  0.00    +0.000 HD
ENDBRANCH   5  13
BRANCH   6  15
ATOM     15  O   UNL     1       1.070   2.529  18.433  0.00  0.00    +0.000 OA
ATOM     16  H   UNL     1       1.012   3.474  18.217  0.00  0.00    +0.000 HD
ENDBRANCH   6  15
BRANCH   7  17
ATOM     17  O   UNL     1       1.961   3.146  22.004  0.00  0.00    +0.000 OA
ATOM     18  H   UNL     1       2.709   3.712  22.249  0.00  0.00    +0.000 HD
ENDBRANCH   7  17
BRANCH   8  19
ATOM     19  O   UNL     1       1.866   5.808  21.200  0.00  0.00    +0.000 OA
ATOM     20  H   UNL     1       1.076   5.561  21.718  0.00  0.00    +0.000 HD
ENDBRANCH   8  19
BRANCH   1  21
ATOM     21  C   UNL     1       7.570   4.845  17.822  0.00  0.00    +0.000 C 
BRANCH  21  22
ATOM     22  C   UNL     1       7.131   4.268  16.478  0.00  0.00    +0.000 C 
BRANCH  22  23
ATOM     23  C   UNL     1       6.489   5.344  15.605  0.00  0.00    +0.000 C 
BRANCH  23  24
ATOM     24  C   UNL     1       5.818   4.734  14.374  0.00  0.00    +0.000 C 
BRANCH  24  25
ATOM     25  C   UNL     1       6.847   4.073  13.457  0.00  0.00    +0.000 C 
BRANCH  25  26
ATOM     26  C   UNL     1       6.173   3.369  12.280  0.00  0.00    +0.000 C 
BRANCH  26  27
ATOM     27  C   UNL     1       4.665   3.622  12.274  0.00  0.00    +0.000 C 
BRANCH  27  29
ATOM     28  C   UNL     1       3.342   4.005  10.167  0.00  0.00    +0.000 C 
ATOM     29  C   UNL     1       3.993   2.967  11.068  0.00  0.00    +0.000 C 
ENDBRANCH  27  29
ENDBRANCH  26  27
ENDBRANCH  25  26
ENDBRANCH  24  25
ENDBRANCH  23  24
ENDBRANCH  22  23
ENDBRANCH  21  22
ENDBRANCH   1  21
TORSDOF 12
ENDMDL
MODEL 4
REMARK VINA RESULT:      -7.6      1.281      3.156
REMARK  Name = 
REMARK  13 active torsions:
REMARK  status: ('A' for Active; 'I' for Inactive)
REMARK    1  A    between atoms: C_1  and  C_2
REMARK    2  A    between atoms: C_2  and  C_3
REMARK    3  A    between atoms: C_3  and  C_4
REMARK    4  A    between atoms: C_4  and  C_5
REMARK    5  A    between atoms: C_5  and  C_6
REMARK    6  A    between atoms: C_6  and  C_7
REMARK    7  A    between atoms: C_7  and  C_8
REMARK    8  A    between atoms: C_8  and  C_9
REMARK    9  A    between atoms: C_9  and  N_10
REMARK   10  A    between atoms: C_14  and  O_15
REMARK   11  A    between atoms: C_16  and  O_17
REMARK   12  A    between atoms: C_18  and  O_19
REMARK   13  A    between atoms: C_20  and  O_21
REMARK                            x       y       z     vdW  Elec       q    Type
REMARK                         _______ _______ _______ _____ _____    ______ ____
ROOT
ATOM      1  N   UNL     1       6.085   5.689  17.660  0.00  0.00    +0.000 NA
ATOM      2  C   UNL     1       5.176   5.047  18.271  0.00  0.00    +0.000 C 
ATOM      3  N   UNL     1       4.959   3.683  18.422  0.00  0.00    +0.000 N 
ATOM      4  C   UNL     1       3.574   3.506  18.812  0.00  0.00    +0.000 C 
ATOM      5  C   UNL     1       3.100   2.201  19.413  0.00  0.00    +0.000 C 
ATOM      6  C   UNL     1       1.627   2.422  19.874  0.00  0.00    +0.000 C 
ATOM      7  C   UNL     1       1.510   3.626  20.853  0.00  0.00    +0.000 C 
ATOM      8  C   UNL     1       2.031   4.945  20.206  0.00  0.00    +0.000 C 
ATOM      9  C   UNL     1       3.458   4.696  19.769  0.00  0.00    +0.000 C 
ATOM     10  N   UNL     1       4.132   5.671  18.935  0.00  0.00    +0.000 N 
ATOM     11  H   UNL     1       5.370   3.049  17.750  0.00  0.00    +0.000 HD
ATOM     12  H   UNL     1       4.276   6.627  19.237  0.00  0.00    +0.000 HD
ENDROOT
BRANCH   5  13
ATOM     13  O   UNL     1       3.148   1.166  18.430  0.00  0.00    +0.000 OA
ATOM     14  H   UNL     1       2.838   0.342  18.857  0.00  0.00    +0.000 HD
ENDBRANCH   5  13
BRANCH   6  15
ATOM     15  O   UNL     1       0.795   2.595  18.718  0.00  0.00    +0.000 OA
ATOM     16  H   UNL     1       0.575   1.752  18.290  0.00  0.00    +0.000 HD
ENDBRANCH   6  15
BRANCH   7  17
ATOM     17  O   UNL     1       2.225   3.386  22.073  0.00  0.00    +0.000 OA
ATOM     18  H   UNL     1       2.329   4.188  22.608  0.00  0.00    +0.000 HD
ENDBRANCH   7  17
BRANCH   8  19
ATOM     19  O   UNL     1       1.986   6.006  21.166  0.00  0.00    +0.000 OA
ATOM     20  H   UNL     1       1.959   6.847  20.669  0.00  0.00    +0.000 HD
ENDBRANCH   8  19
BRANCH   1  21
ATOM     21  C   UNL     1       7.103   4.880  16.992  0.00  0.00    +0.000 C 
BRANCH  21  22
ATOM     22  C   UNL     1       6.969   5.099  15.488  0.00  0.00    +0.000 C 
BRANCH  22  23
ATOM     23  C   UNL     1       6.334   3.886  14.812  0.00  0.00    +0.000 C 
BRANCH  23  24
ATOM     24  C   UNL     1       6.388   4.005  13.290  0.00  0.00    +0.000 C 
BRANCH  24  25
ATOM     25  C   UNL     1       5.022   3.718  12.666  0.00  0.00    +0.000 C 
BRANCH  25  26
ATOM     26  C   UNL     1       5.116   2.634  11.594  0.00  0.00    +0.000 C 
BRANCH  26  27
ATOM     27  C   UNL     1       3.887   2.646  10.684  0.00  0.00    +0.000 C 
BRANCH  27  29
ATOM     28  C   UNL     1       2.812   4.340   9.165  0.00  0.00    +0.000 C 
ATOM     29  C   UNL     1       3.282   4.045  10.581  0.00  0.00    +0.000 C 
ENDBRANCH  27  29
ENDBRANCH  26  27
ENDBRANCH  25  26
ENDBRANCH  24  25
ENDBRANCH  23  24
ENDBRANCH  22  23
ENDBRANCH  21  22
ENDBRANCH   1  21
TORSDOF 12
ENDMDL
MODEL 5
REMARK VINA RESULT:      -7.4      0.888      2.522
REMARK  Name = 
REMARK  13 active torsions:
REMARK  status: ('A' for Active; 'I' for Inactive)
REMARK    1  A    between atoms: C_1  and  C_2
REMARK    2  A    between atoms: C_2  and  C_3
REMARK    3  A    between atoms: C_3  and  C_4
REMARK    4  A    between atoms: C_4  and  C_5
REMARK    5  A    between atoms: C_5  and  C_6
REMARK    6  A    between atoms: C_6  and  C_7
REMARK    7  A    between atoms: C_7  and  C_8
REMARK    8  A    between atoms: C_8  and  C_9
REMARK    9  A    between atoms: C_9  and  N_10
REMARK   10  A    between atoms: C_14  and  O_15
REMARK   11  A    between atoms: C_16  and  O_17
REMARK   12  A    between atoms: C_18  and  O_19
REMARK   13  A    between atoms: C_20  and  O_21
REMARK                            x       y       z     vdW  Elec       q    Type
REMARK                         _______ _______ _______ _____ _____    ______ ____
ROOT
ATOM      1  N   UNL     1       6.325   5.790  18.860  0.00  0.00    +0.000 NA
ATOM      2  C   UNL     1       5.358   5.001  19.095  0.00  0.00    +0.000 C 
ATOM      3  N   UNL     1       5.283   3.614  19.091  0.00  0.00    +0.000 N 
ATOM      4  C   UNL     1       3.882   3.257  18.983  0.00  0.00    +0.000 C 
ATOM      5  C   UNL     1       3.413   1.858  19.320  0.00  0.00    +0.000 C 
ATOM      6  C   UNL     1       1.854   1.879  19.270  0.00  0.00    +0.000 C 
ATOM      7  C   UNL     1       1.268   2.967  20.216  0.00  0.00    +0.000 C 
ATOM      8  C   UNL     1       1.795   4.388  19.853  0.00  0.00    +0.000 C 
ATOM      9  C   UNL     1       3.306   4.333  19.908  0.00  0.00    +0.000 C 
ATOM     10  N   UNL     1       4.082   5.447  19.402  0.00  0.00    +0.000 N 
ATOM     11  H   UNL     1       5.970   3.093  18.563  0.00  0.00    +0.000 HD
ATOM     12  H   UNL     1       3.994   6.381  19.786  0.00  0.00    +0.000 HD
ENDROOT
BRANCH   5  13
ATOM     13  O   UNL     1       3.913   0.931  18.356  0.00  0.00    +0.000 OA
ATOM     14  H   UNL     1       3.929   0.049  18.778  0.00  0.00    +0.000 HD
ENDBRANCH   5  13
BRANCH   6  15
ATOM     15  O   UNL     1       1.431   2.072  17.913  0.00  0.00    +0.000 OA
ATOM     16  H   UNL     1       2.167   2.012  17.282  0.00  0.00    +0.000 HD
ENDBRANCH   6  15
BRANCH   7  17
ATOM     17  O   UNL     1       1.570   2.690  21.591  0.00  0.00    +0.000 OA
ATOM     18  H   UNL     1       2.234   3.295  21.955  0.00  0.00    +0.000 HD
ENDBRANCH   7  17
BRANCH   8  19
ATOM     19  O   UNL     1       1.301   5.344  20.797  0.00  0.00    +0.000 OA
ATOM     20  H   UNL     1       0.888   4.844  21.529  0.00  0.00    +0.000 HD
ENDBRANCH   8  19
BRANCH   1  21
ATOM     21  C   UNL     1       7.601   5.159  18.531  0.00  0.00    +0.000 C 
BRANCH  21  22
ATOM     22  C   UNL     1       7.498   4.594  17.116  0.00  0.00    +0.000 C 
BRANCH  22  23
ATOM     23  C   UNL     1       7.018   5.660  16.135  0.00  0.00    +0.000 C 
BRANCH  23  24
ATOM     24  C   UNL     1       5.731   5.231  15.432  0.00  0.00    +0.000 C 
BRANCH  24  25
ATOM     25  C   UNL     1       5.982   4.049  14.496  0.00  0.00    +0.000 C 
BRANCH  25  26
ATOM     26  C   UNL     1       7.110   4.350  13.509  0.00  0.00    +0.000 C 
BRANCH  26  27
ATOM     27  C   UNL     1       6.710   3.979  12.081  0.00  0.00    +0.000 C 
BRANCH  27  29
ATOM     28  C   UNL     1       5.799   1.746  11.361  0.00  0.00    +0.000 C 
ATOM     29  C   UNL     1       5.490   3.059  12.063  0.00  0.00    +0.000 C 
ENDBRANCH  27  29
ENDBRANCH  26  27
ENDBRANCH  25  26
ENDBRANCH  24  25
ENDBRANCH  23  24
ENDBRANCH  22  23
ENDBRANCH  21  22
ENDBRANCH   1  21
TORSDOF 12
ENDMDL
MODEL 6
REMARK VINA RESULT:      -7.2      3.223      6.634
REMARK  Name = 
REMARK  13 active torsions:
REMARK  status: ('A' for Active; 'I' for Inactive)
REMARK    1  A    between atoms: C_1  and  C_2
REMARK    2  A    between atoms: C_2  and  C_3
REMARK    3  A    between atoms: C_3  and  C_4
REMARK    4  A    between atoms: C_4  and  C_5
REMARK    5  A    between atoms: C_5  and  C_6
REMARK    6  A    between atoms: C_6  and  C_7
REMARK    7  A    between atoms: C_7  and  C_8
REMARK    8  A    between atoms: C_8  and  C_9
REMARK    9  A    between atoms: C_9  and  N_10
REMARK   10  A    between atoms: C_14  and  O_15
REMARK   11  A    between atoms: C_16  and  O_17
REMARK   12  A    between atoms: C_18  and  O_19
REMARK   13  A    between atoms: C_20  and  O_21
REMARK                            x       y       z     vdW  Elec       q    Type
REMARK                         _______ _______ _______ _____ _____    ______ ____
ROOT
ATOM      1  N   UNL     1       3.607   2.224  19.374  0.00  0.00    +0.000 NA
ATOM      2  C   UNL     1       4.317   3.082  18.763  0.00  0.00    +0.000 C 
ATOM      3  N   UNL     1       4.131   3.728  17.548  0.00  0.00    +0.000 N 
ATOM      4  C   UNL     1       5.422   4.243  17.131  0.00  0.00    +0.000 C 
ATOM      5  C   UNL     1       5.520   5.303  16.056  0.00  0.00    +0.000 C 
ATOM      6  C   UNL     1       7.014   5.745  15.991  0.00  0.00    +0.000 C 
ATOM      7  C   UNL     1       7.526   6.230  17.379  0.00  0.00    +0.000 C 
ATOM      8  C   UNL     1       7.384   5.119  18.463  0.00  0.00    +0.000 C 
ATOM      9  C   UNL     1       5.927   4.711  18.498  0.00  0.00    +0.000 C 
ATOM     10  N   UNL     1       5.529   3.541  19.254  0.00  0.00    +0.000 N 
ATOM     11  H   UNL     1       3.521   3.306  16.862  0.00  0.00    +0.000 HD
ATOM     12  H   UNL     1       5.686   3.468  20.252  0.00  0.00    +0.000 HD
ENDROOT
BRANCH   5  13
ATOM     13  O   UNL     1       5.124   4.759  14.797  0.00  0.00    +0.000 OA
ATOM     14  H   UNL     1       4.153   4.859  14.726  0.00  0.00    +0.000 HD
ENDBRANCH   5  13
BRANCH   6  15
ATOM     15  O   UNL     1       7.803   4.660  15.484  0.00  0.00    +0.000 OA
ATOM     16  H   UNL     1       7.264   3.885  15.253  0.00  0.00    +0.000 HD
ENDBRANCH   6  15
BRANCH   7  17
ATOM     17  O   UNL     1       6.832   7.406  17.817  0.00  0.00    +0.000 OA
ATOM     18  H   UNL     1       7.415   8.035  18.269  0.00  0.00    +0.000 HD
ENDBRANCH   7  17
BRANCH   8  19
ATOM     19  O   UNL     1       7.785   5.632  19.737  0.00  0.00    +0.000 OA
ATOM     20  H   UNL     1       8.553   6.217  19.587  0.00  0.00    +0.000 HD
ENDBRANCH   8  19
BRANCH   1  21
ATOM     21  C   UNL     1       2.366   1.830  18.711  0.00  0.00    +0.000 C 
BRANCH  21  22
ATOM     22  C   UNL     1       1.217   2.589  19.369  0.00  0.00    +0.000 C 
BRANCH  22  23
ATOM     23  C   UNL     1       1.393   2.642  20.885  0.00  0.00    +0.000 C 
BRANCH  23  24
ATOM     24  C   UNL     1       1.883   4.016  21.341  0.00  0.00    +0.000 C 
BRANCH  24  25
ATOM     25  C   UNL     1       1.464   5.105  20.353  0.00  0.00    +0.000 C 
BRANCH  25  26
ATOM     26  C   UNL     1       2.636   6.021  20.003  0.00  0.00    +0.000 C 
BRANCH  26  27
ATOM     27  C   UNL     1       2.154   7.427  19.646  0.00  0.00    +0.000 C 
BRANCH  27  29
ATOM     28  C   UNL     1       1.997   9.167  17.835  0.00  0.00    +0.000 C 
ATOM     29  C   UNL     1       2.349   7.724  18.160  0.00  0.00    +0.000 C 
ENDBRANCH  27  29
ENDBRANCH  26  27
ENDBRANCH  25  26
ENDBRANCH  24  25
ENDBRANCH  23  24
ENDBRANCH  22  23
ENDBRANCH  21  22
ENDBRANCH   1  21
TORSDOF 12
ENDMDL
MODEL 7
REMARK VINA RESULT:      -7.1      3.422      5.502
REMARK  Name = 
REMARK  13 active torsions:
REMARK  status: ('A' for Active; 'I' for Inactive)
REMARK    1  A    between atoms: C_1  and  C_2
REMARK    2  A    between atoms: C_2  and  C_3
REMARK    3  A    between atoms: C_3  and  C_4
REMARK    4  A    between atoms: C_4  and  C_5
REMARK    5  A    between atoms: C_5  and  C_6
REMARK    6  A    between atoms: C_6  and  C_7
REMARK    7  A    between atoms: C_7  and  C_8
REMARK    8  A    between atoms: C_8  and  C_9
REMARK    9  A    between atoms: C_9  and  N_10
REMARK   10  A    between atoms: C_14  and  O_15
REMARK   11  A    between atoms: C_16  and  O_17
REMARK   12  A    between atoms: C_18  and  O_19
REMARK   13  A    between atoms: C_20  and  O_21
REMARK                            x       y       z     vdW  Elec       q    Type
REMARK                         _______ _______ _______ _____ _____    ______ ____
ROOT
ATOM      1  N   UNL     1       6.441   5.543  17.545  0.00  0.00    +0.000 NA
ATOM      2  C   UNL     1       5.386   5.071  18.072  0.00  0.00    +0.000 C 
ATOM      3  N   UNL     1       4.264   5.697  18.599  0.00  0.00    +0.000 N 
ATOM      4  C   UNL     1       3.592   4.735  19.451  0.00  0.00    +0.000 C 
ATOM      5  C   UNL     1       2.158   4.954  19.883  0.00  0.00    +0.000 C 
ATOM      6  C   UNL     1       1.706   3.660  20.626  0.00  0.00    +0.000 C 
ATOM      7  C   UNL     1       1.892   2.397  19.735  0.00  0.00    +0.000 C 
ATOM      8  C   UNL     1       3.375   2.221  19.290  0.00  0.00    +0.000 C 
ATOM      9  C   UNL     1       3.782   3.492  18.577  0.00  0.00    +0.000 C 
ATOM     10  N   UNL     1       5.175   3.712  18.244  0.00  0.00    +0.000 N 
ATOM     11  H   UNL     1       4.342   6.658  18.902  0.00  0.00    +0.000 HD
ATOM     12  H   UNL     1       5.689   3.080  17.641  0.00  0.00    +0.000 HD
ENDROOT
BRANCH   5  13
ATOM     13  O   UNL     1       2.082   6.071  20.771  0.00  0.00    +0.000 OA
ATOM     14  H   UNL     1       1.367   5.887  21.412  0.00  0.00    +0.000 HD
ENDBRANCH   5  13
BRANCH   6  15
ATOM     15  O   UNL     1       2.429   3.550  21.860  0.00  0.00    +0.000 OA
ATOM     16  H   UNL     1       2.590   4.414  22.274  0.00  0.00    +0.000 HD
ENDBRANCH   6  15
BRANCH   7  17
ATOM     17  O   UNL     1       1.054   2.443  18.572  0.00  0.00    +0.000 OA
ATOM     18  H   UNL     1       0.218   2.906  18.734  0.00  0.00    +0.000 HD
ENDBRANCH   7  17
BRANCH   8  19
ATOM     19  O   UNL     1       3.486   1.101  18.406  0.00  0.00    +0.000 OA
ATOM     20  H   UNL     1       3.377   0.293  18.945  0.00  0.00    +0.000 HD
ENDBRANCH   8  19
BRANCH   1  21
ATOM     21  C   UNL     1       6.516   7.000  17.457  0.00  0.00    +0.000 C 
BRANCH  21  22
ATOM     22  C   UNL     1       7.879   7.436  17.986  0.00  0.00    +0.000 C 
BRANCH  22  23
ATOM     23  C   UNL     1       8.100   8.931  17.763  0.00  0.00    +0.000 C 
BRANCH  23  24
ATOM     24  C   UNL     1       9.087   9.505  18.779  0.00  0.00    +0.000 C 
BRANCH  24  25
ATOM     25  C   UNL     1       9.282  11.007  18.569  0.00  0.00    +0.000 C 
BRANCH  25  26
ATOM     26  C   UNL     1      10.561  11.297  17.785  0.00  0.00    +0.000 C 
BRANCH  26  27
ATOM     27  C   UNL     1      11.600  11.999  18.660  0.00  0.00    +0.000 C 
BRANCH  27  29
ATOM     28  C   UNL     1      11.480  13.495  16.639  0.00  0.00    +0.000 C 
ATOM     29  C   UNL     1      12.178  13.229  17.963  0.00  0.00    +0.000 C 
ENDBRANCH  27  29
ENDBRANCH  26  27
ENDBRANCH  25  26
ENDBRANCH  24  25
ENDBRANCH  23  24
ENDBRANCH  22  23
ENDBRANCH  21  22
ENDBRANCH   1  21
TORSDOF 12
ENDMDL
MODEL 8
REMARK VINA RESULT:      -7.1      3.100      5.452
REMARK  Name = 
REMARK  13 active torsions:
REMARK  status: ('A' for Active; 'I' for Inactive)
REMARK    1  A    between atoms: C_1  and  C_2
REMARK    2  A    between atoms: C_2  and  C_3
REMARK    3  A    between atoms: C_3  and  C_4
REMARK    4  A    between atoms: C_4  and  C_5
REMARK    5  A    between atoms: C_5  and  C_6
REMARK    6  A    between atoms: C_6  and  C_7
REMARK    7  A    between atoms: C_7  and  C_8
REMARK    8  A    between atoms: C_8  and  C_9
REMARK    9  A    between atoms: C_9  and  N_10
REMARK   10  A    between atoms: C_14  and  O_15
REMARK   11  A    between atoms: C_16  and  O_17
REMARK   12  A    between atoms: C_18  and  O_19
REMARK   13  A    between atoms: C_20  and  O_21
REMARK                            x       y       z     vdW  Elec       q    Type
REMARK                         _______ _______ _______ _____ _____    ______ ____
ROOT
ATOM      1  N   UNL     1       6.017   6.049  18.994  0.00  0.00    +0.000 NA
ATOM      2  C   UNL     1       5.144   5.142  19.163  0.00  0.00    +0.000 C 
ATOM      3  N   UNL     1       5.243   3.757  19.141  0.00  0.00    +0.000 N 
ATOM      4  C   UNL     1       3.905   3.231  18.948  0.00  0.00    +0.000 C 
ATOM      5  C   UNL     1       3.595   1.780  19.241  0.00  0.00    +0.000 C 
ATOM      6  C   UNL     1       2.052   1.609  19.100  0.00  0.00    +0.000 C 
ATOM      7  C   UNL     1       1.281   2.599  20.022  0.00  0.00    +0.000 C 
ATOM      8  C   UNL     1       1.647   4.080  19.706  0.00  0.00    +0.000 C 
ATOM      9  C   UNL     1       3.148   4.211  19.848  0.00  0.00    +0.000 C 
ATOM     10  N   UNL     1       3.807   5.422  19.400  0.00  0.00    +0.000 N 
ATOM     11  H   UNL     1       6.017   3.334  18.648  0.00  0.00    +0.000 HD
ATOM     12  H   UNL     1       3.582   6.330  19.788  0.00  0.00    +0.000 HD
ENDROOT
BRANCH   5  13
ATOM     13  O   UNL     1       4.261   0.939  18.298  0.00  0.00    +0.000 OA
ATOM     14  H   UNL     1       5.078   1.399  18.020  0.00  0.00    +0.000 HD
ENDBRANCH   5  13
BRANCH   6  15
ATOM     15  O   UNL     1       1.685   1.772  17.723  0.00  0.00    +0.000 OA
ATOM     16  H   UNL     1       2.107   2.546  17.316  0.00  0.00    +0.000 HD
ENDBRANCH   6  15
BRANCH   7  17
ATOM     17  O   UNL     1       1.537   2.337  21.409  0.00  0.00    +0.000 OA
ATOM     18  H   UNL     1       0.739   2.072  21.891  0.00  0.00    +0.000 HD
ENDBRANCH   7  17
BRANCH   8  19
ATOM     19  O   UNL     1       0.985   4.951  20.629  0.00  0.00    +0.000 OA
ATOM     20  H   UNL     1       0.266   4.438  21.048  0.00  0.00    +0.000 HD
ENDBRANCH   8  19
BRANCH   1  21
ATOM     21  C   UNL     1       7.378   5.586  18.733  0.00  0.00    +0.000 C 
BRANCH  21  22
ATOM     22  C   UNL     1       8.268   6.813  18.552  0.00  0.00    +0.000 C 
BRANCH  22  23
ATOM     23  C   UNL     1       7.642   7.804  17.575  0.00  0.00    +0.000 C 
BRANCH  23  24
ATOM     24  C   UNL     1       8.186   9.216  17.789  0.00  0.00    +0.000 C 
BRANCH  24  25
ATOM     25  C   UNL     1       8.970   9.312  19.098  0.00  0.00    +0.000 C 
BRANCH  25  26
ATOM     26  C   UNL     1       9.551  10.711  19.298  0.00  0.00    +0.000 C 
BRANCH  26  27
ATOM     27  C   UNL     1       9.916  11.356  17.961  0.00  0.00    +0.000 C 
BRANCH  27  29
ATOM     28  C   UNL     1       8.059  12.924  17.311  0.00  0.00    +0.000 C 
ATOM     29  C   UNL     1       9.457  12.811  17.897  0.00  0.00    +0.000 C 
ENDBRANCH  27  29
ENDBRANCH  26  27
ENDBRANCH  25  26
ENDBRANCH  24  25
ENDBRANCH  23  24
ENDBRANCH  22  23
ENDBRANCH  21  22
ENDBRANCH   1  21
TORSDOF 12
ENDMDL
MODEL 9
REMARK VINA RESULT:      -7.1      1.626      3.541
REMARK  Name = 
REMARK  13 active torsions:
REMARK  status: ('A' for Active; 'I' for Inactive)
REMARK    1  A    between atoms: C_1  and  C_2
REMARK    2  A    between atoms: C_2  and  C_3
REMARK    3  A    between atoms: C_3  and  C_4
REMARK    4  A    between atoms: C_4  and  C_5
REMARK    5  A    between atoms: C_5  and  C_6
REMARK    6  A    between atoms: C_6  and  C_7
REMARK    7  A    between atoms: C_7  and  C_8
REMARK    8  A    between atoms: C_8  and  C_9
REMARK    9  A    between atoms: C_9  and  N_10
REMARK   10  A    between atoms: C_14  and  O_15
REMARK   11  A    between atoms: C_16  and  O_17
REMARK   12  A    between atoms: C_18  and  O_19
REMARK   13  A    between atoms: C_20  and  O_21
REMARK                            x       y       z     vdW  Elec       q    Type
REMARK                         _______ _______ _______ _____ _____    ______ ____
ROOT
ATOM      1  N   UNL     1       5.053   5.197  16.510  0.00  0.00    +0.000 NA
ATOM      2  C   UNL     1       4.321   4.713  17.428  0.00  0.00    +0.000 C 
ATOM      3  N   UNL     1       4.090   3.401  17.822  0.00  0.00    +0.000 N 
ATOM      4  C   UNL     1       2.862   3.391  18.593  0.00  0.00    +0.000 C 
ATOM      5  C   UNL     1       2.514   2.214  19.477  0.00  0.00    +0.000 C 
ATOM      6  C   UNL     1       1.240   2.613  20.282  0.00  0.00    +0.000 C 
ATOM      7  C   UNL     1       1.459   3.933  21.078  0.00  0.00    +0.000 C 
ATOM      8  C   UNL     1       1.840   5.114  20.136  0.00  0.00    +0.000 C 
ATOM      9  C   UNL     1       3.075   4.694  19.368  0.00  0.00    +0.000 C 
ATOM     10  N   UNL     1       3.535   5.500  18.255  0.00  0.00    +0.000 N 
ATOM     11  H   UNL     1       4.266   2.658  17.160  0.00  0.00    +0.000 HD
ATOM     12  H   UNL     1       3.803   6.470  18.370  0.00  0.00    +0.000 HD
ENDROOT
BRANCH   5  13
ATOM     13  O   UNL     1       2.236   1.066  18.673  0.00  0.00    +0.000 OA
ATOM     14  H   UNL     1       1.439   0.635  19.042  0.00  0.00    +0.000 HD
ENDBRANCH   5  13
BRANCH   6  15
ATOM     15  O   UNL     1       0.128   2.714  19.382  0.00  0.00    +0.000 OA
ATOM     16  H   UNL     1       0.232   2.149  18.599  0.00  0.00    +0.000 HD
ENDBRANCH   6  15
BRANCH   7  17
ATOM     17  O   UNL     1       2.474   3.784  22.080  0.00  0.00    +0.000 OA
ATOM     18  H   UNL     1       2.347   2.990  22.623  0.00  0.00    +0.000 HD
ENDBRANCH   7  17
BRANCH   8  19
ATOM     19  O   UNL     1       2.115   6.284  20.913  0.00  0.00    +0.000 OA
ATOM     20  H   UNL     1       2.133   7.044  20.299  0.00  0.00    +0.000 HD
ENDBRANCH   8  19
BRANCH   1  21
ATOM     21  C   UNL     1       5.804   4.230  15.712  0.00  0.00    +0.000 C 
BRANCH  21  22
ATOM     22  C   UNL     1       5.619   4.586  14.239  0.00  0.00    +0.000 C 
BRANCH  22  23
ATOM     23  C   UNL     1       6.913   4.374  13.458  0.00  0.00    +0.000 C 
BRANCH  23  24
ATOM     24  C   UNL     1       6.631   3.984  12.008  0.00  0.00    +0.000 C 
BRANCH  24  25
ATOM     25  C   UNL     1       6.104   2.552  11.916  0.00  0.00    +0.000 C 
BRANCH  25  26
ATOM     26  C   UNL     1       4.629   2.526  11.518  0.00  0.00    +0.000 C 
BRANCH  26  27
ATOM     27  C   UNL     1       4.255   3.761  10.698  0.00  0.00    +0.000 C 
BRANCH  27  29
ATOM     28  C   UNL     1       2.563   4.793   9.147  0.00  0.00    +0.000 C 
ATOM     29  C   UNL     1       2.951   3.550   9.931  0.00  0.00    +0.000 C 
ENDBRANCH  27  29
ENDBRANCH  26  27
ENDBRANCH  25  26
ENDBRANCH  24  25
ENDBRANCH  23  24
ENDBRANCH  22  23
ENDBRANCH  21  22
ENDBRANCH   1  21
TORSDOF 12
ENDMDL
