MODEL 1
REMARK VINA RESULT:      -7.5      0.000      0.000
REMARK  Name = 
REMARK  5 active torsions:
REMARK  status: ('A' for Active; 'I' for Inactive)
REMARK    1  A    between atoms: C_1  and  C_2
REMARK    2  A    between atoms: C_2  and  C_3
REMARK    3  A    between atoms: C_3  and  C_4
REMARK    4  A    between atoms: C_4  and  C_6
REMARK    5  A    between atoms: C_6  and  N_7
REMARK                            x       y       z     vdW  Elec       q    Type
REMARK                         _______ _______ _______ _____ _____    ______ ____
ROOT
ATOM      1  N   UNL     1       5.263   4.738  18.458  0.00  0.00    +0.000 N 
ATOM      2  C   UNL     1       4.657   3.735  19.221  0.00  0.00    +0.000 C 
ATOM      3  O   UNL     1       5.214   2.742  19.672  0.00  0.00    +0.000 OA
ATOM      4  C   UNL     1       3.138   4.133  19.381  0.00  0.00    +0.000 C 
ATOM      5  O   UNL     1       2.277   3.223  18.690  0.00  0.00    +0.000 OA
ATOM      6  C   UNL     1       1.834   2.347  19.722  0.00  0.00    +0.000 C 
ATOM      7  C   UNL     1       1.714   3.261  20.913  0.00  0.00    +0.000 C 
ATOM      8  O   UNL     1       2.761   4.216  20.753  0.00  0.00    +0.000 OA
ATOM      9  C   UNL     1       3.109   5.484  18.715  0.00  0.00    +0.000 A 
ATOM     10  C   UNL     1       2.050   6.369  18.582  0.00  0.00    +0.000 A 
ATOM     11  C   UNL     1       2.281   7.584  17.932  0.00  0.00    +0.000 A 
ATOM     12  C   UNL     1       3.553   7.892  17.424  0.00  0.00    +0.000 A 
ATOM     13  C   UNL     1       4.612   6.987  17.551  0.00  0.00    +0.000 A 
ATOM     14  C   UNL     1       4.372   5.787  18.199  0.00  0.00    +0.000 A 
ENDROOT
BRANCH   1  15
ATOM     15  C   UNL     1       6.649   4.690  18.064  0.00  0.00    +0.000 C 
BRANCH  15  16
ATOM     16  C   UNL     1       6.787   4.800  16.551  0.00  0.00    +0.000 C 
ATOM     17  O   UNL     1       7.466   5.688  16.027  0.00  0.00    +0.000 OA
BRANCH  16  18
ATOM     18  C   UNL     1       6.026   3.780  15.720  0.00  0.00    +0.000 C 
BRANCH  18  20
ATOM     19  C   UNL     1       6.134   3.700  13.197  0.00  0.00    +0.000 C 
ATOM     20  C   UNL     1       5.538   4.392  14.410  0.00  0.00    +0.000 C 
ENDBRANCH  18  20
ENDBRANCH  16  18
ENDBRANCH  15  16
ENDBRANCH   1  15
TORSDOF 4
ENDMDL
MODEL 2
REMARK VINA RESULT:      -7.4      1.366      2.277
REMARK  Name = 
REMARK  5 active torsions:
REMARK  status: ('A' for Active; 'I' for Inactive)
REMARK    1  A    between atoms: C_1  and  C_2
REMARK    2  A    between atoms: C_2  and  C_3
REMARK    3  A    between atoms: C_3  and  C_4
REMARK    4  A    between atoms: C_4  and  C_6
REMARK    5  A    between atoms: C_6  and  N_7
REMARK                            x       y       z     vdW  Elec       q    Type
REMARK                         _______ _______ _______ _____ _____    ______ ____
ROOT
ATOM      1  N   UNL     1       4.446   4.495  17.121  0.00  0.00    +0.000 N 
ATOM      2  C   UNL     1       3.806   3.414  17.735  0.00  0.00    +0.000 C 
ATOM      3  O   UNL     1       4.179   2.247  17.703  0.00  0.00    +0.000 OA
ATOM      4  C   UNL     1       2.528   3.987  18.462  0.00  0.00    +0.000 C 
ATOM      5  O   UNL     1       1.320   3.521  17.856  0.00  0.00    +0.000 OA
ATOM      6  C   UNL     1       0.930   2.440  18.699  0.00  0.00    +0.000 C 
ATOM      7  C   UNL     1       1.346   2.910  20.067  0.00  0.00    +0.000 C 
ATOM      8  O   UNL     1       2.532   3.671  19.853  0.00  0.00    +0.000 OA
ATOM      9  C   UNL     1       2.689   5.467  18.230  0.00  0.00    +0.000 A 
ATOM     10  C   UNL     1       1.896   6.512  18.679  0.00  0.00    +0.000 A 
ATOM     11  C   UNL     1       2.268   7.817  18.343  0.00  0.00    +0.000 A 
ATOM     12  C   UNL     1       3.413   8.055  17.566  0.00  0.00    +0.000 A 
ATOM     13  C   UNL     1       4.199   6.994  17.106  0.00  0.00    +0.000 A 
ATOM     14  C   UNL     1       3.822   5.706  17.447  0.00  0.00    +0.000 A 
ENDROOT
BRANCH   1  15
ATOM     15  C   UNL     1       5.633   4.346  16.316  0.00  0.00    +0.000 C 
BRANCH  15  16
ATOM     16  C   UNL     1       6.888   4.527  17.160  0.00  0.00    +0.000 C 
ATOM     17  O   UNL     1       7.996   4.166  16.755  0.00  0.00    +0.000 OA
BRANCH  16  18
ATOM     18  C   UNL     1       6.702   5.148  18.535  0.00  0.00    +0.000 C 
BRANCH  18  20
ATOM     19  C   UNL     1       7.725   7.371  17.905  0.00  0.00    +0.000 C 
ATOM     20  C   UNL     1       7.798   6.169  18.830  0.00  0.00    +0.000 C 
ENDBRANCH  18  20
ENDBRANCH  16  18
ENDBRANCH  15  16
ENDBRANCH   1  15
TORSDOF 4
ENDMDL
MODEL 3
REMARK VINA RESULT:      -7.3      1.626      4.636
REMARK  Name = 
REMARK  5 active torsions:
REMARK  status: ('A' for Active; 'I' for Inactive)
REMARK    1  A    between atoms: C_1  and  C_2
REMARK    2  A    between atoms: C_2  and  C_3
REMARK    3  A    between atoms: C_3  and  C_4
REMARK    4  A    between atoms: C_4  and  C_6
REMARK    5  A    between atoms: C_6  and  N_7
REMARK                            x       y       z     vdW  Elec       q    Type
REMARK                         _______ _______ _______ _____ _____    ______ ____
ROOT
ATOM      1  N   UNL     1       3.481   4.868  20.044  0.00  0.00    +0.000 N 
ATOM      2  C   UNL     1       4.512   4.157  19.422  0.00  0.00    +0.000 C 
ATOM      3  O   UNL     1       4.933   3.059  19.766  0.00  0.00    +0.000 OA
ATOM      4  C   UNL     1       5.016   5.037  18.214  0.00  0.00    +0.000 C 
ATOM      5  O   UNL     1       6.349   5.512  18.424  0.00  0.00    +0.000 OA
ATOM      6  C   UNL     1       7.142   4.592  17.679  0.00  0.00    +0.000 C 
ATOM      7  C   UNL     1       6.276   4.285  16.487  0.00  0.00    +0.000 C 
ATOM      8  O   UNL     1       4.939   4.326  16.981  0.00  0.00    +0.000 OA
ATOM      9  C   UNL     1       4.043   6.186  18.252  0.00  0.00    +0.000 A 
ATOM     10  C   UNL     1       3.940   7.272  17.396  0.00  0.00    +0.000 A 
ATOM     11  C   UNL     1       2.928   8.207  17.632  0.00  0.00    +0.000 A 
ATOM     12  C   UNL     1       2.046   8.048  18.713  0.00  0.00    +0.000 A 
ATOM     13  C   UNL     1       2.166   6.957  19.579  0.00  0.00    +0.000 A 
ATOM     14  C   UNL     1       3.171   6.036  19.334  0.00  0.00    +0.000 A 
ENDROOT
BRANCH   1  15
ATOM     15  C   UNL     1       2.805   4.393  21.226  0.00  0.00    +0.000 C 
BRANCH  15  16
ATOM     16  C   UNL     1       1.834   3.272  20.882  0.00  0.00    +0.000 C 
ATOM     17  O   UNL     1       1.863   2.189  21.474  0.00  0.00    +0.000 OA
BRANCH  16  18
ATOM     18  C   UNL     1       0.848   3.542  19.758  0.00  0.00    +0.000 C 
BRANCH  18  20
ATOM     19  C   UNL     1       2.054   2.312  17.909  0.00  0.00    +0.000 C 
ATOM     20  C   UNL     1       0.806   2.378  18.772  0.00  0.00    +0.000 C 
ENDBRANCH  18  20
ENDBRANCH  16  18
ENDBRANCH  15  16
ENDBRANCH   1  15
TORSDOF 4
ENDMDL
MODEL 4
REMARK VINA RESULT:      -7.3      1.758      2.780
REMARK  Name = 
REMARK  5 active torsions:
REMARK  status: ('A' for Active; 'I' for Inactive)
REMARK    1  A    between atoms: C_1  and  C_2
REMARK    2  A    between atoms: C_2  and  C_3
REMARK    3  A    between atoms: C_3  and  C_4
REMARK    4  A    between atoms: C_4  and  C_6
REMARK    5  A    between atoms: C_6  and  N_7
REMARK                            x       y       z     vdW  Elec       q    Type
REMARK                         _______ _______ _______ _____ _____    ______ ____
ROOT
ATOM      1  N   UNL     1       4.524   5.530  17.006  0.00  0.00    +0.000 N 
ATOM      2  C   UNL     1       4.780   4.179  17.256  0.00  0.00    +0.000 C 
ATOM      3  O   UNL     1       5.580   3.477  16.648  0.00  0.00    +0.000 OA
ATOM      4  C   UNL     1       3.849   3.746  18.454  0.00  0.00    +0.000 C 
ATOM      5  O   UNL     1       2.851   2.810  18.038  0.00  0.00    +0.000 OA
ATOM      6  C   UNL     1       3.404   1.554  18.424  0.00  0.00    +0.000 C 
ATOM      7  C   UNL     1       4.118   1.879  19.708  0.00  0.00    +0.000 C 
ATOM      8  O   UNL     1       4.605   3.208  19.536  0.00  0.00    +0.000 OA
ATOM      9  C   UNL     1       3.209   5.058  18.825  0.00  0.00    +0.000 A 
ATOM     10  C   UNL     1       2.320   5.336  19.853  0.00  0.00    +0.000 A 
ATOM     11  C   UNL     1       1.877   6.653  20.007  0.00  0.00    +0.000 A 
ATOM     12  C   UNL     1       2.318   7.661  19.136  0.00  0.00    +0.000 A 
ATOM     13  C   UNL     1       3.204   7.369  18.094  0.00  0.00    +0.000 A 
ATOM     14  C   UNL     1       3.638   6.062  17.953  0.00  0.00    +0.000 A 
ENDROOT
BRANCH   1  15
ATOM     15  C   UNL     1       5.160   6.263  15.939  0.00  0.00    +0.000 C 
BRANCH  15  16
ATOM     16  C   UNL     1       6.630   6.510  16.252  0.00  0.00    +0.000 C 
ATOM     17  O   UNL     1       7.528   5.974  15.597  0.00  0.00    +0.000 OA
BRANCH  16  18
ATOM     18  C   UNL     1       6.934   7.426  17.426  0.00  0.00    +0.000 C 
BRANCH  18  20
ATOM     19  C   UNL     1       7.362   5.739  19.257  0.00  0.00    +0.000 C 
ATOM     20  C   UNL     1       7.968   6.801  18.357  0.00  0.00    +0.000 C 
ENDBRANCH  18  20
ENDBRANCH  16  18
ENDBRANCH  15  16
ENDBRANCH   1  15
TORSDOF 4
ENDMDL
MODEL 5
REMARK VINA RESULT:      -7.2      1.788      2.566
REMARK  Name = 
REMARK  5 active torsions:
REMARK  status: ('A' for Active; 'I' for Inactive)
REMARK    1  A    between atoms: C_1  and  C_2
REMARK    2  A    between atoms: C_2  and  C_3
REMARK    3  A    between atoms: C_3  and  C_4
REMARK    4  A    between atoms: C_4  and  C_6
REMARK    5  A    between atoms: C_6  and  N_7
REMARK                            x       y       z     vdW  Elec       q    Type
REMARK                         _______ _______ _______ _____ _____    ______ ____
ROOT
ATOM      1  N   UNL     1       4.975   4.639  18.554  0.00  0.00    +0.000 N 
ATOM      2  C   UNL     1       4.398   3.679  19.390  0.00  0.00    +0.000 C 
ATOM      3  O   UNL     1       4.955   2.675  19.820  0.00  0.00    +0.000 OA
ATOM      4  C   UNL     1       2.913   4.137  19.664  0.00  0.00    +0.000 C 
ATOM      5  O   UNL     1       1.966   3.245  19.071  0.00  0.00    +0.000 OA
ATOM      6  C   UNL     1       1.579   2.410  20.159  0.00  0.00    +0.000 C 
ATOM      7  C   UNL     1       1.593   3.355  21.331  0.00  0.00    +0.000 C 
ATOM      8  O   UNL     1       2.655   4.266  21.060  0.00  0.00    +0.000 OA
ATOM      9  C   UNL     1       2.878   5.472  18.968  0.00  0.00    +0.000 A 
ATOM     10  C   UNL     1       1.844   6.393  18.900  0.00  0.00    +0.000 A 
ATOM     11  C   UNL     1       2.063   7.584  18.201  0.00  0.00    +0.000 A 
ATOM     12  C   UNL     1       3.298   7.831  17.581  0.00  0.00    +0.000 A 
ATOM     13  C   UNL     1       4.331   6.889  17.644  0.00  0.00    +0.000 A 
ATOM     14  C   UNL     1       4.103   5.715  18.341  0.00  0.00    +0.000 A 
ENDROOT
BRANCH   1  15
ATOM     15  C   UNL     1       6.320   4.529  18.048  0.00  0.00    +0.000 C 
BRANCH  15  16
ATOM     16  C   UNL     1       7.235   5.550  18.712  0.00  0.00    +0.000 C 
ATOM     17  O   UNL     1       7.472   5.512  19.923  0.00  0.00    +0.000 OA
BRANCH  16  18
ATOM     18  C   UNL     1       7.817   6.631  17.816  0.00  0.00    +0.000 C 
BRANCH  18  20
ATOM     19  C   UNL     1       8.143   9.135  17.922  0.00  0.00    +0.000 C 
ATOM     20  C   UNL     1       8.330   7.809  18.639  0.00  0.00    +0.000 C 
ENDBRANCH  18  20
ENDBRANCH  16  18
ENDBRANCH  15  16
ENDBRANCH   1  15
TORSDOF 4
ENDMDL
MODEL 6
REMARK VINA RESULT:      -7.2      1.234      2.172
REMARK  Name = 
REMARK  5 active torsions:
REMARK  status: ('A' for Active; 'I' for Inactive)
REMARK    1  A    between atoms: C_1  and  C_2
REMARK    2  A    between atoms: C_2  and  C_3
REMARK    3  A    between atoms: C_3  and  C_4
REMARK    4  A    between atoms: C_4  and  C_6
REMARK    5  A    between atoms: C_6  and  N_7
REMARK                            x       y       z     vdW  Elec       q    Type
REMARK                         _______ _______ _______ _____ _____    ______ ____
ROOT
ATOM      1  N   UNL     1       4.278   4.371  16.937  0.00  0.00    +0.000 N 
ATOM      2  C   UNL     1       3.911   3.281  17.732  0.00  0.00    +0.000 C 
ATOM      3  O   UNL     1       4.290   2.125  17.584  0.00  0.00    +0.000 OA
ATOM      4  C   UNL     1       2.926   3.827  18.837  0.00  0.00    +0.000 C 
ATOM      5  O   UNL     1       1.601   3.317  18.665  0.00  0.00    +0.000 OA
ATOM      6  C   UNL     1       1.546   2.237  19.594  0.00  0.00    +0.000 C 
ATOM      7  C   UNL     1       2.373   2.739  20.747  0.00  0.00    +0.000 C 
ATOM      8  O   UNL     1       3.398   3.531  20.150  0.00  0.00    +0.000 OA
ATOM      9  C   UNL     1       2.953   5.307  18.559  0.00  0.00    +0.000 A 
ATOM     10  C   UNL     1       2.319   6.335  19.240  0.00  0.00    +0.000 A 
ATOM     11  C   UNL     1       2.518   7.645  18.795  0.00  0.00    +0.000 A 
ATOM     12  C   UNL     1       3.334   7.906  17.683  0.00  0.00    +0.000 A 
ATOM     13  C   UNL     1       3.958   6.861  16.994  0.00  0.00    +0.000 A 
ATOM     14  C   UNL     1       3.757   5.568  17.446  0.00  0.00    +0.000 A 
ENDROOT
BRANCH   1  15
ATOM     15  C   UNL     1       5.138   4.245  15.787  0.00  0.00    +0.000 C 
BRANCH  15  16
ATOM     16  C   UNL     1       6.463   4.959  16.019  0.00  0.00    +0.000 C 
ATOM     17  O   UNL     1       6.857   5.850  15.261  0.00  0.00    +0.000 OA
BRANCH  16  18
ATOM     18  C   UNL     1       7.286   4.501  17.211  0.00  0.00    +0.000 C 
BRANCH  18  20
ATOM     19  C   UNL     1       6.733   5.484  19.473  0.00  0.00    +0.000 C 
ATOM     20  C   UNL     1       7.526   5.649  18.188  0.00  0.00    +0.000 C 
ENDBRANCH  18  20
ENDBRANCH  16  18
ENDBRANCH  15  16
ENDBRANCH   1  15
TORSDOF 4
ENDMDL
MODEL 7
REMARK VINA RESULT:      -7.1      1.041      1.243
REMARK  Name = 
REMARK  5 active torsions:
REMARK  status: ('A' for Active; 'I' for Inactive)
REMARK    1  A    between atoms: C_1  and  C_2
REMARK    2  A    between atoms: C_2  and  C_3
REMARK    3  A    between atoms: C_3  and  C_4
REMARK    4  A    between atoms: C_4  and  C_6
REMARK    5  A    between atoms: C_6  and  N_7
REMARK                            x       y       z     vdW  Elec       q    Type
REMARK                         _______ _______ _______ _____ _____    ______ ____
ROOT
ATOM      1  N   UNL     1       5.229   5.089  18.836  0.00  0.00    +0.000 N 
ATOM      2  C   UNL     1       4.696   3.850  19.204  0.00  0.00    +0.000 C 
ATOM      3  O   UNL     1       5.322   2.918  19.697  0.00  0.00    +0.000 OA
ATOM      4  C   UNL     1       3.156   3.890  18.862  0.00  0.00    +0.000 C 
ATOM      5  O   UNL     1       2.825   2.986  17.805  0.00  0.00    +0.000 OA
ATOM      6  C   UNL     1       2.323   1.846  18.497  0.00  0.00    +0.000 C 
ATOM      7  C   UNL     1       1.601   2.453  19.670  0.00  0.00    +0.000 C 
ATOM      8  O   UNL     1       2.358   3.613  20.011  0.00  0.00    +0.000 OA
ATOM      9  C   UNL     1       2.988   5.314  18.402  0.00  0.00    +0.000 A 
ATOM     10  C   UNL     1       1.833   5.975  18.012  0.00  0.00    +0.000 A 
ATOM     11  C   UNL     1       1.932   7.319  17.641  0.00  0.00    +0.000 A 
ATOM     12  C   UNL     1       3.173   7.975  17.659  0.00  0.00    +0.000 A 
ATOM     13  C   UNL     1       4.335   7.296  18.040  0.00  0.00    +0.000 A 
ATOM     14  C   UNL     1       4.224   5.966  18.408  0.00  0.00    +0.000 A 
ENDROOT
BRANCH   1  15
ATOM     15  C   UNL     1       6.631   5.404  18.956  0.00  0.00    +0.000 C 
BRANCH  15  16
ATOM     16  C   UNL     1       7.394   4.967  17.712  0.00  0.00    +0.000 C 
ATOM     17  O   UNL     1       8.259   4.087  17.761  0.00  0.00    +0.000 OA
BRANCH  16  18
ATOM     18  C   UNL     1       7.058   5.687  16.416  0.00  0.00    +0.000 C 
BRANCH  18  20
ATOM     19  C   UNL     1       5.334   4.219  15.295  0.00  0.00    +0.000 C 
ATOM     20  C   UNL     1       6.777   4.694  15.292  0.00  0.00    +0.000 C 
ENDBRANCH  18  20
ENDBRANCH  16  18
ENDBRANCH  15  16
ENDBRANCH   1  15
TORSDOF 4
ENDMDL
MODEL 8
REMARK VINA RESULT:      -7.1      1.183      1.285
REMARK  Name = 
REMARK  5 active torsions:
REMARK  status: ('A' for Active; 'I' for Inactive)
REMARK    1  A    between atoms: C_1  and  C_2
REMARK    2  A    between atoms: C_2  and  C_3
REMARK    3  A    between atoms: C_3  and  C_4
REMARK    4  A    between atoms: C_4  and  C_6
REMARK    5  A    between atoms: C_6  and  N_7
REMARK                            x       y       z     vdW  Elec       q    Type
REMARK                         _______ _______ _______ _____ _____    ______ ____
ROOT
ATOM      1  N   UNL     1       3.949   4.232  17.713  0.00  0.00    +0.000 N 
ATOM      2  C   UNL     1       3.540   3.315  18.686  0.00  0.00    +0.000 C 
ATOM      3  O   UNL     1       3.879   2.139  18.750  0.00  0.00    +0.000 OA
ATOM      4  C   UNL     1       2.571   4.083  19.666  0.00  0.00    +0.000 C 
ATOM      5  O   UNL     1       1.229   3.596  19.574  0.00  0.00    +0.000 OA
ATOM      6  C   UNL     1       1.132   2.702  20.680  0.00  0.00    +0.000 C 
ATOM      7  C   UNL     1       1.972   3.374  21.733  0.00  0.00    +0.000 C 
ATOM      8  O   UNL     1       3.026   4.012  21.015  0.00  0.00    +0.000 OA
ATOM      9  C   UNL     1       2.652   5.488  19.128  0.00  0.00    +0.000 A 
ATOM     10  C   UNL     1       2.051   6.642  19.607  0.00  0.00    +0.000 A 
ATOM     11  C   UNL     1       2.298   7.844  18.937  0.00  0.00    +0.000 A 
ATOM     12  C   UNL     1       3.127   7.873  17.805  0.00  0.00    +0.000 A 
ATOM     13  C   UNL     1       3.717   6.701  17.320  0.00  0.00    +0.000 A 
ATOM     14  C   UNL     1       3.468   5.517  17.994  0.00  0.00    +0.000 A 
ENDROOT
BRANCH   1  15
ATOM     15  C   UNL     1       4.808   3.873  16.612  0.00  0.00    +0.000 C 
BRANCH  15  16
ATOM     16  C   UNL     1       6.245   4.298  16.884  0.00  0.00    +0.000 C 
ATOM     17  O   UNL     1       6.706   4.320  18.029  0.00  0.00    +0.000 OA
BRANCH  16  18
ATOM     18  C   UNL     1       7.072   4.720  15.681  0.00  0.00    +0.000 C 
BRANCH  18  20
ATOM     19  C   UNL     1       6.367   3.882  13.404  0.00  0.00    +0.000 C 
ATOM     20  C   UNL     1       6.187   4.957  14.461  0.00  0.00    +0.000 C 
ENDBRANCH  18  20
ENDBRANCH  16  18
ENDBRANCH  15  16
ENDBRANCH   1  15
TORSDOF 4
ENDMDL
MODEL 9
REMARK VINA RESULT:      -7.0      1.517      2.219
REMARK  Name = 
REMARK  5 active torsions:
REMARK  status: ('A' for Active; 'I' for Inactive)
REMARK    1  A    between atoms: C_1  and  C_2
REMARK    2  A    between atoms: C_2  and  C_3
REMARK    3  A    between atoms: C_3  and  C_4
REMARK    4  A    between atoms: C_4  and  C_6
REMARK    5  A    between atoms: C_6  and  N_7
REMARK                            x       y       z     vdW  Elec       q    Type
REMARK                         _______ _______ _______ _____ _____    ______ ____
ROOT
ATOM      1  N   UNL     1       4.136   4.675  17.897  0.00  0.00    +0.000 N 
ATOM      2  C   UNL     1       3.739   3.684  18.801  0.00  0.00    +0.000 C 
ATOM      3  O   UNL     1       4.203   2.552  18.873  0.00  0.00    +0.000 OA
ATOM      4  C   UNL     1       2.593   4.304  19.691  0.00  0.00    +0.000 C 
ATOM      5  O   UNL     1       1.333   3.672  19.448  0.00  0.00    +0.000 OA
ATOM      6  C   UNL     1       1.228   2.735  20.516  0.00  0.00    +0.000 C 
ATOM      7  C   UNL     1       1.873   3.460  21.667  0.00  0.00    +0.000 C 
ATOM      8  O   UNL     1       2.914   4.237  21.078  0.00  0.00    +0.000 OA
ATOM      9  C   UNL     1       2.565   5.727  19.197  0.00  0.00    +0.000 A 
ATOM     10  C   UNL     1       1.790   6.789  19.638  0.00  0.00    +0.000 A 
ATOM     11  C   UNL     1       1.963   8.033  19.025  0.00  0.00    +0.000 A 
ATOM     12  C   UNL     1       2.894   8.195  17.987  0.00  0.00    +0.000 A 
ATOM     13  C   UNL     1       3.662   7.115  17.540  0.00  0.00    +0.000 A 
ATOM     14  C   UNL     1       3.484   5.887  18.156  0.00  0.00    +0.000 A 
ENDROOT
BRANCH   1  15
ATOM     15  C   UNL     1       5.138   4.453  16.885  0.00  0.00    +0.000 C 
BRANCH  15  16
ATOM     16  C   UNL     1       6.519   4.848  17.393  0.00  0.00    +0.000 C 
ATOM     17  O   UNL     1       7.027   4.299  18.374  0.00  0.00    +0.000 OA
BRANCH  16  18
ATOM     18  C   UNL     1       7.225   5.970  16.648  0.00  0.00    +0.000 C 
BRANCH  18  20
ATOM     19  C   UNL     1       8.185   7.659  18.263  0.00  0.00    +0.000 C 
ATOM     20  C   UNL     1       7.023   7.309  17.351  0.00  0.00    +0.000 C 
ENDBRANCH  18  20
ENDBRANCH  16  18
ENDBRANCH  15  16
ENDBRANCH   1  15
TORSDOF 4
ENDMDL
